@<TRIPOS>MOLECULE
*****
 22 25 0 0 0
SMALL
GASTEIGER

@<TRIPOS>ATOM
      1 O          -8.4668  -18.5482   20.3119 O.2     1  UNL1       -0.2448
      2 C          -8.4484  -17.9337   21.6800 C.2     1  UNL1        0.3428
      3 C          -9.3431  -18.4728   22.7566 C.2     1  UNL1        0.0963
      4 C          -8.9583  -19.4781   23.8014 C.2     1  UNL1        0.1049
      5 N         -10.1570  -19.7278   24.6678 N.2     1  UNL1       -0.2476
      6 C         -11.2825  -18.8770   24.1586 C.2     1  UNL1        0.0641
      7 C         -12.7005  -18.7084   24.6178 C.3     1  UNL1        0.0718
      8 C         -13.6153  -17.7640   23.8959 C.2     1  UNL1       -0.0193
      9 C         -13.1123  -16.9884   22.7147 C.2     1  UNL1        0.0026
     10 C         -11.6943  -17.1571   22.2554 C.2     1  UNL1        0.0356
     11 BR        -11.1913  -16.3814   21.0742 Br      1  UNL1       -0.0490
     12 C         -10.7795  -18.1014   22.9774 C.2     1  UNL1        0.0278
     13 O          -7.5352  -16.7799   21.9717 O.3     1  UNL1       -0.4454
     14 C          -8.0005  -15.6595   22.8539 C.3     1  UNL1        0.2087
     15 C          -7.5903  -15.6208   24.2962 C.3     1  UNL1        0.0445
     16 C          -6.1733  -15.2945   24.6644 C.3     1  UNL1        0.0210
     17 C          -5.7631  -15.2558   26.1067 C.3     1  UNL1        0.0722
     18 N          -6.7699  -15.5435   27.1809 N.3     1  UNL1       -0.2727
     19 C          -8.1869  -15.8698   26.8126 C.3     1  UNL1        0.0722
     20 C          -8.5971  -15.9085   25.3702 C.3     1  UNL1        0.0210
     21 C          -7.0417  -15.5766   26.4043 C.3     1  UNL1        0.0722
     22 C          -7.4127  -15.6116   25.1002 C.3     1  UNL1        0.0210
@<TRIPOS>BOND
     1     1     2    2
     2     2    13    1
     3    13    14    1
     4    14    15    1
     5    15    16    1
     6    16    17    1
     7    17    18    1
     8    18    19    1
     9    19    20    1
    10    18    21    1
    11    21    22    1
    12     2     3    1
    13     3     4    2
    14     4     5    1
    15     5     6    2
    16     6     7    1
    17     7     8    1
    18     8     9    2
    19     9    10    1
    20    10    11    1
    21    10    12    2
    22    20    15    1
    23    12     3    1
    24    22    15    1
    25    12     6    1
@<TRIPOS>MOLECULE
*****
 22 25 0 0 0
SMALL
GASTEIGER

@<TRIPOS>ATOM
      1 O          -6.9746  -20.0138   22.3134 O.2     1  UNL1       -0.2448
      2 C          -7.2679  -18.6782   21.6971 C.2     1  UNL1        0.3428
      3 C          -8.2682  -17.7608   22.3358 C.2     1  UNL1        0.0963
      4 C          -8.0172  -16.8643   23.5119 C.2     1  UNL1        0.1049
      5 N          -9.2890  -16.1284   23.8135 N.2     1  UNL1       -0.2476
      6 C         -10.3260  -16.5700   22.8237 C.2     1  UNL1        0.0641
      7 C         -11.7632  -16.1839   22.6361 C.3     1  UNL1        0.0718
      8 C         -12.5695  -16.8066   21.5353 C.2     1  UNL1       -0.0193
      9 C         -11.9386  -17.8156   20.6220 C.2     1  UNL1        0.0026
     10 C         -10.5014  -18.2017   20.8096 C.2     1  UNL1        0.0356
     11 BR         -9.8705  -19.2107   19.8964 Br      1  UNL1       -0.0490
     12 C          -9.6951  -17.5790   21.9105 C.2     1  UNL1        0.0278
     13 O          -6.5609  -18.2598   20.4420 O.3     1  UNL1       -0.4454
     14 C          -5.5901  -19.1931   19.7814 C.3     1  UNL1        0.2087
     15 C          -4.1227  -19.0759   20.0693 C.3     1  UNL1        0.0445
     16 C          -3.5498  -19.6957   21.3093 C.3     1  UNL1        0.0210
     17 C          -2.0824  -19.5784   21.5972 C.3     1  UNL1        0.0722
     18 N          -1.1877  -18.8413   20.6451 N.3     1  UNL1       -0.2727
     19 C          -1.7606  -18.2215   19.4051 C.3     1  UNL1        0.0722
     20 C          -3.2282  -18.3388   19.1172 C.3     1  UNL1        0.0210
     21 C          -1.9855  -18.8793   20.4449 C.3     1  UNL1        0.0722
     22 C          -3.3124  -18.9853   20.1845 C.3     1  UNL1        0.0210
@<TRIPOS>BOND
     1     1     2    2
     2     2    13    1
     3    13    14    1
     4    14    15    1
     5    15    16    1
     6    16    17    1
     7    17    18    1
     8    18    19    1
     9    19    20    1
    10    18    21    1
    11    21    22    1
    12     2     3    1
    13     3     4    2
    14     4     5    1
    15     5     6    2
    16     6     7    1
    17     7     8    1
    18     8     9    2
    19     9    10    1
    20    10    11    1
    21    10    12    2
    22    20    15    1
    23    12     3    1
    24    22    15    1
    25    12     6    1
@<TRIPOS>MOLECULE
*****
 22 25 0 0 0
SMALL
GASTEIGER

@<TRIPOS>ATOM
      1 O          -8.2296  -18.6717   20.4850 O.2     1  UNL1       -0.2448
      2 C          -8.6026  -17.5466   21.4042 C.2     1  UNL1        0.3428
      3 C         -10.0454  -17.1884   21.6042 C.2     1  UNL1        0.0963
      4 C         -10.8373  -16.2222   20.7739 C.2     1  UNL1        0.1049
      5 N         -12.2309  -16.1702   21.3262 N.2     1  UNL1       -0.2476
      6 C         -12.3003  -17.1042   22.4979 C.2     1  UNL1        0.0641
      7 C         -13.4190  -17.4630   23.4305 C.3     1  UNL1        0.0718
      8 C         -13.1869  -18.4511   24.5350 C.2     1  UNL1       -0.0193
      9 C         -11.8361  -19.0804   24.7068 C.2     1  UNL1        0.0026
     10 C         -10.7175  -18.7216   23.7741 C.2     1  UNL1        0.0356
     11 BR         -9.3668  -19.3509   23.9459 Br      1  UNL1       -0.0490
     12 C         -10.9496  -17.7335   22.6697 C.2     1  UNL1        0.0278
     13 O          -7.5327  -16.7796   22.1234 O.3     1  UNL1       -0.4454
     14 C          -7.9002  -15.6075   22.9844 C.3     1  UNL1        0.2087
     15 C          -7.5329  -15.6010   24.4387 C.3     1  UNL1        0.0445
     16 C          -6.1352  -15.2537   24.8578 C.3     1  UNL1        0.0210
     17 C          -5.7680  -15.2472   26.3121 C.3     1  UNL1        0.0722
     18 N          -6.7986  -15.5879   27.3474 N.3     1  UNL1       -0.2727
     19 C          -8.1964  -15.9351   26.9283 C.3     1  UNL1        0.0722
     20 C          -8.5636  -15.9417   25.4739 C.3     1  UNL1        0.0210
     21 C          -7.0469  -15.6048   26.5625 C.3     1  UNL1        0.0722
     22 C          -7.3790  -15.6108   25.2475 C.3     1  UNL1        0.0210
@<TRIPOS>BOND
     1     1     2    2
     2     2    13    1
     3    13    14    1
     4    14    15    1
     5    15    16    1
     6    16    17    1
     7    17    18    1
     8    18    19    1
     9    19    20    1
    10    18    21    1
    11    21    22    1
    12     2     3    1
    13     3     4    2
    14     4     5    1
    15     5     6    2
    16     6     7    1
    17     7     8    1
    18     8     9    2
    19     9    10    1
    20    10    11    1
    21    10    12    2
    22    20    15    1
    23    12     3    1
    24    22    15    1
    25    12     6    1
@<TRIPOS>MOLECULE
*****
 22 25 0 0 0
SMALL
GASTEIGER

@<TRIPOS>ATOM
      1 O          -8.0719  -15.3015   21.3967 O.2     1  UNL1       -0.2448
      2 C          -7.8925  -16.6313   22.0671 C.2     1  UNL1        0.3428
      3 C          -8.4344  -16.8544   23.4478 C.2     1  UNL1        0.0963
      4 C          -9.7017  -17.5799   23.7910 C.2     1  UNL1        0.1049
      5 N          -9.8547  -17.5651   25.2831 N.2     1  UNL1       -0.2476
      6 C          -8.6820  -16.8304   25.8621 C.2     1  UNL1        0.0641
      7 C          -8.3001  -16.5047   27.2756 C.3     1  UNL1        0.0718
      8 C          -7.0404  -15.7397   27.5548 C.2     1  UNL1       -0.0193
      9 C          -6.1627  -15.3005   26.4205 C.2     1  UNL1        0.0026
     10 C          -6.5446  -15.6262   25.0070 C.2     1  UNL1        0.0356
     11 BR         -5.6668  -15.1870   23.8727 Br      1  UNL1       -0.0490
     12 C          -7.8042  -16.3912   24.7278 C.2     1  UNL1        0.0278
     13 O          -7.1710  -17.7381   21.3565 O.3     1  UNL1       -0.4454
     14 C          -6.4397  -18.7839   22.1448 C.3     1  UNL1        0.2087
     15 C          -4.9510  -18.9151   22.0166 C.3     1  UNL1        0.0445
     16 C          -4.0486  -18.1591   22.9460 C.3     1  UNL1        0.0210
     17 C          -2.5598  -18.2903   22.8177 C.3     1  UNL1        0.0722
     18 N          -1.9735  -19.1777   21.7599 N.3     1  UNL1       -0.2727
     19 C          -2.8760  -19.9337   20.8304 C.3     1  UNL1        0.0722
     20 C          -4.3648  -19.8025   20.9588 C.3     1  UNL1        0.0210
     21 C          -2.7953  -19.1376   21.7917 C.3     1  UNL1        0.0722
     22 C          -4.1415  -19.0190   21.9076 C.3     1  UNL1        0.0210
@<TRIPOS>BOND
     1     1     2    2
     2     2    13    1
     3    13    14    1
     4    14    15    1
     5    15    16    1
     6    16    17    1
     7    17    18    1
     8    18    19    1
     9    19    20    1
    10    18    21    1
    11    21    22    1
    12     2     3    1
    13     3     4    2
    14     4     5    1
    15     5     6    2
    16     6     7    1
    17     7     8    1
    18     8     9    2
    19     9    10    1
    20    10    11    1
    21    10    12    2
    22    20    15    1
    23    12     3    1
    24    22    15    1
    25    12     6    1
@<TRIPOS>MOLECULE
*****
 22 25 0 0 0
SMALL
GASTEIGER

@<TRIPOS>ATOM
      1 O          -6.4603  -17.1934   22.8842 O.2     1  UNL1       -0.2448
      2 C          -7.3529  -18.0276   22.0141 C.2     1  UNL1        0.3428
      3 C          -8.6137  -18.6140   22.5766 C.2     1  UNL1        0.0963
      4 C          -8.7574  -19.9783   23.1834 C.2     1  UNL1        0.1049
      5 N         -10.1847  -20.1465   23.6129 N.2     1  UNL1       -0.2476
      6 C         -10.9232  -18.8862   23.2716 C.2     1  UNL1        0.0641
      7 C         -12.3542  -18.4788   23.4612 C.3     1  UNL1        0.0718
      8 C         -12.8143  -17.1242   23.0104 C.2     1  UNL1       -0.0193
      9 C         -11.8434  -16.1771   22.3699 C.2     1  UNL1        0.0026
     10 C         -10.4123  -16.5845   22.1802 C.2     1  UNL1        0.0356
     11 BR         -9.4414  -15.6374   21.5397 Br      1  UNL1       -0.0490
     12 C          -9.9522  -17.9391   22.6311 C.2     1  UNL1        0.0278
     13 O          -6.9846  -18.2755   20.5812 O.3     1  UNL1       -0.4454
     14 C          -6.0852  -19.4220   20.2255 C.3     1  UNL1        0.2087
     15 C          -4.5988  -19.2817   20.3694 C.3     1  UNL1        0.0445
     16 C          -3.9223  -19.7251   21.6327 C.3     1  UNL1        0.0210
     17 C          -2.4359  -19.5847   21.7765 C.3     1  UNL1        0.0722
     18 N          -1.6257  -19.0010   20.6571 N.3     1  UNL1       -0.2727
     19 C          -2.3022  -18.5576   19.3939 C.3     1  UNL1        0.0722
     20 C          -3.7887  -18.6980   19.2500 C.3     1  UNL1        0.0210
     21 C          -2.4376  -19.0580   20.5321 C.3     1  UNL1        0.0722
     22 C          -3.7817  -19.1848   20.4019 C.3     1  UNL1        0.0210
@<TRIPOS>BOND
     1     1     2    2
     2     2    13    1
     3    13    14    1
     4    14    15    1
     5    15    16    1
     6    16    17    1
     7    17    18    1
     8    18    19    1
     9    19    20    1
    10    18    21    1
    11    21    22    1
    12     2     3    1
    13     3     4    2
    14     4     5    1
    15     5     6    2
    16     6     7    1
    17     7     8    1
    18     8     9    2
    19     9    10    1
    20    10    11    1
    21    10    12    2
    22    20    15    1
    23    12     3    1
    24    22    15    1
    25    12     6    1
@<TRIPOS>MOLECULE
*****
 22 25 0 0 0
SMALL
GASTEIGER

@<TRIPOS>ATOM
      1 O          -7.3214  -20.0037   22.3296 O.2     1  UNL1       -0.2448
      2 C          -7.6122  -19.0628   21.1983 C.2     1  UNL1        0.3428
      3 C          -9.0290  -18.8212   20.7690 C.2     1  UNL1        0.0963
      4 C          -9.7133  -19.4511   19.5922 C.2     1  UNL1        0.1049
      5 N         -11.1175  -18.9264   19.5371 N.2     1  UNL1       -0.2476
      6 C         -11.3010  -17.9722   20.6799 C.2     1  UNL1        0.0641
      7 C         -12.4767  -17.1542   21.1255 C.3     1  UNL1        0.0718
      8 C         -12.3616  -16.2711   22.3325 C.2     1  UNL1       -0.0193
      9 C         -11.0708  -16.2061   23.0939 C.2     1  UNL1        0.0026
     10 C          -9.8951  -17.0241   22.6482 C.2     1  UNL1        0.0356
     11 BR         -8.6044  -16.9590   23.4096 Br      1  UNL1       -0.0490
     12 C         -10.0102  -17.9072   21.4412 C.2     1  UNL1        0.0278
     13 O          -6.4861  -18.3633   20.4962 O.3     1  UNL1       -0.4454
     14 C          -5.4835  -19.1565   19.7116 C.3     1  UNL1        0.2087
     15 C          -4.0213  -19.0340   20.0226 C.3     1  UNL1        0.0445
     16 C          -3.1291  -18.2265   19.1271 C.3     1  UNL1        0.0210
     17 C          -1.6668  -18.1040   19.4381 C.3     1  UNL1        0.0722
     18 N          -1.0967  -18.7890   20.6447 N.3     1  UNL1       -0.2727
     19 C          -1.9889  -19.5965   21.5402 C.3     1  UNL1        0.0722
     20 C          -3.4512  -19.7190   21.2292 C.3     1  UNL1        0.0210
     21 C          -1.9041  -18.8850   20.5151 C.3     1  UNL1        0.0722
     22 C          -3.2264  -18.9959   20.2339 C.3     1  UNL1        0.0210
@<TRIPOS>BOND
     1     1     2    2
     2     2    13    1
     3    13    14    1
     4    14    15    1
     5    15    16    1
     6    16    17    1
     7    17    18    1
     8    18    19    1
     9    19    20    1
    10    18    21    1
    11    21    22    1
    12     2     3    1
    13     3     4    2
    14     4     5    1
    15     5     6    2
    16     6     7    1
    17     7     8    1
    18     8     9    2
    19     9    10    1
    20    10    11    1
    21    10    12    2
    22    20    15    1
    23    12     3    1
    24    22    15    1
    25    12     6    1
@<TRIPOS>MOLECULE
*****
 22 25 0 0 0
SMALL
GASTEIGER

@<TRIPOS>ATOM
      1 O          -7.5902  -17.1659   21.6285 O.2     1  UNL1       -0.2448
      2 C          -8.5565  -18.2783   21.3481 C.2     1  UNL1        0.3428
      3 C         -10.0201  -17.9825   21.2061 C.2     1  UNL1        0.0963
      4 C         -10.7078  -17.5135   19.9583 C.2     1  UNL1        0.1049
      5 N         -12.1658  -17.3449   20.2680 N.2     1  UNL1       -0.2476
      6 C         -12.3792  -17.7097   21.7072 C.2     1  UNL1        0.0641
      7 C         -13.6096  -17.7340   22.5647 C.3     1  UNL1        0.0718
      8 C         -13.5140  -18.1524   24.0020 C.2     1  UNL1       -0.0193
      9 C         -12.1878  -18.5465   24.5817 C.2     1  UNL1        0.0026
     10 C         -10.9574  -18.5222   23.7243 C.2     1  UNL1        0.0356
     11 BR         -9.6313  -18.9163   24.3040 Br      1  UNL1       -0.0490
     12 C         -11.0530  -18.1038   22.2870 C.2     1  UNL1        0.0278
     13 O          -8.0590  -19.6867   21.2096 O.3     1  UNL1       -0.4454
     14 C          -6.9011  -20.1581   22.0385 C.3     1  UNL1        0.2087
     15 C          -5.4974  -19.8432   21.6137 C.3     1  UNL1        0.0445
     16 C          -4.9677  -20.3806   20.3173 C.3     1  UNL1        0.0210
     17 C          -3.5640  -20.0657   19.8926 C.3     1  UNL1        0.0722
     18 N          -2.6899  -19.2134   20.7642 N.3     1  UNL1       -0.2727
     19 C          -3.2196  -18.6760   22.0606 C.3     1  UNL1        0.0722
     20 C          -4.6234  -18.9910   22.4853 C.3     1  UNL1        0.0210
     21 C          -3.4524  -19.3590   21.0390 C.3     1  UNL1        0.0722
     22 C          -4.7216  -19.6437   21.4231 C.3     1  UNL1        0.0210
@<TRIPOS>BOND
     1     1     2    2
     2     2    13    1
     3    13    14    1
     4    14    15    1
     5    15    16    1
     6    16    17    1
     7    17    18    1
     8    18    19    1
     9    19    20    1
    10    18    21    1
    11    21    22    1
    12     2     3    1
    13     3     4    2
    14     4     5    1
    15     5     6    2
    16     6     7    1
    17     7     8    1
    18     8     9    2
    19     9    10    1
    20    10    11    1
    21    10    12    2
    22    20    15    1
    23    12     3    1
    24    22    15    1
    25    12     6    1
@<TRIPOS>MOLECULE
*****
 22 25 0 0 0
SMALL
GASTEIGER

@<TRIPOS>ATOM
      1 O          -7.4440  -16.2684   22.3477 O.2     1  UNL1       -0.2448
      2 C          -7.4952  -17.7482   22.5870 C.2     1  UNL1        0.3428
      3 C          -6.5935  -18.6647   21.8143 C.2     1  UNL1        0.0963
      4 C          -7.0298  -19.6921   20.8122 C.2     1  UNL1        0.1049
      5 N          -5.8031  -20.3770   20.2866 N.2     1  UNL1       -0.2476
      6 C          -4.6088  -19.7728   20.9638 C.2     1  UNL1        0.0641
      7 C          -3.1396  -20.0496   20.8427 C.3     1  UNL1        0.0718
      8 C          -2.1588  -19.2682   21.6657 C.2     1  UNL1       -0.0193
      9 C          -2.6473  -18.2099   22.6098 C.2     1  UNL1        0.0026
     10 C          -4.1165  -17.9331   22.7310 C.2     1  UNL1        0.0356
     11 BR         -4.6050  -16.8748   23.6751 Br      1  UNL1       -0.0490
     12 C          -5.0973  -18.7146   21.9079 C.2     1  UNL1        0.0278
     13 O          -8.4482  -18.3117   23.5992 O.3     1  UNL1       -0.4454
     14 C          -9.7506  -18.9073   23.1530 C.3     1  UNL1        0.2087
     15 C         -10.6692  -18.1216   22.2649 C.3     1  UNL1        0.0445
     16 C         -10.5913  -18.2821   20.7755 C.3     1  UNL1        0.0210
     17 C         -11.5101  -17.4964   19.8875 C.3     1  UNL1        0.0722
     18 N         -12.5067  -16.5502   20.4887 N.3     1  UNL1       -0.2727
     19 C         -12.5846  -16.3897   21.9781 C.3     1  UNL1        0.0722
     20 C         -11.6658  -17.1755   22.8662 C.3     1  UNL1        0.0210
     21 C         -12.0242  -16.9592   21.0159 C.3     1  UNL1        0.0722
     22 C         -11.1935  -17.6696   21.8190 C.3     1  UNL1        0.0210
@<TRIPOS>BOND
     1     1     2    2
     2     2    13    1
     3    13    14    1
     4    14    15    1
     5    15    16    1
     6    16    17    1
     7    17    18    1
     8    18    19    1
     9    19    20    1
    10    18    21    1
    11    21    22    1
    12     2     3    1
    13     3     4    2
    14     4     5    1
    15     5     6    2
    16     6     7    1
    17     7     8    1
    18     8     9    2
    19     9    10    1
    20    10    11    1
    21    10    12    2
    22    20    15    1
    23    12     3    1
    24    22    15    1
    25    12     6    1
@<TRIPOS>MOLECULE
*****
 22 25 0 0 0
SMALL
GASTEIGER

@<TRIPOS>ATOM
      1 O          -7.7752  -15.1298   21.6924 O.2     1  UNL1       -0.2448
      2 C          -7.1399  -15.7169   22.9178 C.2     1  UNL1        0.3428
      3 C          -7.9905  -16.3864   23.9561 C.2     1  UNL1        0.0963
      4 C          -8.2343  -15.8898   25.3503 C.2     1  UNL1        0.1049
      5 N          -9.1412  -16.8666   26.0384 N.2     1  UNL1       -0.2476
      6 C          -9.4579  -17.9669   25.0694 C.2     1  UNL1        0.0641
      7 C         -10.3020  -19.2007   25.1926 C.3     1  UNL1        0.0718
      8 C         -10.4350  -20.1377   24.0289 C.2     1  UNL1       -0.0193
      9 C          -9.7239  -19.8410   22.7420 C.2     1  UNL1        0.0026
     10 C          -8.8798  -18.6072   22.6187 C.2     1  UNL1        0.0356
     11 BR         -8.1686  -18.3104   21.3318 Br      1  UNL1       -0.0490
     12 C          -8.7468  -17.6702   23.7824 C.2     1  UNL1        0.0278
     13 O          -5.6538  -15.6346   23.1048 O.3     1  UNL1       -0.4454
     14 C          -4.9260  -16.7334   23.8210 C.3     1  UNL1        0.2087
     15 C          -4.1668  -17.7639   23.0390 C.3     1  UNL1        0.0445
     16 C          -4.8900  -18.9328   22.4384 C.3     1  UNL1        0.0210
     17 C          -4.1306  -19.9632   21.6565 C.3     1  UNL1        0.0722
     18 N          -2.6480  -19.8249   21.4750 N.3     1  UNL1       -0.2727
     19 C          -1.9248  -18.6561   22.0756 C.3     1  UNL1        0.0722
     20 C          -2.6842  -17.6255   22.8577 C.3     1  UNL1        0.0210
     21 C          -3.0213  -19.2349   21.9116 C.3     1  UNL1        0.0722
     22 C          -3.7078  -18.3031   22.6187 C.3     1  UNL1        0.0210
@<TRIPOS>BOND
     1     1     2    2
     2     2    13    1
     3    13    14    1
     4    14    15    1
     5    15    16    1
     6    16    17    1
     7    17    18    1
     8    18    19    1
     9    19    20    1
    10    18    21    1
    11    21    22    1
    12     2     3    1
    13     3     4    2
    14     4     5    1
    15     5     6    2
    16     6     7    1
    17     7     8    1
    18     8     9    2
    19     9    10    1
    20    10    11    1
    21    10    12    2
    22    20    15    1
    23    12     3    1
    24    22    15    1
    25    12     6    1
