@<TRIPOS>MOLECULE
*****
 24 27 0 0 0
SMALL
GASTEIGER

@<TRIPOS>ATOM
      1 C         -14.1153   -7.6751   17.1371 C.2     1  UNL1       -0.0420
      2 C         -15.0665   -6.5785   17.5146 C.2     1  UNL1       -0.0240
      3 C         -16.1183   -7.1646   18.4092 C.ar    1  UNL1       -0.0078
      4 C         -17.3113   -6.5584   19.0867 C.ar    1  UNL1       -0.0006
      5 C         -18.2032   -7.4111   19.9396 C.ar    1  UNL1       -0.0000
      6 C         -17.9020   -8.8701   20.1149 C.ar    1  UNL1       -0.0003
      7 C         -16.7090   -9.4763   19.4374 C.ar    1  UNL1       -0.0040
      8 C         -15.8171   -8.6236   18.5845 C.ar    1  UNL1       -0.0184
      9 C         -14.5792   -8.9391   17.7983 C.3     1  UNL1        0.0480
     10 C         -12.9116   -7.5328   16.2535 C.3     1  UNL1        0.0394
     11 C         -11.5775   -8.0385   16.7164 C.3     1  UNL1        0.0768
     12 F          -9.5942   -4.6847   19.5208 F       1  UNL1       -0.2013
     13 C          -9.6482   -6.1268   19.1116 C.3     1  UNL1        0.2928
     14 F          -8.5720   -6.4490   20.1056 F       1  UNL1       -0.2013
     15 C          -9.7021   -7.5689   18.7025 C.3     1  UNL1        0.1410
     16 N         -10.7783   -7.2466   17.7085 N.3     1  UNL1       -0.2632
     17 C         -10.7243   -5.8045   18.1177 C.3     1  UNL1        0.1410
     18 C         -14.9810   -5.1469   17.0749 C.3     1  UNL1        0.0730
     19 C         -14.0352   -4.2066   17.7615 C.ar    1  UNL1        0.0825
     20 C         -13.9277   -4.2107   19.2576 C.ar    1  UNL1        0.1139
     21 N         -12.9820   -3.2704   19.9442 N.ar    1  UNL1       -0.2394
     22 C         -12.1436   -2.3261   19.1346 C.ar    1  UNL1        0.1195
     23 C         -12.2511   -2.3221   17.6385 C.ar    1  UNL1        0.1191
     24 N         -13.1968   -3.2623   16.9518 N.ar    1  UNL1       -0.2446
@<TRIPOS>BOND
     1    12    13    1
     2    13    14    1
     3    13    15    1
     4    15    16    1
     5    16    11    1
     6    11    10    1
     7    10     1    1
     8     1     2    2
     9     2    18    1
    10    18    19    1
    11    19    20   ar
    12    20    21   ar
    13    21    22   ar
    14    22    23   ar
    15    23    24   ar
    16     2     3    1
    17     3     4   ar
    18     4     5   ar
    19     5     6   ar
    20     6     7   ar
    21     7     8   ar
    22     8     9    1
    23    16    17    1
    24    17    13    1
    25     9     1    1
    26    24    19   ar
    27     8     3   ar
@<TRIPOS>MOLECULE
*****
 24 27 0 0 0
SMALL
GASTEIGER

@<TRIPOS>ATOM
      1 C         -12.5745   -5.9236   19.1198 C.2     1  UNL1       -0.0420
      2 C         -13.9555   -5.5611   19.5797 C.2     1  UNL1       -0.0240
      3 C         -14.8645   -6.7135   19.2707 C.ar    1  UNL1       -0.0078
      4 C         -16.3323   -6.9230   19.4980 C.ar    1  UNL1       -0.0006
      5 C         -16.9810   -8.2074   19.0743 C.ar    1  UNL1       -0.0000
      6 C         -16.1618   -9.2823   18.4234 C.ar    1  UNL1       -0.0003
      7 C         -14.6941   -9.0728   18.1962 C.ar    1  UNL1       -0.0040
      8 C         -14.0454   -7.7884   18.6199 C.ar    1  UNL1       -0.0184
      9 C         -12.6301   -7.3002   18.5266 C.3     1  UNL1        0.0480
     10 C         -11.3526   -5.0611   19.2333 C.3     1  UNL1        0.0394
     11 C         -10.9474   -4.1804   18.0887 C.3     1  UNL1        0.0768
     12 F         -13.0739   -0.1068   16.6997 F       1  UNL1       -0.2013
     13 C         -12.3484   -0.8556   17.7780 C.3     1  UNL1        0.2928
     14 F         -12.4437    0.3433   18.6745 F       1  UNL1       -0.2013
     15 C         -11.6230   -1.6043   18.8565 C.3     1  UNL1        0.1410
     16 N         -11.5277   -2.8032   17.9600 N.3     1  UNL1       -0.2632
     17 C         -12.2532   -2.0544   16.8816 C.3     1  UNL1        0.1410
     18 C         -14.3569   -4.2723   20.2338 C.3     1  UNL1        0.0730
     19 C         -14.9540   -3.1683   19.4122 C.ar    1  UNL1        0.0825
     20 C         -15.1304   -1.8024   20.0064 C.ar    1  UNL1        0.1139
     21 N         -15.7275   -0.6985   19.1849 N.ar    1  UNL1       -0.2394
     22 C         -16.1481   -0.9606   17.7691 C.ar    1  UNL1        0.1195
     23 C         -15.9717   -2.3265   17.1749 C.ar    1  UNL1        0.1191
     24 N         -15.3746   -3.4304   17.9964 N.ar    1  UNL1       -0.2446
@<TRIPOS>BOND
     1    12    13    1
     2    13    14    1
     3    13    15    1
     4    15    16    1
     5    16    11    1
     6    11    10    1
     7    10     1    1
     8     1     2    2
     9     2    18    1
    10    18    19    1
    11    19    20   ar
    12    20    21   ar
    13    21    22   ar
    14    22    23   ar
    15    23    24   ar
    16     2     3    1
    17     3     4   ar
    18     4     5   ar
    19     5     6   ar
    20     6     7   ar
    21     7     8   ar
    22     8     9    1
    23    16    17    1
    24    17    13    1
    25     9     1    1
    26    24    19   ar
    27     8     3   ar
@<TRIPOS>MOLECULE
*****
 24 27 0 0 0
SMALL
GASTEIGER

@<TRIPOS>ATOM
      1 C         -16.4031   -4.8383   19.3896 C.2     1  UNL1       -0.0420
      2 C         -15.5266   -6.0492   19.5143 C.2     1  UNL1       -0.0240
      3 C         -16.4115   -7.2598   19.5547 C.ar    1  UNL1       -0.0078
      4 C         -16.1051   -8.7236   19.6694 C.ar    1  UNL1       -0.0006
      5 C         -17.2220   -9.7247   19.6845 C.ar    1  UNL1       -0.0000
      6 C         -18.6453   -9.2619   19.5848 C.ar    1  UNL1       -0.0003
      7 C         -18.9517   -7.7981   19.4700 C.ar    1  UNL1       -0.0040
      8 C         -17.8348   -6.7970   19.4550 C.ar    1  UNL1       -0.0184
      9 C         -17.8296   -5.3005   19.3529 C.3     1  UNL1        0.0480
     10 C         -15.9351   -3.4151   19.3146 C.3     1  UNL1        0.0394
     11 C         -15.2209   -2.9239   18.0905 C.3     1  UNL1        0.0768
     12 F         -10.4911   -2.8831   17.2700 F       1  UNL1       -0.2013
     13 C         -11.6295   -2.4635   18.1519 C.3     1  UNL1        0.2928
     14 F         -10.6641   -1.7741   19.0700 F       1  UNL1       -0.2013
     15 C         -12.7678   -2.0439   19.0340 C.3     1  UNL1        0.1410
     16 N         -13.7333   -2.7332   18.1159 N.3     1  UNL1       -0.2632
     17 C         -12.5949   -3.1528   17.2340 C.3     1  UNL1        0.1410
     18 C         -14.0283   -6.0496   19.5859 C.3     1  UNL1        0.0730
     19 C         -13.2240   -6.6396   18.4656 C.ar    1  UNL1        0.0825
     20 C         -11.8027   -7.0570   18.7016 C.ar    1  UNL1        0.1139
     21 N         -10.9984   -7.6470   17.5815 N.ar    1  UNL1       -0.2394
     22 C         -11.6154   -7.8197   16.2252 C.ar    1  UNL1        0.1195
     23 C         -13.0367   -7.4024   15.9892 C.ar    1  UNL1        0.1191
     24 N         -13.8410   -6.8124   17.1094 N.ar    1  UNL1       -0.2446
@<TRIPOS>BOND
     1    12    13    1
     2    13    14    1
     3    13    15    1
     4    15    16    1
     5    16    11    1
     6    11    10    1
     7    10     1    1
     8     1     2    2
     9     2    18    1
    10    18    19    1
    11    19    20   ar
    12    20    21   ar
    13    21    22   ar
    14    22    23   ar
    15    23    24   ar
    16     2     3    1
    17     3     4   ar
    18     4     5   ar
    19     5     6   ar
    20     6     7   ar
    21     7     8   ar
    22     8     9    1
    23    16    17    1
    24    17    13    1
    25     9     1    1
    26    24    19   ar
    27     8     3   ar
@<TRIPOS>MOLECULE
*****
 24 27 0 0 0
SMALL
GASTEIGER

@<TRIPOS>ATOM
      1 C         -12.3971   -2.1494   18.0444 C.2     1  UNL1       -0.0420
      2 C         -13.4563   -2.5823   19.0143 C.2     1  UNL1       -0.0240
      3 C         -14.3747   -1.4195   19.2473 C.ar    1  UNL1       -0.0078
      4 C         -15.5951   -1.2605   20.1048 C.ar    1  UNL1       -0.0006
      5 C         -16.3239    0.0502   20.1364 C.ar    1  UNL1       -0.0000
      6 C         -15.8323    1.2018   19.3106 C.ar    1  UNL1       -0.0003
      7 C         -14.6119    1.0428   18.4531 C.ar    1  UNL1       -0.0040
      8 C         -13.8831   -0.2678   18.4215 C.ar    1  UNL1       -0.0184
      9 C         -12.6609   -0.7190   17.6780 C.3     1  UNL1        0.0480
     10 C         -11.2717   -2.9980   17.5311 C.3     1  UNL1        0.0394
     11 C         -10.3455   -3.6784   18.4949 C.3     1  UNL1        0.0768
     12 F         -10.2365   -8.3360   17.3370 F       1  UNL1       -0.2013
     13 C          -9.8546   -7.2616   18.3116 C.3     1  UNL1        0.2928
     14 F          -9.1852   -8.2862   19.1788 F       1  UNL1       -0.2013
     15 C          -9.4727   -6.1872   19.2862 C.3     1  UNL1        0.1410
     16 N         -10.1421   -5.1626   18.4190 N.3     1  UNL1       -0.2632
     17 C         -10.5240   -6.2370   17.4444 C.3     1  UNL1        0.1410
     18 C         -13.5761   -3.9398   19.6411 C.3     1  UNL1        0.0730
     19 C         -13.8047   -5.1463   18.7795 C.ar    1  UNL1        0.0825
     20 C         -13.4772   -6.5138   19.3017 C.ar    1  UNL1        0.1139
     21 N         -13.7058   -7.7202   18.4402 N.ar    1  UNL1       -0.2394
     22 C         -14.2618   -7.5591   17.0564 C.ar    1  UNL1        0.1195
     23 C         -14.5893   -6.1916   16.5342 C.ar    1  UNL1        0.1191
     24 N         -14.3608   -4.9852   17.3957 N.ar    1  UNL1       -0.2446
@<TRIPOS>BOND
     1    12    13    1
     2    13    14    1
     3    13    15    1
     4    15    16    1
     5    16    11    1
     6    11    10    1
     7    10     1    1
     8     1     2    2
     9     2    18    1
    10    18    19    1
    11    19    20   ar
    12    20    21   ar
    13    21    22   ar
    14    22    23   ar
    15    23    24   ar
    16     2     3    1
    17     3     4   ar
    18     4     5   ar
    19     5     6   ar
    20     6     7   ar
    21     7     8   ar
    22     8     9    1
    23    16    17    1
    24    17    13    1
    25     9     1    1
    26    24    19   ar
    27     8     3   ar
@<TRIPOS>MOLECULE
*****
 24 27 0 0 0
SMALL
GASTEIGER

@<TRIPOS>ATOM
      1 C           3.4416   -2.4783   20.1010 C.2     1  UNL1       -0.0420
      2 C           3.9552   -2.5326   21.5093 C.2     1  UNL1       -0.0240
      3 C           3.3176   -1.4139   22.2787 C.ar    1  UNL1       -0.0078
      4 C           3.4462   -0.9779   23.7082 C.ar    1  UNL1       -0.0006
      5 C           2.6671    0.2037   24.2049 C.ar    1  UNL1       -0.0000
      6 C           1.7593    0.9493   23.2721 C.ar    1  UNL1       -0.0003
      7 C           1.6307    0.5133   21.8427 C.ar    1  UNL1       -0.0040
      8 C           2.4098   -0.6683   21.3460 C.ar    1  UNL1       -0.0184
      9 C           2.4865   -1.3261   20.0001 C.3     1  UNL1        0.0480
     10 C           3.8172   -3.4123   18.9890 C.3     1  UNL1        0.0394
     11 C           5.1497   -3.2770   18.3137 C.3     1  UNL1        0.0768
     12 F           7.6863    0.7063   17.4504 F       1  UNL1       -0.2013
     13 C           6.3693   -0.0051   17.3538 C.3     1  UNL1        0.2928
     14 F           5.7666    1.2002   16.6948 F       1  UNL1       -0.2013
     15 C           5.0522   -0.7164   17.2571 C.3     1  UNL1        0.1410
     16 N           5.6549   -1.9217   17.9161 N.3     1  UNL1       -0.2632
     17 C           6.9719   -1.2103   18.0127 C.3     1  UNL1        0.1410
     18 C           4.9346   -3.5303   22.0528 C.3     1  UNL1        0.0730
     19 C           6.3868   -3.4300   21.6901 C.ar    1  UNL1        0.0825
     20 C           7.0670   -2.0931   21.6814 C.ar    1  UNL1        0.1139
     21 N           8.5190   -1.9927   21.3188 N.ar    1  UNL1       -0.2394
     22 C           9.2908   -3.2293   20.9649 C.ar    1  UNL1        0.1195
     23 C           8.6106   -4.5662   20.9737 C.ar    1  UNL1        0.1191
     24 N           7.1586   -4.6665   21.3363 N.ar    1  UNL1       -0.2446
@<TRIPOS>BOND
     1    12    13    1
     2    13    14    1
     3    13    15    1
     4    15    16    1
     5    16    11    1
     6    11    10    1
     7    10     1    1
     8     1     2    2
     9     2    18    1
    10    18    19    1
    11    19    20   ar
    12    20    21   ar
    13    21    22   ar
    14    22    23   ar
    15    23    24   ar
    16     2     3    1
    17     3     4   ar
    18     4     5   ar
    19     5     6   ar
    20     6     7   ar
    21     7     8   ar
    22     8     9    1
    23    16    17    1
    24    17    13    1
    25     9     1    1
    26    24    19   ar
    27     8     3   ar
@<TRIPOS>MOLECULE
*****
 24 27 0 0 0
SMALL
GASTEIGER

@<TRIPOS>ATOM
      1 C           3.9264   -2.0263   18.8280 C.2     1  UNL1       -0.0420
      2 C           3.7833   -0.7411   18.0680 C.2     1  UNL1       -0.0240
      3 C           2.6227    0.0129   18.6466 C.ar    1  UNL1       -0.0078
      4 C           2.0146    1.3396   18.3002 C.ar    1  UNL1       -0.0006
      5 C           0.8323    1.8469   19.0714 C.ar    1  UNL1       -0.0000
      6 C           0.2581    1.0276   20.1889 C.ar    1  UNL1       -0.0003
      7 C           0.8662   -0.2991   20.5354 C.ar    1  UNL1       -0.0040
      8 C           2.0485   -0.8065   19.7642 C.ar    1  UNL1       -0.0184
      9 C           2.8542   -2.0668   19.8763 C.3     1  UNL1        0.0480
     10 C           4.9601   -3.0852   18.5827 C.3     1  UNL1        0.0394
     11 C           5.0737   -4.2532   19.5171 C.3     1  UNL1        0.0768
     12 F           5.5854   -3.5887   24.2439 F       1  UNL1       -0.2013
     13 C           6.2453   -3.7528   22.9069 C.3     1  UNL1        0.2928
     14 F           7.5916   -3.6238   23.5557 F       1  UNL1       -0.2013
     15 C           6.9053   -3.9169   21.5700 C.3     1  UNL1        0.1410
     16 N           5.5590   -4.0459   20.9212 N.3     1  UNL1       -0.2632
     17 C           4.8991   -3.8818   22.2582 C.3     1  UNL1        0.1410
     18 C           4.6488   -0.2890   16.9293 C.3     1  UNL1        0.0730
     19 C           5.9825    0.3399   17.2048 C.ar    1  UNL1        0.0825
     20 C           6.6867    1.1078   16.1257 C.ar    1  UNL1        0.1139
     21 N           8.0204    1.7367   16.4010 N.ar    1  UNL1       -0.2394
     22 C           8.6498    1.5977   17.7555 C.ar    1  UNL1        0.1195
     23 C           7.9456    0.8297   18.8345 C.ar    1  UNL1        0.1191
     24 N           6.6119    0.2008   18.5592 N.ar    1  UNL1       -0.2446
@<TRIPOS>BOND
     1    12    13    1
     2    13    14    1
     3    13    15    1
     4    15    16    1
     5    16    11    1
     6    11    10    1
     7    10     1    1
     8     1     2    2
     9     2    18    1
    10    18    19    1
    11    19    20   ar
    12    20    21   ar
    13    21    22   ar
    14    22    23   ar
    15    23    24   ar
    16     2     3    1
    17     3     4   ar
    18     4     5   ar
    19     5     6   ar
    20     6     7   ar
    21     7     8   ar
    22     8     9    1
    23    16    17    1
    24    17    13    1
    25     9     1    1
    26    24    19   ar
    27     8     3   ar
@<TRIPOS>MOLECULE
*****
 24 27 0 0 0
SMALL
GASTEIGER

@<TRIPOS>ATOM
      1 C         -14.4725   -5.2580   19.7470 C.2     1  UNL1       -0.0420
      2 C         -13.8789   -6.5461   19.2585 C.2     1  UNL1       -0.0240
      3 C         -15.0046   -7.4907   18.9577 C.ar    1  UNL1       -0.0078
      4 C         -15.0222   -8.9010   18.4474 C.ar    1  UNL1       -0.0006
      5 C         -16.3292   -9.6072   18.2397 C.ar    1  UNL1       -0.0000
      6 C         -17.6186   -8.9029   18.5423 C.ar    1  UNL1       -0.0003
      7 C         -17.6010   -7.4925   19.0526 C.ar    1  UNL1       -0.0040
      8 C         -16.2940   -6.7864   19.2603 C.ar    1  UNL1       -0.0184
      9 C         -15.9651   -5.4066   19.7481 C.3     1  UNL1        0.0480
     10 C         -13.7077   -4.0361   20.1616 C.3     1  UNL1        0.0394
     11 C         -13.4352   -2.9481   19.1656 C.3     1  UNL1        0.0768
     12 F         -15.2125    1.4855   18.6858 F       1  UNL1       -0.2013
     13 C         -15.3881    0.1007   19.2348 C.3     1  UNL1        0.2928
     14 F         -16.7078    0.5019   19.8243 F       1  UNL1       -0.2013
     15 C         -15.5639   -1.2841   19.7838 C.3     1  UNL1        0.1410
     16 N         -14.2441   -1.6852   19.1943 N.3     1  UNL1       -0.2632
     17 C         -14.0685   -0.3004   18.6453 C.3     1  UNL1        0.1410
     18 C         -12.4163   -6.8383   19.0988 C.3     1  UNL1        0.0730
     19 C         -11.5566   -5.9316   18.2688 C.ar    1  UNL1        0.0825
     20 C         -11.8598   -5.7361   16.8128 C.ar    1  UNL1        0.1139
     21 N         -11.0002   -4.8295   15.9828 N.ar    1  UNL1       -0.2394
     22 C          -9.8372   -4.1184   16.6087 C.ar    1  UNL1        0.1195
     23 C          -9.5340   -4.3138   18.0647 C.ar    1  UNL1        0.1191
     24 N         -10.3936   -5.2205   18.8947 N.ar    1  UNL1       -0.2446
@<TRIPOS>BOND
     1    12    13    1
     2    13    14    1
     3    13    15    1
     4    15    16    1
     5    16    11    1
     6    11    10    1
     7    10     1    1
     8     1     2    2
     9     2    18    1
    10    18    19    1
    11    19    20   ar
    12    20    21   ar
    13    21    22   ar
    14    22    23   ar
    15    23    24   ar
    16     2     3    1
    17     3     4   ar
    18     4     5   ar
    19     5     6   ar
    20     6     7   ar
    21     7     8   ar
    22     8     9    1
    23    16    17    1
    24    17    13    1
    25     9     1    1
    26    24    19   ar
    27     8     3   ar
@<TRIPOS>MOLECULE
*****
 24 27 0 0 0
SMALL
GASTEIGER

@<TRIPOS>ATOM
      1 C         -14.1515   -5.6661   17.6511 C.2     1  UNL1       -0.0420
      2 C         -14.8518   -5.8198   18.9687 C.2     1  UNL1       -0.0240
      3 C         -15.5855   -7.1280   18.9539 C.ar    1  UNL1       -0.0078
      4 C         -16.4464   -7.8076   19.9770 C.ar    1  UNL1       -0.0006
      5 C         -17.0605   -9.1420   19.6735 C.ar    1  UNL1       -0.0000
      6 C         -16.8136   -9.7969   18.3467 C.ar    1  UNL1       -0.0003
      7 C         -15.9527   -9.1173   17.3236 C.ar    1  UNL1       -0.0040
      8 C         -15.3386   -7.7829   17.6271 C.ar    1  UNL1       -0.0184
      9 C         -14.4524   -6.8793   16.8220 C.3     1  UNL1        0.0480
     10 C         -13.2999   -4.5033   17.2356 C.3     1  UNL1        0.0394
     11 C         -11.9068   -4.3638   17.7739 C.3     1  UNL1        0.0768
     12 F          -8.8722   -7.7023   19.4146 F       1  UNL1       -0.2013
     13 C          -9.9015   -7.3146   18.3946 C.3     1  UNL1        0.2928
     14 F          -9.7561   -8.6556   17.7383 F       1  UNL1       -0.2013
     15 C         -10.9308   -6.9270   17.3746 C.3     1  UNL1        0.1410
     16 N         -11.0761   -5.5861   18.0310 N.3     1  UNL1       -0.2632
     17 C         -10.0469   -5.9737   19.0509 C.3     1  UNL1        0.1410
     18 C         -14.8234   -4.8377   20.1021 C.3     1  UNL1        0.0730
     19 C         -15.5950   -3.5551   20.0027 C.ar    1  UNL1        0.0825
     20 C         -17.0946   -3.5818   19.9812 C.ar    1  UNL1        0.1139
     21 N         -17.8662   -2.2993   19.8818 N.ar    1  UNL1       -0.2394
     22 C         -17.1382   -0.9902   19.8038 C.ar    1  UNL1        0.1195
     23 C         -15.6386   -0.9635   19.8253 C.ar    1  UNL1        0.1191
     24 N         -14.8670   -2.2460   19.9247 N.ar    1  UNL1       -0.2446
@<TRIPOS>BOND
     1    12    13    1
     2    13    14    1
     3    13    15    1
     4    15    16    1
     5    16    11    1
     6    11    10    1
     7    10     1    1
     8     1     2    2
     9     2    18    1
    10    18    19    1
    11    19    20   ar
    12    20    21   ar
    13    21    22   ar
    14    22    23   ar
    15    23    24   ar
    16     2     3    1
    17     3     4   ar
    18     4     5   ar
    19     5     6   ar
    20     6     7   ar
    21     7     8   ar
    22     8     9    1
    23    16    17    1
    24    17    13    1
    25     9     1    1
    26    24    19   ar
    27     8     3   ar
@<TRIPOS>MOLECULE
*****
 24 27 0 0 0
SMALL
GASTEIGER

@<TRIPOS>ATOM
      1 C           4.9666   -1.7223   18.4631 C.2     1  UNL1       -0.0420
      2 C           3.9450   -2.1491   19.4751 C.2     1  UNL1       -0.0240
      3 C           2.8454   -1.1288   19.4825 C.ar    1  UNL1       -0.0078
      4 C           1.5770   -1.0260   20.2765 C.ar    1  UNL1       -0.0006
      5 C           0.6506    0.1342   20.0630 C.ar    1  UNL1       -0.0000
      6 C           0.9926    1.1916   19.0555 C.ar    1  UNL1       -0.0003
      7 C           2.2611    1.0888   18.2616 C.ar    1  UNL1       -0.0040
      8 C           3.1875   -0.0714   18.4751 C.ar    1  UNL1       -0.0184
      9 C           4.4984   -0.4383   17.8450 C.3     1  UNL1        0.0480
     10 C           6.2338   -2.4516   18.1279 C.3     1  UNL1        0.0394
     11 C           7.5532   -1.9203   18.6042 C.3     1  UNL1        0.0768
     12 F           8.9268   -1.5516   23.1893 F       1  UNL1       -0.2013
     13 C           8.0131   -1.0811   22.0968 C.3     1  UNL1        0.2928
     14 F           7.3688   -0.1188   23.0502 F       1  UNL1       -0.2013
     15 C           7.0994   -0.6104   21.0043 C.3     1  UNL1        0.1410
     16 N           7.7437   -1.5727   20.0509 N.3     1  UNL1       -0.2632
     17 C           8.6574   -2.0432   21.1434 C.3     1  UNL1        0.1410
     18 C           4.0113   -3.3801   20.3297 C.3     1  UNL1        0.0730
     19 C           4.6871   -3.3286   21.6679 C.ar    1  UNL1        0.0825
     20 C           4.2090   -2.3645   22.7130 C.ar    1  UNL1        0.1139
     21 N           4.8847   -2.3130   24.0511 N.ar    1  UNL1       -0.2394
     22 C           6.0385   -3.2255   24.3443 C.ar    1  UNL1        0.1195
     23 C           6.5166   -4.1895   23.2992 C.ar    1  UNL1        0.1191
     24 N           5.8409   -4.2411   21.9611 N.ar    1  UNL1       -0.2446
@<TRIPOS>BOND
     1    12    13    1
     2    13    14    1
     3    13    15    1
     4    15    16    1
     5    16    11    1
     6    11    10    1
     7    10     1    1
     8     1     2    2
     9     2    18    1
    10    18    19    1
    11    19    20   ar
    12    20    21   ar
    13    21    22   ar
    14    22    23   ar
    15    23    24   ar
    16     2     3    1
    17     3     4   ar
    18     4     5   ar
    19     5     6   ar
    20     6     7   ar
    21     7     8   ar
    22     8     9    1
    23    16    17    1
    24    17    13    1
    25     9     1    1
    26    24    19   ar
    27     8     3   ar
