@<TRIPOS>MOLECULE
*****
 35 39 0 0 0
SMALL
GASTEIGER

@<TRIPOS>ATOM
      1 C           3.6757   -0.3419   31.3691 C.2     1  UNL1        0.0033
      2 C           4.5781    0.2556   30.3305 C.2     1  UNL1        0.0641
      3 C           5.6022    1.2780   30.7252 C.3     1  UNL1        0.0383
      4 C           6.5045    1.8754   29.6866 C.3     1  UNL1        0.0557
      5 C           6.3828    1.4504   28.2532 C.3     1  UNL1        0.2028
      6 N           5.3587    0.4280   27.8585 N.pl3   1  UNL1       -0.1873
      7 C           4.4564   -0.1694   28.8971 C.2     1  UNL1        0.3653
      8 N           3.4322   -1.1919   28.5024 N.2     1  UNL1        0.1549
      9 O           3.3105   -1.6168   27.0690 O.2     1  UNL1       -0.2751
     10 C           4.2129   -1.0194   26.0304 C.3     1  UNL1        0.2886
     11 C           5.2370    0.0030   26.4251 C.3     1  UNL1        0.2096
     12 C           6.1393    0.6005   25.3865 C.3     1  UNL1        0.0552
     13 C           4.0912   -1.4444   24.5970 C.ar    1  UNL1        0.0310
     14 C           3.1637   -0.7115   23.6736 C.ar    1  UNL1        0.0316
     15 C           3.0420   -1.1365   22.2402 C.ar    1  UNL1        0.1694
     16 F           2.1145   -0.4037   21.3169 F       1  UNL1       -0.2017
     17 C           3.8477   -2.2943   21.7302 C.ar    1  UNL1        0.1946
     18 F           3.7260   -2.7193   20.2969 F       1  UNL1       -0.1994
     19 C           4.7752   -3.0273   22.6536 C.ar    1  UNL1        0.1694
     20 F           5.5810   -4.1851   22.1436 F       1  UNL1       -0.2017
     21 C           4.8970   -2.6023   24.0870 C.ar    1  UNL1        0.0316
     22 C           3.1668    1.7085   34.7287 C.ar    1  UNL1        0.1547
     23 C           3.0451    1.2836   33.2953 C.ar    1  UNL1        0.0384
     24 C           3.7974    0.0831   32.8025 C.ar    1  UNL1        0.0030
     25 C           4.6715   -0.6924   33.7431 C.ar    1  UNL1        0.0017
     26 C           4.7932   -0.2674   35.1765 C.ar    1  UNL1        0.0206
     27 C           4.0408    0.9331   35.6693 C.ar    1  UNL1        0.0994
     28 N           4.1626    1.3581   37.1026 N.ar    1  UNL1       -0.2839
     29 C           3.1774    1.0664   38.1955 C.ar    1  UNL1        0.1826
     30 N           3.6968    1.6774   39.4631 N.ar    1  UNL1       -0.2280
     31 C           5.0030    2.3468   39.1537 C.ar    1  UNL1        0.0786
     32 C           5.8693    3.0841   40.1314 C.3     1  UNL1        0.0538
     33 C           5.2909    2.1494   37.6949 C.ar    1  UNL1        0.0963
     34 C           1.7452    3.8283   34.2433 C.3     1  UNL1        0.2525
     35 O           2.4144    2.9091   35.2215 O.3     1  UNL1       -0.4700
@<TRIPOS>BOND
     1    34    35    1
     2    35    22    1
     3    22    23   ar
     4    23    24   ar
     5    24     1    1
     6     1     2    2
     7     2     3    1
     8     3     4    1
     9     4     5    1
    10     5     6    1
    11     6     7    1
    12     7     8    2
    13     8     9    1
    14     9    10    1
    15    10    13    1
    16    13    14   ar
    17    14    15   ar
    18    15    16    1
    19    15    17   ar
    20    17    18    1
    21    17    19   ar
    22    19    20    1
    23    19    21   ar
    24    10    11    1
    25    11    12    1
    26    24    25   ar
    27    25    26   ar
    28    26    27   ar
    29    27    28    1
    30    28    29   ar
    31    29    30   ar
    32    30    31   ar
    33    31    32    1
    34    31    33   ar
    35    27    22   ar
    36    33    28   ar
    37     7     2    1
    38    21    13   ar
    39    11     6    1
@<TRIPOS>MOLECULE
*****
 35 39 0 0 0
SMALL
GASTEIGER

@<TRIPOS>ATOM
      1 C           3.4892   -0.1368   31.4662 C.2     1  UNL1        0.0033
      2 C           4.3785    0.4805   30.4278 C.2     1  UNL1        0.0641
      3 C           5.3088    1.5954   30.8038 C.3     1  UNL1        0.0383
      4 C           6.1979    2.2126   29.7654 C.3     1  UNL1        0.0557
      5 C           6.1568    1.7149   28.3509 C.3     1  UNL1        0.2028
      6 N           5.2265    0.6000   27.9749 N.pl3   1  UNL1       -0.1873
      7 C           4.3373   -0.0172   29.0133 C.2     1  UNL1        0.3653
      8 N           3.4069   -1.1322   28.6374 N.2     1  UNL1        0.1549
      9 O           3.3658   -1.6299   27.2229 O.2     1  UNL1       -0.2751
     10 C           4.2550   -1.0126   26.1845 C.3     1  UNL1        0.2886
     11 C           5.1853    0.1023   26.5605 C.3     1  UNL1        0.2096
     12 C           6.0745    0.7196   25.5221 C.3     1  UNL1        0.0552
     13 C           4.2138   -1.5103   24.7701 C.ar    1  UNL1        0.0310
     14 C           3.2838   -0.8763   23.7787 C.ar    1  UNL1        0.0316
     15 C           3.2426   -1.3739   22.3642 C.ar    1  UNL1        0.1694
     16 F           2.3125   -0.7399   21.3728 F       1  UNL1       -0.2017
     17 C           4.1315   -2.5056   21.9412 C.ar    1  UNL1        0.1946
     18 F           4.0904   -3.0033   20.5268 F       1  UNL1       -0.1994
     19 C           5.0617   -3.1397   22.9326 C.ar    1  UNL1        0.1694
     20 F           5.9506   -4.2714   22.5096 F       1  UNL1       -0.2017
     21 C           5.1028   -2.6420   24.3470 C.ar    1  UNL1        0.0316
     22 C           4.4074    0.1462   35.3168 C.ar    1  UNL1        0.1547
     23 C           4.3663   -0.3514   33.9023 C.ar    1  UNL1        0.0384
     24 C           3.5304    0.3608   32.8807 C.ar    1  UNL1        0.0030
     25 C           2.7356    1.5709   33.2734 C.ar    1  UNL1        0.0017
     26 C           2.7767    2.0686   34.6878 C.ar    1  UNL1        0.0206
     27 C           3.6127    1.3562   35.7095 C.ar    1  UNL1        0.0994
     28 N           3.6538    1.8539   37.1240 N.ar    1  UNL1       -0.2839
     29 C           2.8196    1.3455   38.2622 C.ar    1  UNL1        0.1826
     30 N           3.1866    2.1247   39.4902 N.ar    1  UNL1       -0.2280
     31 C           4.2477    3.1148   39.1109 C.ar    1  UNL1        0.0786
     32 C           4.9047    4.0994   40.0323 C.3     1  UNL1        0.0538
     33 C           4.5364    2.9474   37.6485 C.ar    1  UNL1        0.0963
     34 C           6.6532   -0.1229   36.5951 C.3     1  UNL1        0.2525
     35 O           5.2434   -0.5661   36.3385 O.3     1  UNL1       -0.4700
@<TRIPOS>BOND
     1    34    35    1
     2    35    22    1
     3    22    23   ar
     4    23    24   ar
     5    24     1    1
     6     1     2    2
     7     2     3    1
     8     3     4    1
     9     4     5    1
    10     5     6    1
    11     6     7    1
    12     7     8    2
    13     8     9    1
    14     9    10    1
    15    10    13    1
    16    13    14   ar
    17    14    15   ar
    18    15    16    1
    19    15    17   ar
    20    17    18    1
    21    17    19   ar
    22    19    20    1
    23    19    21   ar
    24    10    11    1
    25    11    12    1
    26    24    25   ar
    27    25    26   ar
    28    26    27   ar
    29    27    28    1
    30    28    29   ar
    31    29    30   ar
    32    30    31   ar
    33    31    32    1
    34    31    33   ar
    35    27    22   ar
    36    33    28   ar
    37     7     2    1
    38    21    13   ar
    39    11     6    1
@<TRIPOS>MOLECULE
*****
 35 39 0 0 0
SMALL
GASTEIGER

@<TRIPOS>ATOM
      1 C           4.0364    0.3867   27.9809 C.2     1  UNL1        0.0033
      2 C           2.9003    0.6743   27.0446 C.2     1  UNL1        0.0641
      3 C           1.6098    1.2226   27.5773 C.3     1  UNL1        0.0383
      4 C           0.4737    1.5101   26.6411 C.3     1  UNL1        0.0557
      5 C           0.6282    1.2493   25.1720 C.3     1  UNL1        0.2028
      6 N           1.9187    0.7010   24.6392 N.pl3   1  UNL1       -0.1873
      7 C           3.0548    0.4135   25.5755 C.2     1  UNL1        0.3653
      8 N           4.3454   -0.1348   25.0427 N.2     1  UNL1        0.1549
      9 O           4.4998   -0.3956   23.5737 O.2     1  UNL1       -0.2751
     10 C           3.3637   -0.1080   22.6374 C.3     1  UNL1        0.2886
     11 C           2.0732    0.4403   23.1702 C.3     1  UNL1        0.2096
     12 C           0.9371    0.7278   22.2339 C.3     1  UNL1        0.0552
     13 C           3.5181   -0.3688   21.1683 C.ar    1  UNL1        0.0310
     14 C           3.3875   -1.7653   20.6367 C.ar    1  UNL1        0.0316
     15 C           3.5420   -2.0261   19.1676 C.ar    1  UNL1        0.1694
     16 F           3.4113   -3.4226   18.6360 F       1  UNL1       -0.2017
     17 C           3.8271   -0.8903   18.2302 C.ar    1  UNL1        0.1946
     18 F           3.9815   -1.1511   16.7611 F       1  UNL1       -0.1994
     19 C           3.9577    0.5063   18.7618 C.ar    1  UNL1        0.1694
     20 F           4.2428    1.6420   17.8244 F       1  UNL1       -0.2017
     21 C           3.8032    0.7670   20.2309 C.ar    1  UNL1        0.0316
     22 C           3.5745   -0.2395   31.8724 C.ar    1  UNL1        0.1547
     23 C           3.7290   -0.5003   30.4034 C.ar    1  UNL1        0.0384
     24 C           3.8820    0.6475   29.4499 C.ar    1  UNL1        0.0030
     25 C           3.8805    2.0561   29.9655 C.ar    1  UNL1        0.0017
     26 C           3.7261    2.3169   31.4346 C.ar    1  UNL1        0.0206
     27 C           3.5731    1.1690   32.3880 C.ar    1  UNL1        0.0994
     28 N           3.4186    1.4298   33.8571 N.ar    1  UNL1       -0.2839
     29 C           2.3390    2.2504   34.4982 C.ar    1  UNL1        0.1826
     30 N           2.5698    2.2435   35.9803 N.ar    1  UNL1       -0.2280
     31 C           3.7921    1.4186   36.2553 C.ar    1  UNL1        0.0786
     32 C           4.3856    1.1447   37.6053 C.3     1  UNL1        0.0538
     33 C           4.3166    0.9157   34.9430 C.ar    1  UNL1        0.0963
     34 C           4.5581   -2.3432   33.0376 C.3     1  UNL1        0.2525
     35 O           3.4215   -1.3874   32.8259 O.3     1  UNL1       -0.4700
@<TRIPOS>BOND
     1    34    35    1
     2    35    22    1
     3    22    23   ar
     4    23    24   ar
     5    24     1    1
     6     1     2    2
     7     2     3    1
     8     3     4    1
     9     4     5    1
    10     5     6    1
    11     6     7    1
    12     7     8    2
    13     8     9    1
    14     9    10    1
    15    10    13    1
    16    13    14   ar
    17    14    15   ar
    18    15    16    1
    19    15    17   ar
    20    17    18    1
    21    17    19   ar
    22    19    20    1
    23    19    21   ar
    24    10    11    1
    25    11    12    1
    26    24    25   ar
    27    25    26   ar
    28    26    27   ar
    29    27    28    1
    30    28    29   ar
    31    29    30   ar
    32    30    31   ar
    33    31    32    1
    34    31    33   ar
    35    27    22   ar
    36    33    28   ar
    37     7     2    1
    38    21    13   ar
    39    11     6    1
@<TRIPOS>MOLECULE
*****
 35 39 0 0 0
SMALL
GASTEIGER

@<TRIPOS>ATOM
      1 C           4.6835   -0.6735   28.9021 C.2     1  UNL1        0.0033
      2 C           5.5202   -1.7803   28.3320 C.2     1  UNL1        0.0641
      3 C           6.3941   -2.6007   29.2338 C.3     1  UNL1        0.0383
      4 C           7.2308   -3.7074   28.6636 C.3     1  UNL1        0.0557
      5 C           7.1935   -3.9938   27.1917 C.3     1  UNL1        0.2028
      6 N           6.3196   -3.1735   26.2899 N.pl3   1  UNL1       -0.1873
      7 C           5.4830   -2.0667   26.8600 C.2     1  UNL1        0.3653
      8 N           4.6090   -1.2463   25.9582 N.2     1  UNL1        0.1549
      9 O           4.5718   -1.5327   24.4863 O.2     1  UNL1       -0.2751
     10 C           5.4085   -2.6395   23.9162 C.3     1  UNL1        0.2886
     11 C           6.2824   -3.4599   24.8180 C.3     1  UNL1        0.2096
     12 C           7.1190   -4.5666   24.2478 C.3     1  UNL1        0.0552
     13 C           5.3713   -2.9259   22.4442 C.ar    1  UNL1        0.0310
     14 C           6.3495   -2.2567   21.5250 C.ar    1  UNL1        0.0316
     15 C           6.3123   -2.5431   20.0530 C.ar    1  UNL1        0.1694
     16 F           7.2905   -1.8738   19.1338 F       1  UNL1       -0.2017
     17 C           5.2968   -3.4987   19.5004 C.ar    1  UNL1        0.1946
     18 F           5.2595   -3.7851   18.0284 F       1  UNL1       -0.1994
     19 C           4.3185   -4.1681   20.4196 C.ar    1  UNL1        0.1694
     20 F           3.3030   -5.1237   19.8670 F       1  UNL1       -0.2017
     21 C           4.3557   -3.8817   21.8916 C.ar    1  UNL1        0.0316
     22 C           5.8530    0.7507   32.4169 C.ar    1  UNL1        0.1547
     23 C           5.8158    0.4643   30.9449 C.ar    1  UNL1        0.0384
     24 C           4.7208   -0.3871   30.3740 C.ar    1  UNL1        0.0030
     25 C           3.6629   -0.9522   31.2750 C.ar    1  UNL1        0.0017
     26 C           3.7001   -0.6658   32.7470 C.ar    1  UNL1        0.0206
     27 C           4.7952    0.1857   33.3179 C.ar    1  UNL1        0.0994
     28 N           4.8325    0.4721   34.7898 N.ar    1  UNL1       -0.2839
     29 C           5.5583   -0.3330   35.8266 C.ar    1  UNL1        0.1826
     30 N           5.3249    0.3112   37.1610 N.ar    1  UNL1       -0.2280
     31 C           4.4547    1.5144   36.9489 C.ar    1  UNL1        0.0786
     32 C           3.9733    2.4534   38.0150 C.3     1  UNL1        0.0538
     33 C           4.1504    1.6138   35.4834 C.ar    1  UNL1        0.0963
     34 C           8.2420    0.9740   33.4134 C.3     1  UNL1        0.2525
     35 O           6.9481    1.6021   32.9878 O.3     1  UNL1       -0.4700
@<TRIPOS>BOND
     1    34    35    1
     2    35    22    1
     3    22    23   ar
     4    23    24   ar
     5    24     1    1
     6     1     2    2
     7     2     3    1
     8     3     4    1
     9     4     5    1
    10     5     6    1
    11     6     7    1
    12     7     8    2
    13     8     9    1
    14     9    10    1
    15    10    13    1
    16    13    14   ar
    17    14    15   ar
    18    15    16    1
    19    15    17   ar
    20    17    18    1
    21    17    19   ar
    22    19    20    1
    23    19    21   ar
    24    10    11    1
    25    11    12    1
    26    24    25   ar
    27    25    26   ar
    28    26    27   ar
    29    27    28    1
    30    28    29   ar
    31    29    30   ar
    32    30    31   ar
    33    31    32    1
    34    31    33   ar
    35    27    22   ar
    36    33    28   ar
    37     7     2    1
    38    21    13   ar
    39    11     6    1
@<TRIPOS>MOLECULE
*****
 35 39 0 0 0
SMALL
GASTEIGER

@<TRIPOS>ATOM
      1 C          -1.0806    2.4598   26.8012 C.2     1  UNL1        0.0033
      2 C          -0.5688    2.4044   25.3922 C.2     1  UNL1        0.0641
      3 C           0.8140    1.8931   25.1162 C.3     1  UNL1        0.0383
      4 C           1.3258    1.8378   23.7073 C.3     1  UNL1        0.0557
      5 C           0.4547    2.2938   22.5745 C.3     1  UNL1        0.2028
      6 N          -0.9281    2.8051   22.8505 N.pl3   1  UNL1       -0.1873
      7 C          -1.4398    2.8605   24.2594 C.2     1  UNL1        0.3653
      8 N          -2.8227    3.3718   24.5355 N.2     1  UNL1        0.1549
      9 O          -3.6938    3.8279   23.4027 O.2     1  UNL1       -0.2751
     10 C          -3.1820    3.7725   21.9937 C.3     1  UNL1        0.2886
     11 C          -1.7992    3.2612   21.7177 C.3     1  UNL1        0.2096
     12 C          -1.2874    3.2058   20.3088 C.3     1  UNL1        0.0552
     13 C          -4.0531    4.2285   20.8609 C.ar    1  UNL1        0.0310
     14 C          -5.0877    3.3039   20.2912 C.ar    1  UNL1        0.0316
     15 C          -5.9587    3.7600   19.1584 C.ar    1  UNL1        0.1694
     16 F          -6.9934    2.8354   18.5886 F       1  UNL1       -0.2017
     17 C          -5.7952    5.1406   18.5953 C.ar    1  UNL1        0.1946
     18 F          -6.6663    5.5966   17.4625 F       1  UNL1       -0.1994
     19 C          -4.7605    6.0653   19.1650 C.ar    1  UNL1        0.1694
     20 F          -4.5970    7.4459   18.6019 F       1  UNL1       -0.2017
     21 C          -3.8895    5.6092   20.2978 C.ar    1  UNL1        0.0316
     22 C           1.5530    2.5285   29.7692 C.ar    1  UNL1        0.1547
     23 C           0.6819    2.9845   28.6364 C.ar    1  UNL1        0.0384
     24 C          -0.2095    2.0038   27.9340 C.ar    1  UNL1        0.0030
     25 C          -0.2300    0.5669   28.3644 C.ar    1  UNL1        0.0017
     26 C           0.6411    0.1109   29.4972 C.ar    1  UNL1        0.0206
     27 C           1.5326    1.0917   30.1996 C.ar    1  UNL1        0.0994
     28 N           2.4037    0.6357   31.3324 N.ar    1  UNL1       -0.2839
     29 C           2.5788    1.3362   32.6472 C.ar    1  UNL1        0.1826
     30 N           3.5359    0.5325   33.4768 N.ar    1  UNL1       -0.2280
     31 C           3.9523   -0.6647   32.6747 C.ar    1  UNL1        0.0786
     32 C           4.9017   -1.7373   33.1196 C.3     1  UNL1        0.0538
     33 C           3.2525   -0.6009   31.3494 C.ar    1  UNL1        0.0963
     34 C           2.1763    4.9808   30.3590 C.3     1  UNL1        0.2525
     35 O           2.4445    3.5093   30.4716 O.3     1  UNL1       -0.4700
@<TRIPOS>BOND
     1    34    35    1
     2    35    22    1
     3    22    23   ar
     4    23    24   ar
     5    24     1    1
     6     1     2    2
     7     2     3    1
     8     3     4    1
     9     4     5    1
    10     5     6    1
    11     6     7    1
    12     7     8    2
    13     8     9    1
    14     9    10    1
    15    10    13    1
    16    13    14   ar
    17    14    15   ar
    18    15    16    1
    19    15    17   ar
    20    17    18    1
    21    17    19   ar
    22    19    20    1
    23    19    21   ar
    24    10    11    1
    25    11    12    1
    26    24    25   ar
    27    25    26   ar
    28    26    27   ar
    29    27    28    1
    30    28    29   ar
    31    29    30   ar
    32    30    31   ar
    33    31    32    1
    34    31    33   ar
    35    27    22   ar
    36    33    28   ar
    37     7     2    1
    38    21    13   ar
    39    11     6    1
@<TRIPOS>MOLECULE
*****
 35 39 0 0 0
SMALL
GASTEIGER

@<TRIPOS>ATOM
      1 C           5.1758   -1.1885   29.2774 C.2     1  UNL1        0.0033
      2 C           4.2761   -0.6228   28.2188 C.2     1  UNL1        0.0641
      3 C           3.2167    0.3726   28.5884 C.3     1  UNL1        0.0383
      4 C           2.3170    0.9382   27.5298 C.3     1  UNL1        0.0557
      5 C           2.4768    0.5084   26.1016 C.3     1  UNL1        0.2028
      6 N           3.5362   -0.4871   25.7320 N.pl3   1  UNL1       -0.1873
      7 C           4.4359   -1.0527   26.7906 C.2     1  UNL1        0.3653
      8 N           5.4954   -2.0482   26.4211 N.2     1  UNL1        0.1549
      9 O           5.6552   -2.4781   24.9929 O.2     1  UNL1       -0.2751
     10 C           4.7554   -1.9124   23.9343 C.3     1  UNL1        0.2886
     11 C           3.6960   -0.9169   24.3039 C.3     1  UNL1        0.2096
     12 C           2.7963   -0.3513   23.2453 C.3     1  UNL1        0.0552
     13 C           4.9152   -2.3423   22.5061 C.ar    1  UNL1        0.0310
     14 C           4.2208   -3.5767   22.0122 C.ar    1  UNL1        0.0316
     15 C           4.3805   -4.0065   20.5841 C.ar    1  UNL1        0.1694
     16 F           3.6861   -5.2409   20.0902 F       1  UNL1       -0.2017
     17 C           5.2347   -3.2020   19.6497 C.ar    1  UNL1        0.1946
     18 F           5.3945   -3.6318   18.2216 F       1  UNL1       -0.1994
     19 C           5.9292   -1.9675   20.1436 C.ar    1  UNL1        0.1694
     20 F           6.7835   -1.1629   19.2093 F       1  UNL1       -0.2017
     21 C           5.7695   -1.5376   21.5718 C.ar    1  UNL1        0.0316
     22 C           5.6249    0.8502   32.6527 C.ar    1  UNL1        0.1547
     23 C           5.7847    0.4203   31.2245 C.ar    1  UNL1        0.0384
     24 C           5.0161   -0.7586   30.7056 C.ar    1  UNL1        0.0030
     25 C           4.0876   -1.5078   31.6150 C.ar    1  UNL1        0.0017
     26 C           3.9278   -1.0779   33.0431 C.ar    1  UNL1        0.0206
     27 C           4.6965    0.1011   33.5620 C.ar    1  UNL1        0.0994
     28 N           4.5367    0.5310   34.9902 N.ar    1  UNL1       -0.2839
     29 C           5.1643   -0.1255   36.1840 C.ar    1  UNL1        0.1826
     30 N           4.7368    0.6306   37.4069 N.ar    1  UNL1       -0.2280
     31 C           3.8450    1.7543   36.9689 C.ar    1  UNL1        0.0786
     32 C           3.1915    2.7626   37.8669 C.3     1  UNL1        0.0538
     33 C           3.7213    1.6927   35.4753 C.ar    1  UNL1        0.0963
     34 C           7.7351    1.8272   33.8114 C.3     1  UNL1        0.2525
     35 O           6.3936    2.0292   33.1715 O.3     1  UNL1       -0.4700
@<TRIPOS>BOND
     1    34    35    1
     2    35    22    1
     3    22    23   ar
     4    23    24   ar
     5    24     1    1
     6     1     2    2
     7     2     3    1
     8     3     4    1
     9     4     5    1
    10     5     6    1
    11     6     7    1
    12     7     8    2
    13     8     9    1
    14     9    10    1
    15    10    13    1
    16    13    14   ar
    17    14    15   ar
    18    15    16    1
    19    15    17   ar
    20    17    18    1
    21    17    19   ar
    22    19    20    1
    23    19    21   ar
    24    10    11    1
    25    11    12    1
    26    24    25   ar
    27    25    26   ar
    28    26    27   ar
    29    27    28    1
    30    28    29   ar
    31    29    30   ar
    32    30    31   ar
    33    31    32    1
    34    31    33   ar
    35    27    22   ar
    36    33    28   ar
    37     7     2    1
    38    21    13   ar
    39    11     6    1
@<TRIPOS>MOLECULE
*****
 35 39 0 0 0
SMALL
GASTEIGER

@<TRIPOS>ATOM
      1 C           5.5757    0.4010   36.3426 C.2     1  UNL1        0.0033
      2 C           5.5557    1.8993   36.4119 C.2     1  UNL1        0.0641
      3 C           5.7155    2.7102   35.1602 C.3     1  UNL1        0.0383
      4 C           5.6954    4.2085   35.2295 C.3     1  UNL1        0.0557
      5 C           5.5155    4.8958   36.5506 C.3     1  UNL1        0.2028
      6 N           5.3557    4.0849   37.8023 N.pl3   1  UNL1       -0.1873
      7 C           5.3758    2.5867   37.7330 C.2     1  UNL1        0.3653
      8 N           5.2160    1.7757   38.9847 N.2     1  UNL1        0.1549
      9 O           5.0361    2.4630   40.3058 O.2     1  UNL1       -0.2751
     10 C           5.0161    3.9613   40.3751 C.3     1  UNL1        0.2886
     11 C           5.1759    4.7722   39.1234 C.3     1  UNL1        0.2096
     12 C           5.1558    6.2704   39.1928 C.3     1  UNL1        0.0552
     13 C           4.8362    4.6486   41.6962 C.ar    1  UNL1        0.0310
     14 C           3.4881    5.1750   42.0904 C.ar    1  UNL1        0.0316
     15 C           3.3082    5.8623   43.4115 C.ar    1  UNL1        0.1694
     16 F           1.9600    6.3886   43.8056 F       1  UNL1       -0.2017
     17 C           4.4765    6.0233   44.3383 C.ar    1  UNL1        0.1946
     18 F           4.2966    6.7106   45.6594 F       1  UNL1       -0.1994
     19 C           5.8247    5.4969   43.9442 C.ar    1  UNL1        0.1694
     20 F           6.9930    5.6579   44.8711 F       1  UNL1       -0.2017
     21 C           6.0046    4.8096   42.6231 C.ar    1  UNL1        0.0316
     22 C           4.7358   -1.3933   32.9038 C.ar    1  UNL1        0.1547
     23 C           4.5559   -0.7060   34.2249 C.ar    1  UNL1        0.0384
     24 C           5.7556   -0.2863   35.0215 C.ar    1  UNL1        0.0030
     25 C           7.1352   -0.5540   34.4970 C.ar    1  UNL1        0.0017
     26 C           7.3151   -1.2413   33.1759 C.ar    1  UNL1        0.0206
     27 C           6.1153   -1.6609   32.3794 C.ar    1  UNL1        0.0994
     28 N           6.2952   -2.3483   31.0583 N.ar    1  UNL1       -0.2839
     29 C           6.2659   -1.6901   29.7107 C.ar    1  UNL1        0.1826
     30 N           6.4885   -2.7495   28.6724 N.ar    1  UNL1       -0.2280
     31 C           6.6555   -4.0624   29.3782 C.ar    1  UNL1        0.0786
     32 C           6.8991   -5.3903   28.7244 C.3     1  UNL1        0.0538
     33 C           6.5360   -3.8145   30.8528 C.ar    1  UNL1        0.0963
     34 C           2.9783   -0.9014   31.0547 C.3     1  UNL1        0.2525
     35 O           3.5360   -1.8130   32.1073 O.3     1  UNL1       -0.4700
@<TRIPOS>BOND
     1    34    35    1
     2    35    22    1
     3    22    23   ar
     4    23    24   ar
     5    24     1    1
     6     1     2    2
     7     2     3    1
     8     3     4    1
     9     4     5    1
    10     5     6    1
    11     6     7    1
    12     7     8    2
    13     8     9    1
    14     9    10    1
    15    10    13    1
    16    13    14   ar
    17    14    15   ar
    18    15    16    1
    19    15    17   ar
    20    17    18    1
    21    17    19   ar
    22    19    20    1
    23    19    21   ar
    24    10    11    1
    25    11    12    1
    26    24    25   ar
    27    25    26   ar
    28    26    27   ar
    29    27    28    1
    30    28    29   ar
    31    29    30   ar
    32    30    31   ar
    33    31    32    1
    34    31    33   ar
    35    27    22   ar
    36    33    28   ar
    37     7     2    1
    38    21    13   ar
    39    11     6    1
@<TRIPOS>MOLECULE
*****
 35 39 0 0 0
SMALL
GASTEIGER

@<TRIPOS>ATOM
      1 C           2.9541    0.5116   27.8719 C.2     1  UNL1        0.0033
      2 C           4.2106    0.2578   27.0928 C.2     1  UNL1        0.0641
      3 C           5.5365    0.2372   27.7939 C.3     1  UNL1        0.0383
      4 C           6.7929   -0.0166   27.0148 C.3     1  UNL1        0.0557
      5 C           6.7234   -0.2498   25.5347 C.3     1  UNL1        0.2028
      6 N           5.3975   -0.2292   24.8336 N.pl3   1  UNL1       -0.1873
      7 C           4.1411    0.0246   25.6127 C.2     1  UNL1        0.3653
      8 N           2.8151    0.0452   24.9117 N.2     1  UNL1        0.1549
      9 O           2.7456   -0.1879   23.4315 O.2     1  UNL1       -0.2751
     10 C           4.0021   -0.4417   22.6524 C.3     1  UNL1        0.2886
     11 C           5.3280   -0.4623   23.3535 C.3     1  UNL1        0.2096
     12 C           6.5844   -0.7161   22.5744 C.3     1  UNL1        0.0552
     13 C           3.9326   -0.6749   21.1723 C.ar    1  UNL1        0.0310
     14 C           4.1045    0.4738   20.2232 C.ar    1  UNL1        0.0316
     15 C           4.0350    0.2407   18.7431 C.ar    1  UNL1        0.1694
     16 F           4.2070    1.3894   17.7940 F       1  UNL1       -0.2017
     17 C           3.7936   -1.1412   18.2120 C.ar    1  UNL1        0.1946
     18 F           3.7241   -1.3744   16.7319 F       1  UNL1       -0.1994
     19 C           3.6217   -2.2900   19.1611 C.ar    1  UNL1        0.1694
     20 F           3.3803   -3.6719   18.6301 F       1  UNL1       -0.2017
     21 C           3.6912   -2.0569   20.6413 C.ar    1  UNL1        0.0316
     22 C           3.2380   -0.1849   31.7686 C.ar    1  UNL1        0.1547
     23 C           3.1685   -0.4180   30.2885 C.ar    1  UNL1        0.0384
     24 C           3.0236    0.7447   29.3521 C.ar    1  UNL1        0.0030
     25 C           2.9482    2.1407   29.8958 C.ar    1  UNL1        0.0017
     26 C           3.0177    2.3739   31.3759 C.ar    1  UNL1        0.0206
     27 C           3.1626    1.2111   32.3123 C.ar    1  UNL1        0.0994
     28 N           3.2321    1.4442   33.7925 N.ar    1  UNL1       -0.2839
     29 C           2.2805    2.2767   34.5996 C.ar    1  UNL1        0.1826
     30 N           2.7257    2.2328   36.0313 N.ar    1  UNL1       -0.2280
     31 C           3.9525    1.3732   36.1091 C.ar    1  UNL1        0.0786
     32 C           4.7298    1.0566   37.3523 C.3     1  UNL1        0.0538
     33 C           4.2655    0.8859   34.7254 C.ar    1  UNL1        0.0963
     34 C           4.6021   -2.2189   32.6360 C.3     1  UNL1        0.2525
     35 O           3.3830   -1.3477   32.7051 O.3     1  UNL1       -0.4700
@<TRIPOS>BOND
     1    34    35    1
     2    35    22    1
     3    22    23   ar
     4    23    24   ar
     5    24     1    1
     6     1     2    2
     7     2     3    1
     8     3     4    1
     9     4     5    1
    10     5     6    1
    11     6     7    1
    12     7     8    2
    13     8     9    1
    14     9    10    1
    15    10    13    1
    16    13    14   ar
    17    14    15   ar
    18    15    16    1
    19    15    17   ar
    20    17    18    1
    21    17    19   ar
    22    19    20    1
    23    19    21   ar
    24    10    11    1
    25    11    12    1
    26    24    25   ar
    27    25    26   ar
    28    26    27   ar
    29    27    28    1
    30    28    29   ar
    31    29    30   ar
    32    30    31   ar
    33    31    32    1
    34    31    33   ar
    35    27    22   ar
    36    33    28   ar
    37     7     2    1
    38    21    13   ar
    39    11     6    1
@<TRIPOS>MOLECULE
*****
 35 39 0 0 0
SMALL
GASTEIGER

@<TRIPOS>ATOM
      1 C           4.1991   -0.2363   28.4749 C.2     1  UNL1        0.0033
      2 C           5.1685   -1.2736   27.9906 C.2     1  UNL1        0.0641
      3 C           6.1496   -1.8870   28.9450 C.3     1  UNL1        0.0383
      4 C           7.1189   -2.9242   28.4606 C.3     1  UNL1        0.0557
      5 C           7.1071   -3.3479   27.0218 C.3     1  UNL1        0.2028
      6 N           6.1259   -2.7345   26.0673 N.pl3   1  UNL1       -0.1873
      7 C           5.1566   -1.6973   26.5517 C.2     1  UNL1        0.3653
      8 N           4.1754   -1.0838   25.5972 N.2     1  UNL1        0.1549
      9 O           4.1636   -1.5075   24.1584 O.2     1  UNL1       -0.2751
     10 C           5.1330   -2.5448   23.6740 C.3     1  UNL1        0.2886
     11 C           6.1141   -3.1582   24.6285 C.3     1  UNL1        0.2096
     12 C           7.0834   -4.1954   24.1441 C.3     1  UNL1        0.0552
     13 C           5.1212   -2.9685   22.2351 C.ar    1  UNL1        0.0310
     14 C           4.1554   -4.0178   21.7702 C.ar    1  UNL1        0.0316
     15 C           4.1436   -4.4415   20.3313 C.ar    1  UNL1        0.1694
     16 F           3.1778   -5.4908   19.8664 F       1  UNL1       -0.2017
     17 C           5.0976   -3.8160   19.3574 C.ar    1  UNL1        0.1946
     18 F           5.0858   -4.2397   17.9186 F       1  UNL1       -0.1994
     19 C           6.0635   -2.7666   19.8223 C.ar    1  UNL1        0.1694
     20 F           7.0175   -2.1411   18.8484 F       1  UNL1       -0.2017
     21 C           6.0753   -2.3429   21.2612 C.ar    1  UNL1        0.0316
     22 C           3.9560   -0.3947   32.4329 C.ar    1  UNL1        0.1547
     23 C           3.9442   -0.8185   30.9941 C.ar    1  UNL1        0.0384
     24 C           4.2109    0.1874   29.9138 C.ar    1  UNL1        0.0030
     25 C           4.4895    1.6171   30.2723 C.ar    1  UNL1        0.0017
     26 C           4.5013    2.0408   31.7112 C.ar    1  UNL1        0.0206
     27 C           4.2345    1.0349   32.7915 C.ar    1  UNL1        0.0994
     28 N           4.2463    1.4586   34.2304 N.ar    1  UNL1       -0.2839
     29 C           3.0780    2.0001   34.9997 C.ar    1  UNL1        0.1826
     30 N           3.5381    2.2914   36.3973 N.ar    1  UNL1       -0.2280
     31 C           4.9909    1.9299   36.4918 C.ar    1  UNL1        0.0786
     32 C           5.8543    2.0603   37.7114 C.3     1  UNL1        0.0538
     33 C           5.4285    1.4153   35.1526 C.ar    1  UNL1        0.0963
     34 C           4.3833   -2.7302   33.4880 C.3     1  UNL1        0.2525
     35 O           3.6892   -1.4007   33.5132 O.3     1  UNL1       -0.4700
@<TRIPOS>BOND
     1    34    35    1
     2    35    22    1
     3    22    23   ar
     4    23    24   ar
     5    24     1    1
     6     1     2    2
     7     2     3    1
     8     3     4    1
     9     4     5    1
    10     5     6    1
    11     6     7    1
    12     7     8    2
    13     8     9    1
    14     9    10    1
    15    10    13    1
    16    13    14   ar
    17    14    15   ar
    18    15    16    1
    19    15    17   ar
    20    17    18    1
    21    17    19   ar
    22    19    20    1
    23    19    21   ar
    24    10    11    1
    25    11    12    1
    26    24    25   ar
    27    25    26   ar
    28    26    27   ar
    29    27    28    1
    30    28    29   ar
    31    29    30   ar
    32    30    31   ar
    33    31    32    1
    34    31    33   ar
    35    27    22   ar
    36    33    28   ar
    37     7     2    1
    38    21    13   ar
    39    11     6    1
