@<TRIPOS>MOLECULE
*****
 36 39 0 0 0
SMALL
GASTEIGER

@<TRIPOS>ATOM
      1 C          -9.2185  -21.5240   17.8562 C.3     1  UNL1        0.0312
      2 C          -9.5426  -20.3237   18.6953 C.ar    1  UNL1       -0.0159
      3 C         -10.8724  -19.6448   18.5513 C.ar    1  UNL1       -0.0040
      4 C         -11.1964  -18.4444   19.3904 C.ar    1  UNL1        0.0012
      5 C         -10.1907  -17.9229   20.3735 C.ar    1  UNL1        0.0175
      6 C          -8.8609  -18.6018   20.5175 C.ar    1  UNL1        0.0684
      7 C          -8.5369  -19.8022   19.6784 C.ar    1  UNL1        0.0682
      8 C          -7.2070  -20.4811   19.8224 C.ar    1  UNL1        0.2653
      9 O          -6.8830  -21.6814   18.9833 O.2     1  UNL1       -0.2668
     10 N          -6.2013  -19.9596   20.8055 N.ar    1  UNL1       -0.2487
     11 C          -6.5254  -18.7592   21.6446 C.ar    1  UNL1        0.3340
     12 O          -5.5196  -18.2377   22.6278 O.2     1  UNL1       -0.2462
     13 N          -7.8552  -18.0803   21.5006 N.ar    1  UNL1       -0.2769
     14 C          -4.8715  -20.6385   20.9496 C.3     1  UNL1        0.1135
     15 C          -3.6056  -19.8531   20.7744 C.3     1  UNL1        0.0229
     16 C          -2.6676  -19.6743   21.9313 C.3     1  UNL1        0.0023
     17 C          -1.4018  -18.8889   21.7561 C.3     1  UNL1        0.0056
     18 C          -1.0738  -18.2822   20.4240 C.3     1  UNL1        0.0365
     19 C          -2.0118  -18.4610   19.2672 C.3     1  UNL1        0.0056
     20 C          -3.2776  -19.2464   19.4424 C.3     1  UNL1        0.0023
     21 C           0.1920  -17.4968   20.2488 C.2     1  UNL1        0.0500
     22 O           0.1313  -16.0660   19.8027 O.co2   1  UNL1       -0.5492
     23 O           1.5187  -18.1423   20.5197 O.co2   1  UNL1       -0.5492
     24 C          -8.1792  -16.8800   22.3398 C.3     1  UNL1        0.1379
     25 C          -8.5186  -17.0489   23.7910 C.ar    1  UNL1        0.0101
     26 C          -9.6529  -17.9425   24.1970 C.ar    1  UNL1       -0.0017
     27 C          -9.9923  -18.1114   25.6482 C.ar    1  UNL1       -0.0003
     28 C          -9.1974  -17.3867   26.6937 C.ar    1  UNL1        0.0045
     29 C          -8.0631  -16.4931   26.2878 C.ar    1  UNL1        0.0808
     30 C          -7.7237  -16.3242   24.8364 C.ar    1  UNL1        0.0702
     31 C          -7.2682  -15.7684   27.3332 C.3     1  UNL1        0.4192
     32 F          -6.4732  -15.0437   28.3786 F       1  UNL1       -0.1658
     33 F          -6.1379  -16.7364   27.1448 F       1  UNL1       -0.1658
     34 F          -8.3984  -14.8004   27.5216 F       1  UNL1       -0.1658
     35 C          -6.5894  -15.4305   24.4306 C.1     1  UNL1        0.1001
     36 N          -5.4550  -14.5369   24.0247 N.1     1  UNL1       -0.1908
@<TRIPOS>UNITY_ATOM_ATTR
22 1
charge -1
@<TRIPOS>BOND
     1     1     2    1
     2     2     3   ar
     3     3     4   ar
     4     4     5   ar
     5     5     6   ar
     6     6     7   ar
     7     7     8   ar
     8     8     9    2
     9     8    10   ar
    10    10    14    1
    11    15    14    1
    12    15    16    1
    13    16    17    1
    14    17    18    1
    15    18    21    1
    16    21    22   ar
    17    21    23   ar
    18    18    19    1
    19    19    20    1
    20    10    11   ar
    21    11    12    2
    22    11    13   ar
    23    13    24    1
    24    24    25    1
    25    25    26   ar
    26    26    27   ar
    27    27    28   ar
    28    28    29   ar
    29    29    31    1
    30    31    32    1
    31    31    33    1
    32    31    34    1
    33    29    30   ar
    34    30    35    1
    35    35    36    3
    36     7     2   ar
    37    20    15    1
    38    30    25   ar
    39    13     6   ar
@<TRIPOS>MOLECULE
*****
 36 39 0 0 0
SMALL
GASTEIGER

@<TRIPOS>ATOM
      1 C           6.5912   -5.3021   28.7745 C.3     1  UNL1        0.0312
      2 C           6.8359   -5.0898   27.3099 C.ar    1  UNL1       -0.0159
      3 C           7.3418   -6.2194   26.4626 C.ar    1  UNL1       -0.0040
      4 C           7.5865   -6.0071   24.9980 C.ar    1  UNL1        0.0012
      5 C           7.3252   -4.6652   24.3807 C.ar    1  UNL1        0.0175
      6 C           6.8192   -3.5357   25.2280 C.ar    1  UNL1        0.0684
      7 C           6.5746   -3.7479   26.6926 C.ar    1  UNL1        0.0682
      8 C           6.0686   -2.6183   27.5400 C.ar    1  UNL1        0.2653
      9 O           5.8239   -2.8305   29.0046 O.2     1  UNL1       -0.2668
     10 N           5.8073   -1.2764   26.9227 N.ar    1  UNL1       -0.2487
     11 C           6.0519   -1.0641   25.4581 C.ar    1  UNL1        0.3340
     12 O           5.7906    0.2778   24.8408 O.2     1  UNL1       -0.2462
     13 N           6.5579   -2.1937   24.6108 N.ar    1  UNL1       -0.2769
     14 C           5.3013   -0.1467   27.7700 C.3     1  UNL1        0.1135
     15 C           3.8268    0.0309   27.9805 C.3     1  UNL1        0.0229
     16 C           3.0047    0.7545   26.9555 C.3     1  UNL1        0.0023
     17 C           1.5302    0.9321   27.1659 C.3     1  UNL1        0.0056
     18 C           0.8778    0.3860   28.4013 C.3     1  UNL1        0.0365
     19 C           1.6998   -0.3376   29.4263 C.3     1  UNL1        0.0056
     20 C           3.1744   -0.5152   29.2158 C.3     1  UNL1        0.0023
     21 C          -0.5968    0.5636   28.6118 C.2     1  UNL1        0.0500
     22 O          -1.3155   -0.2733   29.6281 O.co2   1  UNL1       -0.5492
     23 O          -1.3525    1.5782   27.8058 O.co2   1  UNL1       -0.5492
     24 C           6.8025   -1.9814   23.1462 C.3     1  UNL1        0.1379
     25 C           5.6742   -2.1265   22.1685 C.ar    1  UNL1        0.0101
     26 C           4.4943   -1.2032   22.2424 C.ar    1  UNL1       -0.0017
     27 C           3.3660   -1.3483   21.2648 C.ar    1  UNL1       -0.0003
     28 C           3.4175   -2.4167   20.2132 C.ar    1  UNL1        0.0045
     29 C           4.5973   -3.3400   20.1393 C.ar    1  UNL1        0.0808
     30 C           5.7257   -3.1950   21.1170 C.ar    1  UNL1        0.0702
     31 C           4.6487   -4.4085   19.0877 C.3     1  UNL1        0.4192
     32 F           4.7002   -5.4769   18.0362 F       1  UNL1       -0.1658
     33 F           5.4904   -3.5172   18.2233 F       1  UNL1       -0.1658
     34 F           3.8071   -5.2998   19.9521 F       1  UNL1       -0.1658
     35 C           6.9055   -4.1183   21.0430 C.1     1  UNL1        0.1001
     36 N           8.0853   -5.0417   20.9691 N.1     1  UNL1       -0.1908
@<TRIPOS>UNITY_ATOM_ATTR
22 1
charge -1
@<TRIPOS>BOND
     1     1     2    1
     2     2     3   ar
     3     3     4   ar
     4     4     5   ar
     5     5     6   ar
     6     6     7   ar
     7     7     8   ar
     8     8     9    2
     9     8    10   ar
    10    10    14    1
    11    15    14    1
    12    15    16    1
    13    16    17    1
    14    17    18    1
    15    18    21    1
    16    21    22   ar
    17    21    23   ar
    18    18    19    1
    19    19    20    1
    20    10    11   ar
    21    11    12    2
    22    11    13   ar
    23    13    24    1
    24    24    25    1
    25    25    26   ar
    26    26    27   ar
    27    27    28   ar
    28    28    29   ar
    29    29    31    1
    30    31    32    1
    31    31    33    1
    32    31    34    1
    33    29    30   ar
    34    30    35    1
    35    35    36    3
    36     7     2   ar
    37    20    15    1
    38    30    25   ar
    39    13     6   ar
@<TRIPOS>MOLECULE
*****
 36 39 0 0 0
SMALL
GASTEIGER

@<TRIPOS>ATOM
      1 C           8.9210   -8.1546   28.0161 C.3     1  UNL1        0.0312
      2 C           8.6784   -7.3683   26.7620 C.ar    1  UNL1       -0.0159
      3 C           8.4979   -8.0797   25.4538 C.ar    1  UNL1       -0.0040
      4 C           8.2553   -7.2933   24.1997 C.ar    1  UNL1        0.0012
      5 C           8.1933   -5.7956   24.2537 C.ar    1  UNL1        0.0175
      6 C           8.3738   -5.0842   25.5619 C.ar    1  UNL1        0.0684
      7 C           8.6164   -5.8706   26.8160 C.ar    1  UNL1        0.0682
      8 C           8.7969   -5.1591   28.1242 C.ar    1  UNL1        0.2653
      9 O           9.0395   -5.9454   29.3783 O.2     1  UNL1       -0.2668
     10 N           8.7348   -3.6614   28.1782 N.ar    1  UNL1       -0.2487
     11 C           8.4923   -2.8751   26.9241 C.ar    1  UNL1        0.3340
     12 O           8.4302   -1.3773   26.9781 O.2     1  UNL1       -0.2462
     13 N           8.3117   -3.5865   25.6159 N.ar    1  UNL1       -0.2769
     14 C           8.9154   -2.9499   29.4864 C.3     1  UNL1        0.1135
     15 C           7.7332   -2.7063   30.3770 C.3     1  UNL1        0.0229
     16 C           6.8910   -1.4797   30.1868 C.3     1  UNL1        0.0023
     17 C           5.7088   -1.2361   31.0774 C.3     1  UNL1        0.0056
     18 C           5.3690   -2.2192   32.1583 C.3     1  UNL1        0.0365
     19 C           6.2112   -3.4457   32.3485 C.3     1  UNL1        0.0056
     20 C           7.3933   -3.6893   31.4578 C.3     1  UNL1        0.0023
     21 C           4.1868   -1.9756   33.0489 C.2     1  UNL1        0.0500
     22 O           3.6466   -3.0871   33.8990 O.co2   1  UNL1       -0.5492
     23 O           3.5449   -0.6204   33.0894 O.co2   1  UNL1       -0.5492
     24 C           8.0692   -2.8001   24.3618 C.3     1  UNL1        0.1379
     25 C           6.6666   -2.5524   23.8914 C.ar    1  UNL1        0.0101
     26 C           5.6993   -1.8171   24.7711 C.ar    1  UNL1       -0.0017
     27 C           4.2967   -1.5693   24.3007 C.ar    1  UNL1       -0.0003
     28 C           3.8613   -2.0568   22.9506 C.ar    1  UNL1        0.0045
     29 C           4.8285   -2.7920   22.0709 C.ar    1  UNL1        0.0808
     30 C           6.2312   -3.0399   22.5413 C.ar    1  UNL1        0.0702
     31 C           4.3931   -3.2795   20.7208 C.3     1  UNL1        0.4192
     32 F           3.9577   -3.7670   19.3707 F       1  UNL1       -0.1658
     33 F           4.0320   -4.6078   21.3169 F       1  UNL1       -0.1658
     34 F           4.7542   -1.9513   20.1247 F       1  UNL1       -0.1658
     35 C           7.1983   -3.7751   21.6616 C.1     1  UNL1        0.1001
     36 N           8.1656   -4.5104   20.7818 N.1     1  UNL1       -0.1908
@<TRIPOS>UNITY_ATOM_ATTR
22 1
charge -1
@<TRIPOS>BOND
     1     1     2    1
     2     2     3   ar
     3     3     4   ar
     4     4     5   ar
     5     5     6   ar
     6     6     7   ar
     7     7     8   ar
     8     8     9    2
     9     8    10   ar
    10    10    14    1
    11    15    14    1
    12    15    16    1
    13    16    17    1
    14    17    18    1
    15    18    21    1
    16    21    22   ar
    17    21    23   ar
    18    18    19    1
    19    19    20    1
    20    10    11   ar
    21    11    12    2
    22    11    13   ar
    23    13    24    1
    24    24    25    1
    25    25    26   ar
    26    26    27   ar
    27    27    28   ar
    28    28    29   ar
    29    29    31    1
    30    31    32    1
    31    31    33    1
    32    31    34    1
    33    29    30   ar
    34    30    35    1
    35    35    36    3
    36     7     2   ar
    37    20    15    1
    38    30    25   ar
    39    13     6   ar
@<TRIPOS>MOLECULE
*****
 36 39 0 0 0
SMALL
GASTEIGER

@<TRIPOS>ATOM
      1 C          -8.3254  -14.8128   26.1954 C.3     1  UNL1        0.0312
      2 C          -7.0424  -15.4665   25.7754 C.ar    1  UNL1       -0.0159
      3 C          -5.7767  -15.1887   26.5309 C.ar    1  UNL1       -0.0040
      4 C          -4.4937  -15.8424   26.1109 C.ar    1  UNL1        0.0012
      5 C          -4.4763  -16.7740   24.9354 C.ar    1  UNL1        0.0175
      6 C          -5.7420  -17.0518   24.1799 C.ar    1  UNL1        0.0684
      7 C          -7.0250  -16.3981   24.5999 C.ar    1  UNL1        0.0682
      8 C          -8.2907  -16.6759   23.8443 C.ar    1  UNL1        0.2653
      9 O          -9.5738  -16.0222   24.2643 O.2     1  UNL1       -0.2668
     10 N          -8.2734  -17.6075   22.6688 N.ar    1  UNL1       -0.2487
     11 C          -6.9903  -18.2612   22.2488 C.ar    1  UNL1        0.3340
     12 O          -6.9730  -19.1928   21.0732 O.2     1  UNL1       -0.2462
     13 N          -5.7246  -17.9834   23.0043 N.ar    1  UNL1       -0.2769
     14 C          -9.5391  -17.8853   21.9133 C.3     1  UNL1        0.1135
     15 C         -10.8289  -18.0758   22.6550 C.3     1  UNL1        0.0229
     16 C         -12.0243  -17.2386   22.3081 C.3     1  UNL1        0.0023
     17 C         -13.3140  -17.4290   23.0498 C.3     1  UNL1        0.0056
     18 C         -13.4085  -18.4567   24.1385 C.3     1  UNL1        0.0365
     19 C         -12.2131  -19.2938   24.4853 C.3     1  UNL1        0.0056
     20 C         -10.9234  -19.1034   23.7436 C.3     1  UNL1        0.0023
     21 C         -14.6983  -18.6471   24.8802 C.2     1  UNL1        0.0500
     22 O         -15.9844  -18.7949   24.1226 O.co2   1  UNL1       -0.5492
     23 O         -14.7019  -18.6898   26.3797 O.co2   1  UNL1       -0.5492
     24 C          -4.4416  -18.6371   22.5843 C.3     1  UNL1        0.1379
     25 C          -3.3885  -17.8368   21.8770 C.ar    1  UNL1        0.0101
     26 C          -2.7518  -16.6638   22.5616 C.ar    1  UNL1       -0.0017
     27 C          -1.6987  -15.8634   21.8543 C.ar    1  UNL1       -0.0003
     28 C          -1.2823  -16.2360   20.4622 C.ar    1  UNL1        0.0045
     29 C          -1.9190  -17.4089   19.7776 C.ar    1  UNL1        0.0808
     30 C          -2.9721  -18.2094   20.4849 C.ar    1  UNL1        0.0702
     31 C          -1.5025  -17.7815   18.3855 C.3     1  UNL1        0.4192
     32 F          -1.0861  -18.1541   16.9935 F       1  UNL1       -0.1658
     33 F          -2.6770  -17.0297   17.8329 F       1  UNL1       -0.1658
     34 F          -0.3280  -18.5333   18.9381 F       1  UNL1       -0.1658
     35 C          -3.6087  -19.3823   19.8002 C.1     1  UNL1        0.1001
     36 N          -4.2454  -20.5553   19.1155 N.1     1  UNL1       -0.1908
@<TRIPOS>UNITY_ATOM_ATTR
22 1
charge -1
@<TRIPOS>BOND
     1     1     2    1
     2     2     3   ar
     3     3     4   ar
     4     4     5   ar
     5     5     6   ar
     6     6     7   ar
     7     7     8   ar
     8     8     9    2
     9     8    10   ar
    10    10    14    1
    11    15    14    1
    12    15    16    1
    13    16    17    1
    14    17    18    1
    15    18    21    1
    16    21    22   ar
    17    21    23   ar
    18    18    19    1
    19    19    20    1
    20    10    11   ar
    21    11    12    2
    22    11    13   ar
    23    13    24    1
    24    24    25    1
    25    25    26   ar
    26    26    27   ar
    27    27    28   ar
    28    28    29   ar
    29    29    31    1
    30    31    32    1
    31    31    33    1
    32    31    34    1
    33    29    30   ar
    34    30    35    1
    35    35    36    3
    36     7     2   ar
    37    20    15    1
    38    30    25   ar
    39    13     6   ar
@<TRIPOS>MOLECULE
*****
 36 39 0 0 0
SMALL
GASTEIGER

@<TRIPOS>ATOM
      1 C          -5.4173    3.9768   23.9458 C.3     1  UNL1        0.0312
      2 C          -4.6234    3.7322   22.6969 C.ar    1  UNL1       -0.0159
      3 C          -5.3286    3.4732   21.3986 C.ar    1  UNL1       -0.0040
      4 C          -4.5346    3.2286   20.1497 C.ar    1  UNL1        0.0012
      5 C          -3.0356    3.2429   20.1990 C.ar    1  UNL1        0.0175
      6 C          -2.3304    3.5018   21.4973 C.ar    1  UNL1        0.0684
      7 C          -3.1243    3.7465   22.7463 C.ar    1  UNL1        0.0682
      8 C          -2.4191    4.0054   24.0446 C.ar    1  UNL1        0.2653
      9 O          -3.2130    4.2501   25.2936 O.2     1  UNL1       -0.2668
     10 N          -0.9200    4.0197   24.0940 N.ar    1  UNL1       -0.2487
     11 C          -0.1261    3.7751   22.8451 C.ar    1  UNL1        0.3340
     12 O           1.3731    3.7894   22.8945 O.2     1  UNL1       -0.2462
     13 N          -0.8312    3.5161   21.5468 N.ar    1  UNL1       -0.2769
     14 C          -0.2148    4.2786   25.3924 C.3     1  UNL1        0.1135
     15 C           0.2906    3.1296   26.2135 C.3     1  UNL1        0.0229
     16 C          -0.6735    2.1234   26.7688 C.3     1  UNL1        0.0023
     17 C          -0.1681    0.9743   27.5900 C.3     1  UNL1        0.0056
     18 C           1.3012    0.8315   27.8559 C.3     1  UNL1        0.0365
     19 C           2.2652    1.8377   27.3006 C.3     1  UNL1        0.0056
     20 C           1.7598    2.9867   26.4794 C.3     1  UNL1        0.0023
     21 C           1.8066   -0.3176   28.6770 C.2     1  UNL1        0.0500
     22 O           2.7853   -1.2885   28.0861 O.co2   1  UNL1       -0.5492
     23 O           1.3331   -0.4957   30.0892 O.co2   1  UNL1       -0.5492
     24 C          -0.0373    3.2715   20.2978 C.3     1  UNL1        0.1379
     25 C           0.6729    1.9645   20.1045 C.ar    1  UNL1        0.0101
     26 C           0.1609    0.7259   20.7782 C.ar    1  UNL1       -0.0017
     27 C           0.8711   -0.5811   20.5849 C.ar    1  UNL1       -0.0003
     28 C           2.0933   -0.6495   19.7180 C.ar    1  UNL1        0.0045
     29 C           2.6053    0.5890   19.0443 C.ar    1  UNL1        0.0808
     30 C           1.8951    1.8961   19.2376 C.ar    1  UNL1        0.0702
     31 C           3.8274    0.5206   18.1774 C.3     1  UNL1        0.4192
     32 F           5.0496    0.4521   17.3104 F       1  UNL1       -0.1658
     33 F           4.6250    1.2049   19.2477 F       1  UNL1       -0.1658
     34 F           3.0299   -0.1637   17.1070 F       1  UNL1       -0.1658
     35 C           2.4071    3.1346   18.5639 C.1     1  UNL1        0.1001
     36 N           2.9191    4.3732   17.8903 N.1     1  UNL1       -0.1908
@<TRIPOS>UNITY_ATOM_ATTR
22 1
charge -1
@<TRIPOS>BOND
     1     1     2    1
     2     2     3   ar
     3     3     4   ar
     4     4     5   ar
     5     5     6   ar
     6     6     7   ar
     7     7     8   ar
     8     8     9    2
     9     8    10   ar
    10    10    14    1
    11    15    14    1
    12    15    16    1
    13    16    17    1
    14    17    18    1
    15    18    21    1
    16    21    22   ar
    17    21    23   ar
    18    18    19    1
    19    19    20    1
    20    10    11   ar
    21    11    12    2
    22    11    13   ar
    23    13    24    1
    24    24    25    1
    25    25    26   ar
    26    26    27   ar
    27    27    28   ar
    28    28    29   ar
    29    29    31    1
    30    31    32    1
    31    31    33    1
    32    31    34    1
    33    29    30   ar
    34    30    35    1
    35    35    36    3
    36     7     2   ar
    37    20    15    1
    38    30    25   ar
    39    13     6   ar
@<TRIPOS>MOLECULE
*****
 36 39 0 0 0
SMALL
GASTEIGER

@<TRIPOS>ATOM
      1 C           4.7017    5.8845   23.8422 C.3     1  UNL1        0.0312
      2 C           4.9403    4.7935   22.8408 C.ar    1  UNL1       -0.0159
      3 C           6.2653    4.6905   22.1453 C.ar    1  UNL1       -0.0040
      4 C           6.5039    3.5996   21.1439 C.ar    1  UNL1        0.0012
      5 C           5.4175    2.6115   20.8380 C.ar    1  UNL1        0.0175
      6 C           4.0926    2.7145   21.5335 C.ar    1  UNL1        0.0684
      7 C           3.8539    3.8055   22.5349 C.ar    1  UNL1        0.0682
      8 C           2.5289    3.9084   23.2305 C.ar    1  UNL1        0.2653
      9 O           2.2903    4.9994   24.2319 O.2     1  UNL1       -0.2668
     10 N           1.4425    2.9204   22.9246 N.ar    1  UNL1       -0.2487
     11 C           1.6811    1.8294   21.9232 C.ar    1  UNL1        0.3340
     12 O           0.5947    0.8414   21.6173 O.2     1  UNL1       -0.2462
     13 N           3.0061    1.7265   21.2276 N.ar    1  UNL1       -0.2769
     14 C           0.1175    3.0234   23.6201 C.3     1  UNL1        0.1135
     15 C          -0.0535    2.4520   24.9965 C.3     1  UNL1        0.0229
     16 C          -1.2748    2.7861   25.8008 C.3     1  UNL1        0.0023
     17 C          -1.4457    2.2147   27.1772 C.3     1  UNL1        0.0056
     18 C          -0.3954    1.3092   27.7491 C.3     1  UNL1        0.0365
     19 C           0.8258    0.9751   26.9447 C.3     1  UNL1        0.0056
     20 C           0.9967    1.5465   25.5684 C.3     1  UNL1        0.0023
     21 C          -0.5663    0.7378   29.1254 C.2     1  UNL1        0.0500
     22 O           0.4004    1.1005   30.2135 O.co2   1  UNL1       -0.5492
     23 O          -1.7041   -0.1963   29.4137 O.co2   1  UNL1       -0.5492
     24 C           3.2447    0.6355   20.2262 C.3     1  UNL1        0.1379
     25 C           3.5929   -0.7471   20.6921 C.ar    1  UNL1        0.0101
     26 C           3.6429   -1.0538   22.1596 C.ar    1  UNL1       -0.0017
     27 C           3.9911   -2.4364   22.6254 C.ar    1  UNL1       -0.0003
     28 C           4.2892   -3.5125   21.6238 C.ar    1  UNL1        0.0045
     29 C           4.2392   -3.2059   20.1564 C.ar    1  UNL1        0.0808
     30 C           3.8910   -1.8232   19.6904 C.ar    1  UNL1        0.0702
     31 C           4.5373   -4.2819   19.1547 C.3     1  UNL1        0.4192
     32 F           4.8355   -5.3580   18.1531 F       1  UNL1       -0.1658
     33 F           5.9947   -3.9313   19.2119 F       1  UNL1       -0.1658
     34 F           3.0800   -4.6325   19.0976 F       1  UNL1       -0.1658
     35 C           3.8410   -1.5166   18.2230 C.1     1  UNL1        0.1001
     36 N           3.7909   -1.2100   16.7555 N.1     1  UNL1       -0.1908
@<TRIPOS>UNITY_ATOM_ATTR
22 1
charge -1
@<TRIPOS>BOND
     1     1     2    1
     2     2     3   ar
     3     3     4   ar
     4     4     5   ar
     5     5     6   ar
     6     6     7   ar
     7     7     8   ar
     8     8     9    2
     9     8    10   ar
    10    10    14    1
    11    15    14    1
    12    15    16    1
    13    16    17    1
    14    17    18    1
    15    18    21    1
    16    21    22   ar
    17    21    23   ar
    18    18    19    1
    19    19    20    1
    20    10    11   ar
    21    11    12    2
    22    11    13   ar
    23    13    24    1
    24    24    25    1
    25    25    26   ar
    26    26    27   ar
    27    27    28   ar
    28    28    29   ar
    29    29    31    1
    30    31    32    1
    31    31    33    1
    32    31    34    1
    33    29    30   ar
    34    30    35    1
    35    35    36    3
    36     7     2   ar
    37    20    15    1
    38    30    25   ar
    39    13     6   ar
@<TRIPOS>MOLECULE
*****
 36 39 0 0 0
SMALL
GASTEIGER

@<TRIPOS>ATOM
      1 C           5.4094    2.5595   17.5234 C.3     1  UNL1        0.0312
      2 C           4.2273    3.3797   17.9478 C.ar    1  UNL1       -0.0159
      3 C           4.2379    4.8670   17.7539 C.ar    1  UNL1       -0.0040
      4 C           3.0558    5.6871   18.1783 C.ar    1  UNL1        0.0012
      5 C           1.8632    5.0199   18.7967 C.ar    1  UNL1        0.0175
      6 C           1.8526    3.5326   18.9906 C.ar    1  UNL1        0.0684
      7 C           3.0347    2.7124   18.5662 C.ar    1  UNL1        0.0682
      8 C           3.0241    1.2250   18.7601 C.ar    1  UNL1        0.2653
      9 O           4.2061    0.4049   18.3357 O.2     1  UNL1       -0.2668
     10 N           1.8314    0.5578   19.3785 N.ar    1  UNL1       -0.2487
     11 C           0.6494    1.3779   19.8030 C.ar    1  UNL1        0.3340
     12 O          -0.5433    0.7106   20.4213 O.2     1  UNL1       -0.2462
     13 N           0.6600    2.8653   19.6090 N.ar    1  UNL1       -0.2769
     14 C           1.8208   -0.9296   19.5725 C.3     1  UNL1        0.1135
     15 C           2.7951   -1.5698   20.5164 C.3     1  UNL1        0.0229
     16 C           3.6042   -2.7519   20.0713 C.3     1  UNL1        0.0023
     17 C           4.5784   -3.3922   21.0152 C.3     1  UNL1        0.0056
     18 C           4.7436   -2.8502   22.4042 C.3     1  UNL1        0.0365
     19 C           3.9345   -1.6682   22.8492 C.3     1  UNL1        0.0056
     20 C           2.9602   -1.0280   21.9053 C.3     1  UNL1        0.0023
     21 C           5.7178   -3.4905   23.3481 C.2     1  UNL1        0.0500
     22 O           5.8013   -3.0230   24.7709 O.co2   1  UNL1       -0.5492
     23 O           6.6087   -4.5982   22.8691 O.co2   1  UNL1       -0.5492
     24 C          -0.5221    3.6854   20.0335 C.3     1  UNL1        0.1379
     25 C          -1.7018    3.8303   19.1185 C.ar    1  UNL1        0.0101
     26 C          -1.4963    3.8940   17.6340 C.ar    1  UNL1       -0.0017
     27 C          -2.6760    4.0389   16.7190 C.ar    1  UNL1       -0.0003
     28 C          -4.0613    4.1201   17.2885 C.ar    1  UNL1        0.0045
     29 C          -4.2669    4.0564   18.7730 C.ar    1  UNL1        0.0808
     30 C          -3.0871    3.9115   19.6880 C.ar    1  UNL1        0.0702
     31 C          -5.6522    4.1376   19.3425 C.3     1  UNL1        0.4192
     32 F          -7.0375    4.2188   19.9120 F       1  UNL1       -0.1658
     33 F          -5.8392    2.6697   19.0969 F       1  UNL1       -0.1658
     34 F          -5.4652    5.6055   19.5880 F       1  UNL1       -0.1658
     35 C          -3.2927    3.8478   21.1724 C.1     1  UNL1        0.1001
     36 N          -3.4983    3.7841   22.6570 N.1     1  UNL1       -0.1908
@<TRIPOS>UNITY_ATOM_ATTR
22 1
charge -1
@<TRIPOS>BOND
     1     1     2    1
     2     2     3   ar
     3     3     4   ar
     4     4     5   ar
     5     5     6   ar
     6     6     7   ar
     7     7     8   ar
     8     8     9    2
     9     8    10   ar
    10    10    14    1
    11    15    14    1
    12    15    16    1
    13    16    17    1
    14    17    18    1
    15    18    21    1
    16    21    22   ar
    17    21    23   ar
    18    18    19    1
    19    19    20    1
    20    10    11   ar
    21    11    12    2
    22    11    13   ar
    23    13    24    1
    24    24    25    1
    25    25    26   ar
    26    26    27   ar
    27    27    28   ar
    28    28    29   ar
    29    29    31    1
    30    31    32    1
    31    31    33    1
    32    31    34    1
    33    29    30   ar
    34    30    35    1
    35    35    36    3
    36     7     2   ar
    37    20    15    1
    38    30    25   ar
    39    13     6   ar
@<TRIPOS>MOLECULE
*****
 36 39 0 0 0
SMALL
GASTEIGER

@<TRIPOS>ATOM
      1 C           0.5022    0.3621   29.4741 C.3     1  UNL1        0.0312
      2 C           0.7041    0.6996   28.0266 C.ar    1  UNL1       -0.0159
      3 C          -0.4768    1.0223   27.1599 C.ar    1  UNL1       -0.0040
      4 C          -0.2749    1.3598   25.7124 C.ar    1  UNL1        0.0012
      5 C           1.1079    1.3746   25.1315 C.ar    1  UNL1        0.0175
      6 C           2.2889    1.0519   25.9982 C.ar    1  UNL1        0.0684
      7 C           2.0870    0.7144   27.4457 C.ar    1  UNL1        0.0682
      8 C           3.2680    0.3917   28.3124 C.ar    1  UNL1        0.2653
      9 O           3.0661    0.0542   29.7599 O.2     1  UNL1       -0.2668
     10 N           4.6509    0.4064   27.7316 N.ar    1  UNL1       -0.2487
     11 C           4.8528    0.7439   26.2840 C.ar    1  UNL1        0.3340
     12 O           6.2357    0.7587   25.7032 O.2     1  UNL1       -0.2462
     13 N           3.6718    1.0666   25.4174 N.ar    1  UNL1       -0.2769
     14 C           5.8319    0.0837   28.5983 C.3     1  UNL1        0.1135
     15 C           6.1335   -1.3418   28.9546 C.3     1  UNL1        0.0229
     16 C           6.6208   -1.6838   30.3314 C.3     1  UNL1        0.0023
     17 C           6.9224   -3.1093   30.6877 C.3     1  UNL1        0.0056
     18 C           6.7366   -4.1929   29.6671 C.3     1  UNL1        0.0365
     19 C           6.2493   -3.8509   28.2904 C.3     1  UNL1        0.0056
     20 C           5.9477   -2.4253   27.9341 C.3     1  UNL1        0.0023
     21 C           7.0381   -5.6184   30.0234 C.2     1  UNL1        0.0500
     22 O           7.5798   -6.5531   28.9828 O.co2   1  UNL1       -0.5492
     23 O           6.7980   -6.1092   31.4204 O.co2   1  UNL1       -0.5492
     24 C           3.8738    1.4041   23.9698 C.3     1  UNL1        0.1379
     25 C           3.6276    0.3654   22.9161 C.ar    1  UNL1        0.0101
     26 C           4.2070   -1.0098   23.0688 C.ar    1  UNL1       -0.0017
     27 C           3.9608   -2.0486   22.0151 C.ar    1  UNL1       -0.0003
     28 C           3.1354   -1.7122   20.8087 C.ar    1  UNL1        0.0045
     29 C           2.5561   -0.3371   20.6560 C.ar    1  UNL1        0.0808
     30 C           2.8022    0.7017   21.7097 C.ar    1  UNL1        0.0702
     31 C           1.7306   -0.0007   19.4495 C.3     1  UNL1        0.4192
     32 F           0.9052    0.3356   18.2431 F       1  UNL1       -0.1658
     33 F           2.9673    0.4468   18.7282 F       1  UNL1       -0.1658
     34 F           0.4940   -0.4483   20.1709 F       1  UNL1       -0.1658
     35 C           2.2229    2.0769   21.5570 C.1     1  UNL1        0.1001
     36 N           1.6435    3.4521   21.4042 N.1     1  UNL1       -0.1908
@<TRIPOS>UNITY_ATOM_ATTR
22 1
charge -1
@<TRIPOS>BOND
     1     1     2    1
     2     2     3   ar
     3     3     4   ar
     4     4     5   ar
     5     5     6   ar
     6     6     7   ar
     7     7     8   ar
     8     8     9    2
     9     8    10   ar
    10    10    14    1
    11    15    14    1
    12    15    16    1
    13    16    17    1
    14    17    18    1
    15    18    21    1
    16    21    22   ar
    17    21    23   ar
    18    18    19    1
    19    19    20    1
    20    10    11   ar
    21    11    12    2
    22    11    13   ar
    23    13    24    1
    24    24    25    1
    25    25    26   ar
    26    26    27   ar
    27    27    28   ar
    28    28    29   ar
    29    29    31    1
    30    31    32    1
    31    31    33    1
    32    31    34    1
    33    29    30   ar
    34    30    35    1
    35    35    36    3
    36     7     2   ar
    37    20    15    1
    38    30    25   ar
    39    13     6   ar
@<TRIPOS>MOLECULE
*****
 36 39 0 0 0
SMALL
GASTEIGER

@<TRIPOS>ATOM
      1 C          -4.8808    3.2723   21.8755 C.3     1  UNL1        0.0312
      2 C          -4.3377    3.4895   23.2568 C.ar    1  UNL1       -0.0159
      3 C          -5.2771    3.6754   24.4113 C.ar    1  UNL1       -0.0040
      4 C          -4.7341    3.8926   25.7926 C.ar    1  UNL1        0.0012
      5 C          -3.2517    3.9239   26.0193 C.ar    1  UNL1        0.0175
      6 C          -2.3123    3.7380   24.8648 C.ar    1  UNL1        0.0684
      7 C          -2.8553    3.5208   23.4835 C.ar    1  UNL1        0.0682
      8 C          -1.9159    3.3349   22.3289 C.ar    1  UNL1        0.2653
      9 O          -2.4589    3.1177   20.9477 O.2     1  UNL1       -0.2668
     10 N          -0.4335    3.3662   22.5557 N.ar    1  UNL1       -0.2487
     11 C           0.1095    3.5834   23.9370 C.ar    1  UNL1        0.3340
     12 O           1.5920    3.6147   24.1637 O.2     1  UNL1       -0.2462
     13 N          -0.8298    3.7693   25.0915 N.ar    1  UNL1       -0.2769
     14 C           0.5060    3.1803   21.4011 C.3     1  UNL1        0.1135
     15 C           1.2109    1.8699   21.2113 C.3     1  UNL1        0.0229
     16 C           2.6534    1.7313   21.5985 C.3     1  UNL1        0.0023
     17 C           3.3583    0.4209   21.4087 C.3     1  UNL1        0.0056
     18 C           2.6207   -0.7508   20.8317 C.3     1  UNL1        0.0365
     19 C           1.1782   -0.6122   20.4445 C.3     1  UNL1        0.0056
     20 C           0.4733    0.6982   20.6343 C.3     1  UNL1        0.0023
     21 C           3.3256   -2.0612   20.6418 C.2     1  UNL1        0.0500
     22 O           4.1555   -2.6341   21.7522 O.co2   1  UNL1       -0.5492
     23 O           3.2005   -2.7987   19.3416 O.co2   1  UNL1       -0.5492
     24 C          -0.2868    3.9865   26.4728 C.3     1  UNL1        0.1379
     25 C          -0.1627    2.8304   27.4203 C.ar    1  UNL1        0.0101
     26 C          -0.6873    1.4805   27.0292 C.ar    1  UNL1       -0.0017
     27 C          -0.5633    0.3244   27.9767 C.ar    1  UNL1       -0.0003
     28 C           0.0853    0.5179   29.3153 C.ar    1  UNL1        0.0045
     29 C           0.6099    1.8677   29.7064 C.ar    1  UNL1        0.0808
     30 C           0.4859    3.0239   28.7589 C.ar    1  UNL1        0.0702
     31 C           1.2585    2.0612   31.0450 C.3     1  UNL1        0.4192
     32 F           1.9071    2.2548   32.3836 F       1  UNL1       -0.1658
     33 F          -0.0758    2.3957   31.6432 F       1  UNL1       -0.1658
     34 F           2.5928    1.7268   30.4468 F       1  UNL1       -0.1658
     35 C           1.0105    4.3736   29.1499 C.1     1  UNL1        0.1001
     36 N           1.5351    5.7234   29.5411 N.1     1  UNL1       -0.1908
@<TRIPOS>UNITY_ATOM_ATTR
22 1
charge -1
@<TRIPOS>BOND
     1     1     2    1
     2     2     3   ar
     3     3     4   ar
     4     4     5   ar
     5     5     6   ar
     6     6     7   ar
     7     7     8   ar
     8     8     9    2
     9     8    10   ar
    10    10    14    1
    11    15    14    1
    12    15    16    1
    13    16    17    1
    14    17    18    1
    15    18    21    1
    16    21    22   ar
    17    21    23   ar
    18    18    19    1
    19    19    20    1
    20    10    11   ar
    21    11    12    2
    22    11    13   ar
    23    13    24    1
    24    24    25    1
    25    25    26   ar
    26    26    27   ar
    27    27    28   ar
    28    28    29   ar
    29    29    31    1
    30    31    32    1
    31    31    33    1
    32    31    34    1
    33    29    30   ar
    34    30    35    1
    35    35    36    3
    36     7     2   ar
    37    20    15    1
    38    30    25   ar
    39    13     6   ar
