@<TRIPOS>MOLECULE
*****
 18 18 0 0 0
SMALL
GASTEIGER

@<TRIPOS>ATOM
      1 S          -7.3894  -18.5699   20.8352 S.O2    1  UNL1        0.0877
      2 O          -6.5633  -18.0541   21.9761 O.2     1  UNL1       -0.1487
      3 O          -8.2155  -19.0857   19.6944 O.2     1  UNL1       -0.1487
      4 C         -11.0432  -18.5270   23.4616 C.ar    1  UNL1        0.1388
      5 C          -9.8497  -17.6935   23.8233 C.ar    1  UNL1        0.0383
      6 C          -8.6318  -17.7078   22.9479 C.ar    1  UNL1        0.0233
      7 C          -8.6073  -18.5556   21.7107 C.ar    1  UNL1        0.1268
      8 C          -9.8008  -19.3891   21.3490 C.ar    1  UNL1        0.0233
      9 C         -11.0187  -19.3748   22.2245 C.ar    1  UNL1        0.0383
     10 C         -13.5596  -17.9809   23.8070 C.3     1  UNL1        0.2525
     11 O         -12.2611  -18.5127   24.3371 O.3     1  UNL1       -0.4714
     12 N          -6.1715  -18.5842   19.9598 N.pl3   1  UNL1       -0.1360
     13 H          -6.2615  -18.4479   18.9889 H       1  UNL1        0.1966
     14 N          -4.8164  -18.8061   20.5635 N.2     1  UNL1       -0.1625
     15 C          -3.6286  -19.0352   19.6766 C.2     1  UNL1        0.1339
     16 C          -2.2734  -19.2571   20.2804 C.2     1  UNL1        0.0936
     17 O          -1.0585  -18.6567   19.6376 O.co2   1  UNL1       -0.5429
     18 O          -2.1334  -20.0795   21.5271 O.co2   1  UNL1       -0.5429
@<TRIPOS>UNITY_ATOM_ATTR
17 1
charge -1
@<TRIPOS>BOND
     1    10    11    1
     2    11     4    1
     3     4     5   ar
     4     5     6   ar
     5     6     7   ar
     6     7     1    1
     7     1     2    2
     8     1     3    2
     9     1    12    1
    10    12    14    1
    11    14    15    2
    12    15    16    1
    13    16    17   ar
    14    16    18   ar
    15     7     8   ar
    16     8     9   ar
    17     9     4   ar
    18    12    13    1
@<TRIPOS>MOLECULE
*****
 18 18 0 0 0
SMALL
GASTEIGER

@<TRIPOS>ATOM
      1 S          -7.3973  -18.6014   20.8139 S.O2    1  UNL1        0.0877
      2 O          -6.5415  -18.1472   21.9590 O.2     1  UNL1       -0.1487
      3 O          -8.2530  -19.0555   19.6687 O.2     1  UNL1       -0.1487
      4 C         -11.0178  -18.5144   23.4849 C.ar    1  UNL1        0.1388
      5 C         -11.0407  -19.3145   22.2163 C.ar    1  UNL1        0.0383
      6 C          -9.8339  -19.3434   21.3259 C.ar    1  UNL1        0.0233
      7 C          -8.6041  -18.5724   21.7042 C.ar    1  UNL1        0.1268
      8 C          -8.5812  -17.7724   22.9728 C.ar    1  UNL1        0.0233
      9 C          -9.7880  -17.7434   23.8632 C.ar    1  UNL1        0.0383
     10 C         -13.5411  -18.0072   23.8387 C.3     1  UNL1        0.2525
     11 O         -12.2246  -18.4855   24.3753 O.3     1  UNL1       -0.4714
     12 N          -6.1904  -18.6303   19.9235 N.pl3   1  UNL1       -0.1360
     13 H          -6.2976  -18.5675   18.9469 H       1  UNL1        0.1966
     14 N          -4.8203  -18.7550   20.5211 N.2     1  UNL1       -0.1625
     15 C          -3.6542  -19.1242   19.6530 C.2     1  UNL1        0.1339
     16 C          -2.2840  -19.2489   20.2507 C.2     1  UNL1        0.0936
     17 O          -1.1087  -18.6100   19.5721 O.co2   1  UNL1       -0.5429
     18 O          -2.0892  -20.0125   21.5270 O.co2   1  UNL1       -0.5429
@<TRIPOS>UNITY_ATOM_ATTR
17 1
charge -1
@<TRIPOS>BOND
     1    10    11    1
     2    11     4    1
     3     4     5   ar
     4     5     6   ar
     5     6     7   ar
     6     7     1    1
     7     1     2    2
     8     1     3    2
     9     1    12    1
    10    12    14    1
    11    14    15    2
    12    15    16    1
    13    16    17   ar
    14    16    18   ar
    15     7     8   ar
    16     8     9   ar
    17     9     4   ar
    18    12    13    1
@<TRIPOS>MOLECULE
*****
 18 18 0 0 0
SMALL
GASTEIGER

@<TRIPOS>ATOM
      1 S          -7.3426  -18.8438   21.7059 S.O2    1  UNL1        0.0877
      2 O          -7.3047  -17.4816   21.0790 O.2     1  UNL1       -0.1487
      3 O          -7.3805  -20.2060   22.3327 O.2     1  UNL1       -0.1487
      4 C          -2.9108  -19.2683   21.0514 C.ar    1  UNL1        0.1388
      5 C          -3.8707  -19.6807   19.9751 C.ar    1  UNL1        0.0383
      6 C          -5.3480  -19.5392   20.1933 C.ar    1  UNL1        0.0233
      7 C          -5.8653  -18.9853   21.4877 C.ar    1  UNL1        0.1268
      8 C          -4.9054  -18.5729   22.5639 C.ar    1  UNL1        0.0233
      9 C          -3.4281  -18.7144   22.3457 C.ar    1  UNL1        0.0383
     10 C          -0.6892  -18.3738   20.0441 C.3     1  UNL1        0.2525
     11 O          -1.4335  -19.4098   20.8332 O.3     1  UNL1       -0.4714
     12 N          -8.8199  -18.7023   21.9240 N.pl3   1  UNL1       -0.1360
     13 H          -9.3168  -19.4062   22.4003 H       1  UNL1        0.1966
     14 N          -9.5401  -17.4883   21.4165 N.2     1  UNL1       -0.1625
     15 C         -10.7152  -17.6431   20.4971 C.2     1  UNL1        0.1339
     16 C         -11.4354  -16.4290   19.9896 C.2     1  UNL1        0.0936
     17 O         -12.9067  -16.2724   20.2355 O.co2   1  UNL1       -0.5429
     18 O         -10.6841  -15.3717   19.2362 O.co2   1  UNL1       -0.5429
@<TRIPOS>UNITY_ATOM_ATTR
17 1
charge -1
@<TRIPOS>BOND
     1    10    11    1
     2    11     4    1
     3     4     5   ar
     4     5     6   ar
     5     6     7   ar
     6     7     1    1
     7     1     2    2
     8     1     3    2
     9     1    12    1
    10    12    14    1
    11    14    15    2
    12    15    16    1
    13    16    17   ar
    14    16    18   ar
    15     7     8   ar
    16     8     9   ar
    17     9     4   ar
    18    12    13    1
@<TRIPOS>MOLECULE
*****
 18 18 0 0 0
SMALL
GASTEIGER

@<TRIPOS>ATOM
      1 S          -6.6117  -19.4402   21.1541 S.O2    1  UNL1        0.0877
      2 O          -6.4000  -20.5638   22.1250 O.2     1  UNL1       -0.1487
      3 O          -6.8235  -18.3165   20.1832 O.2     1  UNL1       -0.1487
      4 C          -2.1603  -19.0771   20.6035 C.ar    1  UNL1        0.1388
      5 C          -2.7283  -19.3421   21.9662 C.ar    1  UNL1        0.0383
      6 C          -4.2121  -19.4631   22.1498 C.ar    1  UNL1        0.0233
      7 C          -5.1279  -19.3191   20.9706 C.ar    1  UNL1        0.1268
      8 C          -4.5599  -19.0541   19.6078 C.ar    1  UNL1        0.0233
      9 C          -3.0761  -18.9331   19.4243 C.ar    1  UNL1        0.0383
     10 C          -0.0830  -17.6648   19.9401 C.3     1  UNL1        0.2525
     11 O          -0.6765  -18.9560   20.4199 O.3     1  UNL1       -0.4714
     12 N          -8.0955  -19.5612   21.3376 N.pl3   1  UNL1       -0.1360
     13 H          -8.6285  -20.0912   20.7019 H       1  UNL1        0.1966
     14 N          -8.7672  -18.8746   22.4898 N.2     1  UNL1       -0.1625
     15 C          -9.7311  -19.6311   23.3550 C.2     1  UNL1        0.1339
     16 C         -10.4028  -18.9444   24.5072 C.2     1  UNL1        0.0936
     17 O         -11.8404  -18.5303   24.3988 O.co2   1  UNL1       -0.5429
     18 O          -9.6368  -18.6720   25.7678 O.co2   1  UNL1       -0.5429
@<TRIPOS>UNITY_ATOM_ATTR
17 1
charge -1
@<TRIPOS>BOND
     1    10    11    1
     2    11     4    1
     3     4     5   ar
     4     5     6   ar
     5     6     7   ar
     6     7     1    1
     7     1     2    2
     8     1     3    2
     9     1    12    1
    10    12    14    1
    11    14    15    2
    12    15    16    1
    13    16    17   ar
    14    16    18   ar
    15     7     8   ar
    16     8     9   ar
    17     9     4   ar
    18    12    13    1
@<TRIPOS>MOLECULE
*****
 18 18 0 0 0
SMALL
GASTEIGER

@<TRIPOS>ATOM
      1 S          -5.7968  -20.0883   20.3231 S.O2    1  UNL1        0.0877
      2 O          -5.4742  -18.6259   20.2365 O.2     1  UNL1       -0.1487
      3 O          -6.1194  -21.5506   20.4098 O.2     1  UNL1       -0.1487
      4 C         -10.1125  -19.0893   21.1148 C.ar    1  UNL1        0.1388
      5 C          -9.1498  -19.2153   22.2583 C.ar    1  UNL1        0.0383
      6 C          -7.7113  -19.5483   21.9943 C.ar    1  UNL1        0.0233
      7 C          -7.2353  -19.7553   20.5870 C.ar    1  UNL1        0.1268
      8 C          -8.1979  -19.6292   19.4436 C.ar    1  UNL1        0.0233
      9 C          -9.6365  -19.2962   19.7075 C.ar    1  UNL1        0.0383
     10 C         -12.0994  -17.4218   20.9685 C.3     1  UNL1        0.2525
     11 O         -11.5510  -18.7563   21.3787 O.3     1  UNL1       -0.4714
     12 N          -4.3582  -20.4212   20.0592 N.pl3   1  UNL1       -0.1360
     13 H          -4.0635  -21.3606   20.0531 H       1  UNL1        0.1966
     14 N          -3.3687  -19.3231   19.8047 N.2     1  UNL1       -0.1625
     15 C          -2.1208  -19.2314   20.6320 C.2     1  UNL1        0.1339
     16 C          -1.1312  -18.1331   20.3774 C.2     1  UNL1        0.0936
     17 O          -1.4598  -16.7224   20.7670 O.co2   1  UNL1       -0.5429
     18 O           0.1869  -18.4458   19.7332 O.co2   1  UNL1       -0.5429
@<TRIPOS>UNITY_ATOM_ATTR
17 1
charge -1
@<TRIPOS>BOND
     1    10    11    1
     2    11     4    1
     3     4     5   ar
     4     5     6   ar
     5     6     7   ar
     6     7     1    1
     7     1     2    2
     8     1     3    2
     9     1    12    1
    10    12    14    1
    11    14    15    2
    12    15    16    1
    13    16    17   ar
    14    16    18   ar
    15     7     8   ar
    16     8     9   ar
    17     9     4   ar
    18    12    13    1
@<TRIPOS>MOLECULE
*****
 18 18 0 0 0
SMALL
GASTEIGER

@<TRIPOS>ATOM
      1 S          -8.9717  -17.2694   22.1712 S.O2    1  UNL1        0.0877
      2 O          -9.5701  -17.2383   20.7961 O.2     1  UNL1       -0.1487
      3 O          -8.3734  -17.3005   23.5463 O.2     1  UNL1       -0.1487
      4 C         -13.0408  -18.0572   23.9239 C.ar    1  UNL1        0.1388
      5 C         -11.8360  -18.7550   24.4818 C.ar    1  UNL1        0.0383
      6 C         -10.4796  -18.4924   23.8976 C.ar    1  UNL1        0.0233
      7 C         -10.3281  -17.5320   22.7554 C.ar    1  UNL1        0.1268
      8 C         -11.5329  -16.8341   22.1975 C.ar    1  UNL1        0.0233
      9 C         -12.8893  -17.0967   22.7817 C.ar    1  UNL1        0.0383
     10 C         -14.5564  -18.4830   25.9906 C.3     1  UNL1        0.2525
     11 O         -14.3972  -18.3198   24.5081 O.3     1  UNL1       -0.4714
     12 N          -7.6154  -17.0068   21.5870 N.pl3   1  UNL1       -0.1360
     13 H          -7.4034  -16.1208   21.2135 H       1  UNL1        0.1966
     14 N          -6.5820  -18.0939   21.5717 N.2     1  UNL1       -0.1625
     15 C          -6.5249  -19.0583   20.4242 C.2     1  UNL1        0.1339
     16 C          -5.4914  -20.1455   20.4090 C.2     1  UNL1        0.0936
     17 O          -5.9006  -21.5656   20.1524 O.co2   1  UNL1       -0.5429
     18 O          -4.0489  -19.8125   20.6504 O.co2   1  UNL1       -0.5429
@<TRIPOS>UNITY_ATOM_ATTR
17 1
charge -1
@<TRIPOS>BOND
     1    10    11    1
     2    11     4    1
     3     4     5   ar
     4     5     6   ar
     5     6     7   ar
     6     7     1    1
     7     1     2    2
     8     1     3    2
     9     1    12    1
    10    12    14    1
    11    14    15    2
    12    15    16    1
    13    16    17   ar
    14    16    18   ar
    15     7     8   ar
    16     8     9   ar
    17     9     4   ar
    18    12    13    1
@<TRIPOS>MOLECULE
*****
 18 18 0 0 0
SMALL
GASTEIGER

@<TRIPOS>ATOM
      1 S          -6.7317  -19.4330   21.2033 S.O2    1  UNL1        0.0877
      2 O          -6.9204  -18.4352   20.0993 O.2     1  UNL1       -0.1487
      3 O          -6.5430  -20.4308   22.3073 O.2     1  UNL1       -0.1487
      4 C          -2.2676  -19.0289   20.8055 C.ar    1  UNL1        0.1388
      5 C          -3.1322  -19.0354   19.5799 C.ar    1  UNL1        0.0383
      6 C          -4.6202  -19.1701   19.7124 C.ar    1  UNL1        0.0233
      7 C          -5.2436  -19.2983   21.0707 C.ar    1  UNL1        0.1268
      8 C          -4.3790  -19.2918   22.2964 C.ar    1  UNL1        0.0233
      9 C          -2.8910  -19.1571   22.1638 C.ar    1  UNL1        0.0383
     10 C          -0.1965  -17.7582   19.8858 C.3     1  UNL1        0.2525
     11 O          -0.7795  -18.8942   20.6729 O.3     1  UNL1       -0.4714
     12 N          -8.2197  -19.5677   21.3359 N.pl3   1  UNL1       -0.1360
     13 H          -8.7120  -20.1873   20.7502 H       1  UNL1        0.1966
     14 N          -8.9577  -18.7585   22.3608 N.2     1  UNL1       -0.1625
     15 C          -9.3384  -17.3385   22.0631 C.2     1  UNL1        0.1339
     16 C         -10.0764  -16.5292   23.0880 C.2     1  UNL1        0.0936
     17 O         -11.5212  -16.1869   22.8752 O.co2   1  UNL1       -0.5429
     18 O          -9.3695  -16.0622   24.3259 O.co2   1  UNL1       -0.5429
@<TRIPOS>UNITY_ATOM_ATTR
17 1
charge -1
@<TRIPOS>BOND
     1    10    11    1
     2    11     4    1
     3     4     5   ar
     4     5     6   ar
     5     6     7   ar
     6     7     1    1
     7     1     2    2
     8     1     3    2
     9     1    12    1
    10    12    14    1
    11    14    15    2
    12    15    16    1
    13    16    17   ar
    14    16    18   ar
    15     7     8   ar
    16     8     9   ar
    17     9     4   ar
    18    12    13    1
@<TRIPOS>MOLECULE
*****
 18 18 0 0 0
SMALL
GASTEIGER

@<TRIPOS>ATOM
      1 S          -8.7096  -18.2399   22.1975 S.O2    1  UNL1        0.0877
      2 O          -8.4227  -19.4780   22.9942 O.2     1  UNL1       -0.1487
      3 O          -8.9966  -17.0018   21.4009 O.2     1  UNL1       -0.1487
      4 C         -12.9197  -18.1936   23.7861 C.ar    1  UNL1        0.1388
      5 C         -11.8226  -18.8294   24.5874 C.ar    1  UNL1        0.0383
      6 C         -10.4193  -18.8448   24.0579 C.ar    1  UNL1        0.0233
      7 C         -10.1130  -18.2245   22.7270 C.ar    1  UNL1        0.1268
      8 C         -11.2100  -17.5887   21.9257 C.ar    1  UNL1        0.0233
      9 C         -12.6134  -17.5732   22.4552 C.ar    1  UNL1        0.0383
     10 C         -14.5805  -18.4611   25.7659 C.3     1  UNL1        0.2525
     11 O         -14.3230  -18.1781   24.3156 O.3     1  UNL1       -0.4714
     12 N          -7.3063  -18.2553   21.6680 N.pl3   1  UNL1       -0.1360
     13 H          -7.0877  -18.7865   20.8684 H       1  UNL1        0.1966
     14 N          -6.2360  -17.4615   22.3567 N.2     1  UNL1       -0.1625
     15 C          -6.6001  -16.5044   23.4528 C.2     1  UNL1        0.1339
     16 C          -5.5298  -15.7106   24.1415 C.2     1  UNL1        0.0936
     17 O          -4.6686  -14.7696   23.3522 O.co2   1  UNL1       -0.5429
     18 O          -5.3206  -15.8578   25.6195 O.co2   1  UNL1       -0.5429
@<TRIPOS>UNITY_ATOM_ATTR
17 1
charge -1
@<TRIPOS>BOND
     1    10    11    1
     2    11     4    1
     3     4     5   ar
     4     5     6   ar
     5     6     7   ar
     6     7     1    1
     7     1     2    2
     8     1     3    2
     9     1    12    1
    10    12    14    1
    11    14    15    2
    12    15    16    1
    13    16    17   ar
    14    16    18   ar
    15     7     8   ar
    16     8     9   ar
    17     9     4   ar
    18    12    13    1
@<TRIPOS>MOLECULE
*****
 18 18 0 0 0
SMALL
GASTEIGER

@<TRIPOS>ATOM
      1 S          -6.3159  -17.4934   22.8126 S.O2    1  UNL1        0.0877
      2 O          -6.5452  -16.0591   23.1869 O.2     1  UNL1       -0.1487
      3 O          -6.0866  -18.9278   22.4383 O.2     1  UNL1       -0.1487
      4 C         -10.7534  -18.0831   22.3536 C.ar    1  UNL1        0.1388
      5 C         -10.1895  -16.6986   22.4758 C.ar    1  UNL1        0.0383
      6 C          -8.7103  -16.5020   22.6289 C.ar    1  UNL1        0.0233
      7 C          -7.7951  -17.6900   22.6596 C.ar    1  UNL1        0.1268
      8 C          -8.3590  -19.0745   22.5373 C.ar    1  UNL1        0.0233
      9 C          -9.8382  -19.2711   22.3843 C.ar    1  UNL1        0.0383
     10 C         -13.1643  -17.8400   23.2907 C.3     1  UNL1        0.2525
     11 O         -12.2326  -18.2797   22.2005 O.3     1  UNL1       -0.4714
     12 N          -4.8367  -17.2969   22.9656 N.pl3   1  UNL1       -0.1360
     13 H          -4.4903  -16.4813   23.3947 H       1  UNL1        0.1966
     14 N          -3.8854  -18.3429   22.4649 N.2     1  UNL1       -0.1625
     15 C          -2.7424  -17.9530   21.5751 C.2     1  UNL1        0.1339
     16 C          -1.7911  -18.9991   21.0744 C.2     1  UNL1        0.0936
     17 O          -1.9866  -20.4359   21.4580 O.co2   1  UNL1       -0.5429
     18 O          -0.6442  -18.6082   20.1902 O.co2   1  UNL1       -0.5429
@<TRIPOS>UNITY_ATOM_ATTR
17 1
charge -1
@<TRIPOS>BOND
     1    10    11    1
     2    11     4    1
     3     4     5   ar
     4     5     6   ar
     5     6     7   ar
     6     7     1    1
     7     1     2    2
     8     1     3    2
     9     1    12    1
    10    12    14    1
    11    14    15    2
    12    15    16    1
    13    16    17   ar
    14    16    18   ar
    15     7     8   ar
    16     8     9   ar
    17     9     4   ar
    18    12    13    1
