@<TRIPOS>MOLECULE
*****
 24 26 0 0 0
SMALL
GASTEIGER

@<TRIPOS>ATOM
      1 C          -3.4763  -18.1465   22.1340 C.3     1  UNL1        0.0952
      2 C          -3.6903  -17.0351   23.1183 C.3     1  UNL1        0.0245
      3 C          -5.0688  -16.7443   23.6332 C.3     1  UNL1        0.0067
      4 C          -6.2333  -17.5648   23.1636 C.3     1  UNL1        0.0263
      5 C          -6.0193  -18.6762   22.1792 C.ar    1  UNL1       -0.0216
      6 C          -7.1839  -19.4968   21.7096 C.ar    1  UNL1        0.0150
      7 C          -6.9699  -20.6081   20.7252 C.ar    1  UNL1        0.0985
      8 N          -5.5913  -20.8990   20.2104 N.ar    1  UNL1       -0.2426
      9 C          -4.4268  -20.0784   20.6800 C.ar    1  UNL1        0.0959
     10 C          -4.6408  -18.9670   21.6644 C.ar    1  UNL1        0.0107
     11 C          -8.5624  -19.2060   22.2244 C.ar    1  UNL1        0.0012
     12 C          -9.1190  -20.0007   23.3684 C.ar    1  UNL1        0.0007
     13 C         -10.4975  -19.7099   23.8832 C.ar    1  UNL1        0.0103
     14 C         -11.3195  -18.6243   23.2541 C.ar    1  UNL1        0.0684
     15 C         -10.7630  -17.8296   22.1101 C.ar    1  UNL1        0.0103
     16 C          -9.3845  -18.1204   21.5952 C.ar    1  UNL1        0.0007
     17 C         -12.6981  -18.3335   23.7689 C.1     1  UNL1        0.1004
     18 N         -14.0766  -18.0427   24.2837 N.1     1  UNL1       -0.1908
     19 C          -1.6719  -17.9150   20.2790 C.2     1  UNL1        0.2226
     20 O          -2.6247  -17.1020   19.4537 O.2     1  UNL1       -0.2751
     21 N          -2.0977  -18.4373   21.6191 N.am    1  UNL1       -0.3022
     22 H          -1.4724  -18.9709   22.1608 H       1  UNL1        0.1497
     23 C           0.8514  -17.3121   20.1396 C.3     1  UNL1        0.0101
     24 C          -0.2934  -18.2059   19.7642 C.3     1  UNL1        0.0851
@<TRIPOS>BOND
     1    23    24    1
     2    24    19    1
     3    19    20    2
     4    19    21   am
     5     1    21    1
     6     1     2    1
     7     2     3    1
     8     3     4    1
     9     4     5    1
    10     5     6   ar
    11     6    11    1
    12    11    12   ar
    13    12    13   ar
    14    13    14   ar
    15    14    17    1
    16    17    18    3
    17    14    15   ar
    18    15    16   ar
    19     6     7   ar
    20     7     8   ar
    21     8     9   ar
    22     9    10   ar
    23    10     1    1
    24    10     5   ar
    25    16    11   ar
    26    21    22    1
@<TRIPOS>MOLECULE
*****
 24 26 0 0 0
SMALL
GASTEIGER

@<TRIPOS>ATOM
      1 C         -10.1244  -17.1578   22.9741 C.3     1  UNL1        0.0952
      2 C          -9.2945  -16.2697   23.8529 C.3     1  UNL1        0.0245
      3 C          -7.8014  -16.2566   23.7098 C.3     1  UNL1        0.0067
      4 C          -7.1382  -17.1318   22.6879 C.3     1  UNL1        0.0263
      5 C          -7.9682  -18.0199   21.8091 C.ar    1  UNL1       -0.0216
      6 C          -7.3050  -18.8951   20.7871 C.ar    1  UNL1        0.0150
      7 C          -8.1350  -19.7832   19.9083 C.ar    1  UNL1        0.0985
      8 N          -9.6281  -19.7962   20.0514 N.ar    1  UNL1       -0.2426
      9 C         -10.2912  -18.9211   21.0733 C.ar    1  UNL1        0.0959
     10 C          -9.4613  -18.0329   21.9522 C.ar    1  UNL1        0.0107
     11 C          -5.8119  -18.8821   20.6440 C.ar    1  UNL1        0.0012
     12 C          -4.9430  -19.2237   21.8179 C.ar    1  UNL1        0.0007
     13 C          -3.4499  -19.2107   21.6748 C.ar    1  UNL1        0.0103
     14 C          -2.8257  -18.8560   20.3578 C.ar    1  UNL1        0.0684
     15 C          -3.6947  -18.5144   19.1838 C.ar    1  UNL1        0.0103
     16 C          -5.1878  -18.5274   19.3269 C.ar    1  UNL1        0.0007
     17 C          -1.3326  -18.8430   20.2147 C.1     1  UNL1        0.1004
     18 N           0.1605  -18.8300   20.0716 N.1     1  UNL1       -0.1908
     19 C         -12.2746  -18.1603   24.0332 C.2     1  UNL1        0.2226
     20 O         -11.4385  -19.1369   24.8062 O.2     1  UNL1       -0.2751
     21 N         -11.6175  -17.1708   23.1172 N.am    1  UNL1       -0.3022
     22 H         -12.1662  -16.5299   22.6099 H       1  UNL1        0.1497
     23 C         -14.3913  -18.4957   25.5020 C.3     1  UNL1        0.0101
     24 C         -13.7677  -18.1733   24.1763 C.3     1  UNL1        0.0851
@<TRIPOS>BOND
     1    23    24    1
     2    24    19    1
     3    19    20    2
     4    19    21   am
     5     1    21    1
     6     1     2    1
     7     2     3    1
     8     3     4    1
     9     4     5    1
    10     5     6   ar
    11     6    11    1
    12    11    12   ar
    13    12    13   ar
    14    13    14   ar
    15    14    17    1
    16    17    18    3
    17    14    15   ar
    18    15    16   ar
    19     6     7   ar
    20     7     8   ar
    21     8     9   ar
    22     9    10   ar
    23    10     1    1
    24    10     5   ar
    25    16    11   ar
    26    21    22    1
@<TRIPOS>MOLECULE
*****
 24 26 0 0 0
SMALL
GASTEIGER

@<TRIPOS>ATOM
      1 C         -10.4418  -17.5442   23.4198 C.3     1  UNL1        0.0952
      2 C         -10.1566  -16.1829   22.8583 C.3     1  UNL1        0.0245
      3 C          -8.8574  -15.9179   22.1570 C.3     1  UNL1        0.0067
      4 C          -7.8434  -17.0144   22.0171 C.3     1  UNL1        0.0263
      5 C          -8.1286  -18.3757   22.5786 C.ar    1  UNL1       -0.0216
      6 C          -7.1146  -19.4722   22.4388 C.ar    1  UNL1        0.0150
      7 C          -7.3997  -20.8336   23.0003 C.ar    1  UNL1        0.0985
      8 N          -8.6989  -21.0985   23.7017 N.ar    1  UNL1       -0.2426
      9 C          -9.7130  -20.0021   23.8415 C.ar    1  UNL1        0.0959
     10 C          -9.4278  -18.6406   23.2800 C.ar    1  UNL1        0.0107
     11 C          -5.8154  -19.2073   21.7375 C.ar    1  UNL1        0.0012
     12 C          -5.7364  -19.3050   20.2428 C.ar    1  UNL1        0.0007
     13 C          -4.4372  -19.0401   19.5414 C.ar    1  UNL1        0.0103
     14 C          -3.2170  -18.6774   20.3348 C.ar    1  UNL1        0.0684
     15 C          -3.2959  -18.5797   21.8295 C.ar    1  UNL1        0.0103
     16 C          -4.5951  -18.8446   22.5309 C.ar    1  UNL1        0.0007
     17 C          -1.9178  -18.4125   19.6334 C.1     1  UNL1        0.1004
     18 N          -0.6186  -18.1475   18.9321 N.1     1  UNL1       -0.1908
     19 C         -13.0101  -17.9260   23.3302 C.2     1  UNL1        0.2226
     20 O         -12.9800  -17.7780   21.8378 O.2     1  UNL1       -0.2751
     21 N         -11.7410  -17.8091   24.1212 N.am    1  UNL1       -0.3022
     22 H         -11.7607  -17.9063   25.1007 H       1  UNL1        0.1497
     23 C         -14.3309  -18.3987   25.5170 C.3     1  UNL1        0.0101
     24 C         -14.3093  -18.1910   24.0316 C.3     1  UNL1        0.0851
@<TRIPOS>BOND
     1    23    24    1
     2    24    19    1
     3    19    20    2
     4    19    21   am
     5     1    21    1
     6     1     2    1
     7     2     3    1
     8     3     4    1
     9     4     5    1
    10     5     6   ar
    11     6    11    1
    12    11    12   ar
    13    12    13   ar
    14    13    14   ar
    15    14    17    1
    16    17    18    3
    17    14    15   ar
    18    15    16   ar
    19     6     7   ar
    20     7     8   ar
    21     8     9   ar
    22     9    10   ar
    23    10     1    1
    24    10     5   ar
    25    16    11   ar
    26    21    22    1
@<TRIPOS>MOLECULE
*****
 24 26 0 0 0
SMALL
GASTEIGER

@<TRIPOS>ATOM
      1 C          -9.3328  -18.0848   22.9567 C.3     1  UNL1        0.0952
      2 C          -8.6441  -17.1799   23.9348 C.3     1  UNL1        0.0245
      3 C          -7.1652  -16.9513   23.8321 C.3     1  UNL1        0.0067
      4 C          -6.3750  -17.6277   22.7514 C.3     1  UNL1        0.0263
      5 C          -7.0637  -18.5327   21.7733 C.ar    1  UNL1       -0.0216
      6 C          -6.2734  -19.2091   20.6926 C.ar    1  UNL1        0.0150
      7 C          -6.9621  -20.1141   19.7145 C.ar    1  UNL1        0.0985
      8 N          -8.4410  -20.3426   19.8171 N.ar    1  UNL1       -0.2426
      9 C          -9.2313  -19.6662   20.8978 C.ar    1  UNL1        0.0959
     10 C          -8.5426  -18.7612   21.8760 C.ar    1  UNL1        0.0107
     11 C          -4.7945  -18.9805   20.5899 C.ar    1  UNL1        0.0012
     12 C          -4.2094  -18.4088   19.3327 C.ar    1  UNL1        0.0007
     13 C          -2.7305  -18.1802   19.2301 C.ar    1  UNL1        0.0103
     14 C          -1.8366  -18.5234   20.3847 C.ar    1  UNL1        0.0684
     15 C          -2.4217  -19.0952   21.6420 C.ar    1  UNL1        0.0103
     16 C          -3.9006  -19.3238   21.7447 C.ar    1  UNL1        0.0007
     17 C          -0.3577  -18.2948   20.2821 C.1     1  UNL1        0.1004
     18 N           1.1212  -18.0663   20.1795 N.1     1  UNL1       -0.1908
     19 C         -11.7681  -17.2457   22.6175 C.2     1  UNL1        0.2226
     20 O         -11.2456  -15.9492   22.0731 O.2     1  UNL1       -0.2751
     21 N         -10.8118  -18.3134   23.0593 N.am    1  UNL1       -0.3022
     22 H         -11.1547  -19.1643   23.4166 H       1  UNL1        0.1497
     23 C         -13.8325  -18.0432   23.9786 C.3     1  UNL1        0.0101
     24 C         -13.2470  -17.4742   22.7201 C.3     1  UNL1        0.0851
@<TRIPOS>BOND
     1    23    24    1
     2    24    19    1
     3    19    20    2
     4    19    21   am
     5     1    21    1
     6     1     2    1
     7     2     3    1
     8     3     4    1
     9     4     5    1
    10     5     6   ar
    11     6    11    1
    12    11    12   ar
    13    12    13   ar
    14    13    14   ar
    15    14    17    1
    16    17    18    3
    17    14    15   ar
    18    15    16   ar
    19     6     7   ar
    20     7     8   ar
    21     8     9   ar
    22     9    10   ar
    23    10     1    1
    24    10     5   ar
    25    16    11   ar
    26    21    22    1
@<TRIPOS>MOLECULE
*****
 24 26 0 0 0
SMALL
GASTEIGER

@<TRIPOS>ATOM
      1 C          -9.8197  -18.2928   23.3418 C.3     1  UNL1        0.0952
      2 C          -9.6963  -19.3516   22.2865 C.3     1  UNL1        0.0245
      3 C          -8.3718  -19.6050   21.6296 C.3     1  UNL1        0.0067
      4 C          -7.1707  -18.7997   22.0281 C.3     1  UNL1        0.0263
      5 C          -7.2942  -17.7409   23.0834 C.ar    1  UNL1       -0.0216
      6 C          -6.0931  -16.9355   23.4819 C.ar    1  UNL1        0.0150
      7 C          -6.2165  -15.8767   24.5372 C.ar    1  UNL1        0.0985
      8 N          -7.5410  -15.6233   25.1940 N.ar    1  UNL1       -0.2426
      9 C          -8.7421  -16.4286   24.7956 C.ar    1  UNL1        0.0959
     10 C          -8.6187  -17.4875   23.7402 C.ar    1  UNL1        0.0107
     11 C          -4.7686  -17.1889   22.8250 C.ar    1  UNL1        0.0012
     12 C          -3.7870  -16.0669   22.6586 C.ar    1  UNL1        0.0007
     13 C          -2.4625  -16.3204   22.0017 C.ar    1  UNL1        0.0103
     14 C          -2.1195  -17.6958   21.5113 C.ar    1  UNL1        0.0684
     15 C          -3.1011  -18.8179   21.6778 C.ar    1  UNL1        0.0103
     16 C          -4.4256  -18.5644   22.3346 C.ar    1  UNL1        0.0007
     17 C          -0.7950  -17.9492   20.8545 C.1     1  UNL1        0.1004
     18 N           0.5295  -18.2027   20.1976 N.1     1  UNL1       -0.1908
     19 C         -12.3905  -17.9598   23.1677 C.2     1  UNL1        0.2226
     20 O         -12.3123  -18.1338   21.6798 O.2     1  UNL1       -0.2751
     21 N         -11.1443  -18.0394   23.9986 N.am    1  UNL1       -0.3022
     22 H         -11.1956  -17.9252   24.9751 H       1  UNL1        0.1497
     23 C         -14.0815  -18.4393   25.0810 C.3     1  UNL1        0.0101
     24 C         -13.7150  -17.7064   23.8245 C.3     1  UNL1        0.0851
@<TRIPOS>BOND
     1    23    24    1
     2    24    19    1
     3    19    20    2
     4    19    21   am
     5     1    21    1
     6     1     2    1
     7     2     3    1
     8     3     4    1
     9     4     5    1
    10     5     6   ar
    11     6    11    1
    12    11    12   ar
    13    12    13   ar
    14    13    14   ar
    15    14    17    1
    16    17    18    3
    17    14    15   ar
    18    15    16   ar
    19     6     7   ar
    20     7     8   ar
    21     8     9   ar
    22     9    10   ar
    23    10     1    1
    24    10     5   ar
    25    16    11   ar
    26    21    22    1
@<TRIPOS>MOLECULE
*****
 24 26 0 0 0
SMALL
GASTEIGER

@<TRIPOS>ATOM
      1 C         -11.0202  -18.2502   22.0345 C.3     1  UNL1        0.0952
      2 C         -10.9084  -19.1551   20.8435 C.3     1  UNL1        0.0245
      3 C          -9.5583  -19.5052   20.2916 C.3     1  UNL1        0.0067
      4 C          -8.3199  -18.9505   20.9308 C.3     1  UNL1        0.0263
      5 C          -8.4316  -18.0456   22.1218 C.ar    1  UNL1       -0.0216
      6 C          -7.1932  -17.4908   22.7611 C.ar    1  UNL1        0.0150
      7 C          -7.3049  -16.5859   23.9521 C.ar    1  UNL1        0.0985
      8 N          -8.6550  -16.2358   24.5040 N.ar    1  UNL1       -0.2426
      9 C          -9.8934  -16.7905   23.8648 C.ar    1  UNL1        0.0959
     10 C          -9.7818  -17.6954   22.6737 C.ar    1  UNL1        0.0107
     11 C          -5.8431  -17.8410   22.2092 C.ar    1  UNL1        0.0012
     12 C          -5.7338  -18.6141   20.9285 C.ar    1  UNL1        0.0007
     13 C          -4.3837  -18.9643   20.3766 C.ar    1  UNL1        0.0103
     14 C          -3.1428  -18.5413   21.1055 C.ar    1  UNL1        0.0684
     15 C          -3.2520  -17.7681   22.3862 C.ar    1  UNL1        0.0103
     16 C          -4.6021  -17.4179   22.9381 C.ar    1  UNL1        0.0007
     17 C          -1.7927  -18.8915   20.5536 C.1     1  UNL1        0.1004
     18 N          -0.4426  -19.2416   20.0017 N.1     1  UNL1       -0.1908
     19 C         -12.7999  -18.4417   23.9175 C.2     1  UNL1        0.2226
     20 O         -11.8795  -19.3337   24.6968 O.2     1  UNL1       -0.2751
     21 N         -12.3703  -17.9000   22.5864 N.am    1  UNL1       -0.3022
     22 H         -12.9744  -17.3146   22.0749 H       1  UNL1        0.1497
     23 C         -14.5129  -18.4860   25.8704 C.3     1  UNL1        0.0101
     24 C         -14.1501  -18.0916   24.4694 C.3     1  UNL1        0.0851
@<TRIPOS>BOND
     1    23    24    1
     2    24    19    1
     3    19    20    2
     4    19    21   am
     5     1    21    1
     6     1     2    1
     7     2     3    1
     8     3     4    1
     9     4     5    1
    10     5     6   ar
    11     6    11    1
    12    11    12   ar
    13    12    13   ar
    14    13    14   ar
    15    14    17    1
    16    17    18    3
    17    14    15   ar
    18    15    16   ar
    19     6     7   ar
    20     7     8   ar
    21     8     9   ar
    22     9    10   ar
    23    10     1    1
    24    10     5   ar
    25    16    11   ar
    26    21    22    1
@<TRIPOS>MOLECULE
*****
 24 26 0 0 0
SMALL
GASTEIGER

@<TRIPOS>ATOM
      1 C           5.0141   -2.7663   23.9116 C.3     1  UNL1        0.0952
      2 C           4.7210   -1.5546   24.7457 C.3     1  UNL1        0.0245
      3 C           3.9386   -0.4148   24.1637 C.3     1  UNL1        0.0067
      4 C           3.4492   -0.4868   22.7477 C.3     1  UNL1        0.0263
      5 C           3.7422   -1.6985   21.9136 C.ar    1  UNL1       -0.0216
      6 C           3.2528   -1.7705   20.4974 C.ar    1  UNL1        0.0150
      7 C           3.5459   -2.9823   19.6634 C.ar    1  UNL1        0.0985
      8 N           4.3283   -4.1221   20.2453 N.ar    1  UNL1       -0.2426
      9 C           4.8177   -4.0501   21.6614 C.ar    1  UNL1        0.0959
     10 C           4.5247   -2.8383   22.4956 C.ar    1  UNL1        0.0107
     11 C           2.4704   -0.6307   19.9155 C.ar    1  UNL1        0.0012
     12 C           3.1165    0.2960   18.9288 C.ar    1  UNL1        0.0007
     13 C           2.3341    1.4358   18.3468 C.ar    1  UNL1        0.0103
     14 C           0.9056    1.6488   18.7515 C.ar    1  UNL1        0.0684
     15 C           0.2594    0.7221   19.7383 C.ar    1  UNL1        0.0103
     16 C           1.0418   -0.4177   20.3202 C.ar    1  UNL1        0.0007
     17 C           0.1231    2.7886   18.1695 C.1     1  UNL1        0.1004
     18 N          -0.6593    3.9284   17.5876 N.1     1  UNL1       -0.1908
     19 C           7.2819   -3.9740   24.2966 C.2     1  UNL1        0.2226
     20 O           7.9850   -2.9021   23.5177 O.2     1  UNL1       -0.2751
     21 N           5.7965   -3.9061   24.4936 N.am    1  UNL1       -0.3022
     22 H           5.3351   -4.6097   25.0048 H       1  UNL1        0.1497
     23 C           8.0455   -6.4558   24.2087 C.3     1  UNL1        0.0101
     24 C           8.0644   -5.1138   24.8786 C.3     1  UNL1        0.0851
@<TRIPOS>BOND
     1    23    24    1
     2    24    19    1
     3    19    20    2
     4    19    21   am
     5     1    21    1
     6     1     2    1
     7     2     3    1
     8     3     4    1
     9     4     5    1
    10     5     6   ar
    11     6    11    1
    12    11    12   ar
    13    12    13   ar
    14    13    14   ar
    15    14    17    1
    16    17    18    3
    17    14    15   ar
    18    15    16   ar
    19     6     7   ar
    20     7     8   ar
    21     8     9   ar
    22     9    10   ar
    23    10     1    1
    24    10     5   ar
    25    16    11   ar
    26    21    22    1
@<TRIPOS>MOLECULE
*****
 24 26 0 0 0
SMALL
GASTEIGER

@<TRIPOS>ATOM
      1 C          -5.6013  -18.8084   20.7124 C.3     1  UNL1        0.0952
      2 C          -5.2316  -18.3409   22.0888 C.3     1  UNL1        0.0245
      3 C          -6.2948  -18.1661   23.1324 C.3     1  UNL1        0.0067
      4 C          -7.7277  -18.4589   22.7996 C.3     1  UNL1        0.0263
      5 C          -8.0975  -18.9265   21.4231 C.ar    1  UNL1       -0.0216
      6 C          -9.5305  -19.2193   21.0902 C.ar    1  UNL1        0.0150
      7 C          -9.9003  -19.6868   19.7137 C.ar    1  UNL1        0.0985
      8 N          -8.8371  -19.8615   18.6702 N.ar    1  UNL1       -0.2426
      9 C          -7.4041  -19.5688   19.0030 C.ar    1  UNL1        0.0959
     10 C          -7.0343  -19.1012   20.3795 C.ar    1  UNL1        0.0107
     11 C         -10.5937  -19.0445   22.1338 C.ar    1  UNL1        0.0012
     12 C         -11.7762  -18.1634   21.8595 C.ar    1  UNL1        0.0007
     13 C         -12.8394  -17.9887   22.9031 C.ar    1  UNL1        0.0103
     14 C         -12.7201  -18.6951   24.2209 C.ar    1  UNL1        0.0684
     15 C         -11.5376  -19.5762   24.4953 C.ar    1  UNL1        0.0103
     16 C         -10.4744  -19.7510   23.4517 C.ar    1  UNL1        0.0007
     17 C         -13.7833  -18.5203   25.2645 C.1     1  UNL1        0.1004
     18 N         -14.8465  -18.3456   26.3081 N.1     1  UNL1       -0.1908
     19 C          -3.2157  -18.2921   19.8224 C.2     1  UNL1        0.2226
     20 O          -2.9564  -17.4262   21.0195 O.2     1  UNL1       -0.2751
     21 N          -4.5381  -18.9832   19.6688 N.am    1  UNL1       -0.3022
     22 H          -4.7083  -19.5514   18.8831 H       1  UNL1        0.1497
     23 C          -0.8246  -17.7880   18.9399 C.3     1  UNL1        0.0101
     24 C          -2.1525  -18.4668   18.7788 C.3     1  UNL1        0.0851
@<TRIPOS>BOND
     1    23    24    1
     2    24    19    1
     3    19    20    2
     4    19    21   am
     5     1    21    1
     6     1     2    1
     7     2     3    1
     8     3     4    1
     9     4     5    1
    10     5     6   ar
    11     6    11    1
    12    11    12   ar
    13    12    13   ar
    14    13    14   ar
    15    14    17    1
    16    17    18    3
    17    14    15   ar
    18    15    16   ar
    19     6     7   ar
    20     7     8   ar
    21     8     9   ar
    22     9    10   ar
    23    10     1    1
    24    10     5   ar
    25    16    11   ar
    26    21    22    1
@<TRIPOS>MOLECULE
*****
 24 26 0 0 0
SMALL
GASTEIGER

@<TRIPOS>ATOM
      1 C           7.4349   -6.3576   27.4739 C.3     1  UNL1        0.0952
      2 C           8.0180   -7.3922   26.5576 C.3     1  UNL1        0.0245
      3 C           8.0653   -7.1435   25.0791 C.3     1  UNL1        0.0067
      4 C           7.5295   -5.8602   24.5170 C.3     1  UNL1        0.0263
      5 C           6.9464   -4.8256   25.4332 C.ar    1  UNL1       -0.0216
      6 C           6.4106   -3.5423   24.8711 C.ar    1  UNL1        0.0150
      7 C           5.8275   -2.5077   25.7874 C.ar    1  UNL1        0.0985
      8 N           5.7802   -2.7564   27.2658 N.ar    1  UNL1       -0.2426
      9 C           6.3160   -4.0397   27.8280 C.ar    1  UNL1        0.0959
     10 C           6.8991   -5.0744   26.9117 C.ar    1  UNL1        0.0107
     11 C           6.4579   -3.2936   23.3926 C.ar    1  UNL1        0.0012
     12 C           5.2083   -3.4130   22.5716 C.ar    1  UNL1        0.0007
     13 C           5.2556   -3.1643   21.0931 C.ar    1  UNL1        0.0103
     14 C           6.5526   -2.7961   20.4356 C.ar    1  UNL1        0.0684
     15 C           7.8023   -2.6767   21.2566 C.ar    1  UNL1        0.0103
     16 C           7.7550   -2.9254   22.7351 C.ar    1  UNL1        0.0007
     17 C           6.5999   -2.5474   18.9571 C.1     1  UNL1        0.1004
     18 N           6.6472   -2.2987   17.4787 N.1     1  UNL1       -0.1908
     19 C           8.4380   -6.0167   29.8461 C.2     1  UNL1        0.2226
     20 O           9.5359   -5.1783   29.2614 O.2     1  UNL1       -0.2751
     21 N           7.3876   -6.6063   28.9524 N.am    1  UNL1       -0.3022
     22 H           6.6670   -7.1566   29.3362 H       1  UNL1        0.1497
     23 C           9.2538   -7.3302   31.9340 C.3     1  UNL1        0.0101
     24 C           8.3907   -6.2654   31.3246 C.3     1  UNL1        0.0851
@<TRIPOS>BOND
     1    23    24    1
     2    24    19    1
     3    19    20    2
     4    19    21   am
     5     1    21    1
     6     1     2    1
     7     2     3    1
     8     3     4    1
     9     4     5    1
    10     5     6   ar
    11     6    11    1
    12    11    12   ar
    13    12    13   ar
    14    13    14   ar
    15    14    17    1
    16    17    18    3
    17    14    15   ar
    18    15    16   ar
    19     6     7   ar
    20     7     8   ar
    21     8     9   ar
    22     9    10   ar
    23    10     1    1
    24    10     5   ar
    25    16    11   ar
    26    21    22    1
