@<TRIPOS>MOLECULE
*****
 40 43 0 0 0
SMALL
GASTEIGER

@<TRIPOS>ATOM
      1 N          -6.4606  -15.9806   23.6933 N.am    1  UNL1       -0.2528
      2 C          -5.0073  -15.9532   23.3231 C.2     1  UNL1        0.2697
      3 O          -4.1268  -14.8464   23.8229 O.2     1  UNL1       -0.2704
      4 C          -4.4344  -17.0326   22.4532 C.3     1  UNL1        0.2199
      5 C          -3.2069  -16.2002   22.6779 C.3     1  UNL1        0.0579
      6 O          -5.3148  -18.1393   21.9534 O.3     1  UNL1       -0.4686
      7 C          -6.7683  -18.1668   22.3235 C.ar    1  UNL1        0.1529
      8 C          -7.6487  -19.2736   21.8237 C.ar    1  UNL1        0.0382
      9 C          -9.1020  -19.3010   22.1939 C.ar    1  UNL1        0.0033
     10 C          -9.6749  -18.2216   23.0638 C.ar    1  UNL1        0.0053
     11 C          -8.7945  -17.1149   23.5636 C.ar    1  UNL1        0.0181
     12 C          -7.3411  -17.0874   23.1935 C.ar    1  UNL1        0.0881
     13 C         -11.1283  -18.2491   23.4340 C.ar    1  UNL1        0.0449
     14 C         -11.5871  -19.0563   24.6121 C.ar    1  UNL1        0.1293
     15 N         -10.5925  -19.8360   25.4201 N.pl3   1  UNL1       -0.3425
     16 N         -13.0405  -19.0837   24.9822 N.ar    1  UNL1       -0.1995
     17 C         -14.0350  -18.3040   24.1742 C.ar    1  UNL1        0.2145
     18 N         -15.4884  -18.3314   24.5443 N.pl3   1  UNL1       -0.3274
     19 N         -13.5762  -17.4968   22.9961 N.ar    1  UNL1       -0.2183
     20 C         -12.1229  -17.4693   22.6260 C.ar    1  UNL1        0.0645
     21 H          -9.6386  -19.8180   25.1771 H       1  UNL1        0.1437
     22 H         -10.8937  -20.3658   26.1933 H       1  UNL1        0.1437
     23 H         -15.7895  -18.8612   25.3176 H       1  UNL1        0.1452
     24 H         -16.1411  -17.8196   24.0140 H       1  UNL1        0.1452
     25 C         -11.6640  -16.6621   21.4479 C.3     1  UNL1        0.0460
     26 C         -11.5652  -17.3005   20.0941 C.3     1  UNL1        0.0067
     27 C          -3.4353  -17.8228   21.6613 C.ar    1  UNL1        0.0264
     28 C          -3.7792  -19.2026   21.1836 C.ar    1  UNL1        0.0293
     29 C          -2.7800  -19.9929   20.3917 C.ar    1  UNL1        0.1422
     30 F          -3.1240  -21.3726   19.9141 F       1  UNL1       -0.2041
     31 C          -1.4369  -19.4035   20.0775 C.ar    1  UNL1        0.0592
     32 C          -1.0930  -18.0238   20.5552 C.ar    1  UNL1        0.1422
     33 F           0.2501  -17.4344   20.2409 F       1  UNL1       -0.2041
     34 C          -2.0922  -17.2335   21.3470 C.ar    1  UNL1        0.0293
     35 C          -7.0335  -14.9013   24.5632 C.3     1  UNL1        0.1010
     36 C          -6.3956  -14.5845   25.8834 C.3     1  UNL1        0.0539
     37 C          -5.9071  -15.6948   26.7659 C.3     1  UNL1        0.1439
     38 O          -6.8191  -16.2892   27.7978 O.3     1  UNL1       -0.3537
     39 C          -9.0579  -17.3067   26.9598 C.3     1  UNL1        0.0346
     40 C          -8.3065  -16.1940   27.6283 C.3     1  UNL1        0.1422
@<TRIPOS>BOND
     1    39    40    1
     2    40    38    1
     3    38    37    1
     4    37    36    1
     5    36    35    1
     6    35     1    1
     7     1     2   am
     8     2     3    2
     9     2     4    1
    10     4     5    1
    11     4    27    1
    12    27    28   ar
    13    28    29   ar
    14    29    30    1
    15    29    31   ar
    16    31    32   ar
    17    32    33    1
    18    32    34   ar
    19     4     6    1
    20     6     7    1
    21     7     8   ar
    22     8     9   ar
    23     9    10   ar
    24    10    13    1
    25    13    14   ar
    26    14    15    1
    27    14    16   ar
    28    16    17   ar
    29    17    18    1
    30    17    19   ar
    31    19    20   ar
    32    20    25    1
    33    25    26    1
    34    10    11   ar
    35    11    12   ar
    36    12     1    1
    37    34    27   ar
    38    12     7   ar
    39    20    13   ar
    40    15    21    1
    41    15    22    1
    42    18    23    1
    43    18    24    1
@<TRIPOS>MOLECULE
*****
 40 43 0 0 0
SMALL
GASTEIGER

@<TRIPOS>ATOM
      1 N           3.8742   -0.5979   25.5206 N.am    1  UNL1       -0.2528
      2 C           3.2230   -0.0942   24.2667 C.2     1  UNL1        0.2697
      3 O           2.2052    1.0053   24.3397 O.2     1  UNL1       -0.2704
      4 C           3.5894   -0.6901   22.9398 C.3     1  UNL1        0.2199
      5 C           2.5769    0.3249   22.4988 C.3     1  UNL1        0.0579
      6 O           4.6071   -1.7896   22.8668 O.3     1  UNL1       -0.4686
      7 C           5.2584   -2.2933   24.1207 C.ar    1  UNL1        0.1529
      8 C           6.2760   -3.3928   24.0476 C.ar    1  UNL1        0.0382
      9 C           6.9272   -3.8965   25.3015 C.ar    1  UNL1        0.0033
     10 C           6.5608   -3.3006   26.6284 C.ar    1  UNL1        0.0053
     11 C           5.5431   -2.2011   26.7014 C.ar    1  UNL1        0.0181
     12 C           4.8919   -1.6975   25.4476 C.ar    1  UNL1        0.0881
     13 C           7.2120   -3.8044   27.8823 C.ar    1  UNL1        0.0449
     14 C           6.7451   -5.0854   28.5074 C.ar    1  UNL1        0.1293
     15 N           5.6269   -5.8628   27.8787 N.pl3   1  UNL1       -0.3425
     16 N           7.3964   -5.5892   29.7613 N.ar    1  UNL1       -0.1995
     17 C           8.5146   -4.8118   30.3900 C.ar    1  UNL1        0.2145
     18 N           9.1658   -5.3154   31.6438 N.pl3   1  UNL1       -0.3274
     19 N           8.9815   -3.5306   29.7648 N.ar    1  UNL1       -0.2183
     20 C           8.3302   -3.0270   28.5110 C.ar    1  UNL1        0.0645
     21 H           5.1995   -5.5322   27.0557 H       1  UNL1        0.1437
     22 H           5.3205   -6.7037   28.2890 H       1  UNL1        0.1437
     23 H           8.8594   -6.1562   32.0541 H       1  UNL1        0.1452
     24 H           9.8997   -4.8052   32.0565 H       1  UNL1        0.1452
     25 C           8.7972   -1.7458   27.8858 C.3     1  UNL1        0.0460
     26 C           8.4103   -0.4302   28.4935 C.3     1  UNL1        0.0067
     27 C           3.6043   -0.9334   21.4598 C.ar    1  UNL1        0.0264
     28 C           3.5649   -2.3362   20.9299 C.ar    1  UNL1        0.0293
     29 C           3.5798   -2.5796   19.4498 C.ar    1  UNL1        0.1422
     30 F           3.5405   -3.9823   18.9200 F       1  UNL1       -0.2041
     31 C           3.6339   -1.4202   18.4997 C.ar    1  UNL1        0.0592
     32 C           3.6732   -0.0174   19.0295 C.ar    1  UNL1        0.1422
     33 F           3.7273    1.1420   18.0793 F       1  UNL1       -0.2041
     34 C           3.6584    0.2259   20.5095 C.ar    1  UNL1        0.0293
     35 C           3.5077   -0.0021   26.8475 C.3     1  UNL1        0.1010
     36 C           2.4449   -0.6434   27.6898 C.3     1  UNL1        0.0539
     37 C           2.3619   -0.3351   29.1554 C.3     1  UNL1        0.1439
     38 O           1.0303   -0.3268   29.8458 O.3     1  UNL1       -0.3537
     39 C          -1.3371   -0.4864   28.7877 C.3     1  UNL1        0.0346
     40 C          -0.1484    0.3333   29.1939 C.3     1  UNL1        0.1422
@<TRIPOS>BOND
     1    39    40    1
     2    40    38    1
     3    38    37    1
     4    37    36    1
     5    36    35    1
     6    35     1    1
     7     1     2   am
     8     2     3    2
     9     2     4    1
    10     4     5    1
    11     4    27    1
    12    27    28   ar
    13    28    29   ar
    14    29    30    1
    15    29    31   ar
    16    31    32   ar
    17    32    33    1
    18    32    34   ar
    19     4     6    1
    20     6     7    1
    21     7     8   ar
    22     8     9   ar
    23     9    10   ar
    24    10    13    1
    25    13    14   ar
    26    14    15    1
    27    14    16   ar
    28    16    17   ar
    29    17    18    1
    30    17    19   ar
    31    19    20   ar
    32    20    25    1
    33    25    26    1
    34    10    11   ar
    35    11    12   ar
    36    12     1    1
    37    34    27   ar
    38    12     7   ar
    39    20    13   ar
    40    15    21    1
    41    15    22    1
    42    18    23    1
    43    18    24    1
@<TRIPOS>MOLECULE
*****
 40 43 0 0 0
SMALL
GASTEIGER

@<TRIPOS>ATOM
      1 N          -1.7845    3.7363   24.5132 N.am    1  UNL1       -0.2528
      2 C          -1.9657    3.6936   23.0249 C.2     1  UNL1        0.2697
      3 O          -3.1102    4.4244   22.3874 O.2     1  UNL1       -0.2704
      4 C          -1.0026    2.9202   22.1739 C.3     1  UNL1        0.2199
      5 C          -1.9236    3.4457   21.1130 C.3     1  UNL1        0.0579
      6 O           0.1418    2.1895   22.8113 O.3     1  UNL1       -0.4686
      7 C           0.3231    2.2321   24.2997 C.ar    1  UNL1        0.1529
      8 C           1.4675    1.5014   24.9371 C.ar    1  UNL1        0.0382
      9 C           1.6488    1.5441   26.4255 C.ar    1  UNL1        0.0033
     10 C           0.6857    2.3175   27.2764 C.ar    1  UNL1        0.0053
     11 C          -0.4587    3.0483   26.6390 C.ar    1  UNL1        0.0181
     12 C          -0.6400    3.0056   25.1507 C.ar    1  UNL1        0.0881
     13 C           0.8670    2.3602   28.7649 C.ar    1  UNL1        0.0449
     14 C           1.4916    3.5616   29.4102 C.ar    1  UNL1        0.1293
     15 N           1.9350    4.7203   28.5671 N.pl3   1  UNL1       -0.3425
     16 N           1.6729    3.6043   30.8986 N.ar    1  UNL1       -0.1995
     17 C           1.2296    2.4455   31.7417 C.ar    1  UNL1        0.2145
     18 N           1.4109    2.4881   33.2300 N.pl3   1  UNL1       -0.3274
     19 N           0.6049    1.2441   31.0963 N.ar    1  UNL1       -0.2183
     20 C           0.4236    1.2015   29.6079 C.ar    1  UNL1        0.0645
     21 H           1.8160    4.6924   27.5903 H       1  UNL1        0.1437
     22 H           2.3449    5.5088   28.9907 H       1  UNL1        0.1437
     23 H           1.8208    3.2766   33.6536 H       1  UNL1        0.1452
     24 H           1.1199    1.7276   33.7834 H       1  UNL1        0.1452
     25 C          -0.2010    0.0000   28.9625 C.3     1  UNL1        0.0460
     26 C          -1.6865   -0.1984   29.0265 C.3     1  UNL1        0.0067
     27 C          -0.3593    2.3293   20.9545 C.ar    1  UNL1        0.0264
     28 C          -0.2496    3.1398   19.6970 C.ar    1  UNL1        0.0293
     29 C           0.3937    2.5488   18.4775 C.ar    1  UNL1        0.1422
     30 F           0.5033    3.3593   17.2202 F       1  UNL1       -0.2041
     31 C           0.9273    1.1475   18.5156 C.ar    1  UNL1        0.0592
     32 C           0.8176    0.3371   19.7730 C.ar    1  UNL1        0.1422
     33 F           1.3512   -1.0643   19.8110 F       1  UNL1       -0.2041
     34 C           0.1743    0.9280   20.9924 C.ar    1  UNL1        0.0293
     35 C          -2.7476    4.5098   25.3642 C.3     1  UNL1        0.1010
     36 C          -4.0412    3.8824   25.7923 C.3     1  UNL1        0.0539
     37 C          -5.2335    4.7453   26.0818 C.3     1  UNL1        0.1439
     38 O          -6.4271    4.7043   25.1743 O.3     1  UNL1       -0.3537
     39 C          -7.0406    4.2689   22.6876 C.3     1  UNL1        0.0346
     40 C          -6.2760    5.0422   23.7207 C.3     1  UNL1        0.1422
@<TRIPOS>BOND
     1    39    40    1
     2    40    38    1
     3    38    37    1
     4    37    36    1
     5    36    35    1
     6    35     1    1
     7     1     2   am
     8     2     3    2
     9     2     4    1
    10     4     5    1
    11     4    27    1
    12    27    28   ar
    13    28    29   ar
    14    29    30    1
    15    29    31   ar
    16    31    32   ar
    17    32    33    1
    18    32    34   ar
    19     4     6    1
    20     6     7    1
    21     7     8   ar
    22     8     9   ar
    23     9    10   ar
    24    10    13    1
    25    13    14   ar
    26    14    15    1
    27    14    16   ar
    28    16    17   ar
    29    17    18    1
    30    17    19   ar
    31    19    20   ar
    32    20    25    1
    33    25    26    1
    34    10    11   ar
    35    11    12   ar
    36    12     1    1
    37    34    27   ar
    38    12     7   ar
    39    20    13   ar
    40    15    21    1
    41    15    22    1
    42    18    23    1
    43    18    24    1
@<TRIPOS>MOLECULE
*****
 40 43 0 0 0
SMALL
GASTEIGER

@<TRIPOS>ATOM
      1 N           1.2203    1.1802   23.3861 N.am    1  UNL1       -0.2528
      2 C           1.6108    0.5766   22.0696 C.2     1  UNL1        0.2697
      3 O           0.9638    1.0553   20.8037 O.2     1  UNL1       -0.2704
      4 C           2.6482   -0.5056   22.0189 C.3     1  UNL1        0.2199
      5 C           2.3221   -0.3887   20.5594 C.3     1  UNL1        0.0579
      6 O           3.2951   -0.9844   23.2847 O.3     1  UNL1       -0.4686
      7 C           2.9047   -0.3808   24.6013 C.ar    1  UNL1        0.1529
      8 C           3.5516   -0.8595   25.8671 C.ar    1  UNL1        0.0382
      9 C           3.1612   -0.2559   27.1836 C.ar    1  UNL1        0.0033
     10 C           2.1238    0.8263   27.2343 C.ar    1  UNL1        0.0053
     11 C           1.4769    1.3050   25.9685 C.ar    1  UNL1        0.0181
     12 C           1.8673    0.7015   24.6520 C.ar    1  UNL1        0.0881
     13 C           1.7334    1.4299   28.5509 C.ar    1  UNL1        0.0449
     14 C           2.5376    2.5573   29.1270 C.ar    1  UNL1        0.1293
     15 N           3.7323    3.0813   28.3867 N.pl3   1  UNL1       -0.3425
     16 N           2.1472    3.1609   30.4437 N.ar    1  UNL1       -0.1995
     17 C           0.9525    2.6369   31.1840 C.ar    1  UNL1        0.2145
     18 N           0.5621    3.2404   32.5006 N.pl3   1  UNL1       -0.3274
     19 N           0.1482    1.5094   30.6078 N.ar    1  UNL1       -0.2183
     20 C           0.5387    0.9059   29.2913 C.ar    1  UNL1        0.0645
     21 H           3.9886    2.6852   27.5226 H       1  UNL1        0.1437
     22 H           4.2602    3.8213   28.7648 H       1  UNL1        0.1437
     23 H           1.0899    3.9804   32.8787 H       1  UNL1        0.1452
     24 H          -0.2221    2.8965   32.9865 H       1  UNL1        0.1452
     25 C          -0.2656   -0.2216   28.7151 C.3     1  UNL1        0.0460
     26 C          -1.7111   -0.3770   29.0844 C.3     1  UNL1        0.0067
     27 C           3.5723   -1.5473   21.4614 C.ar    1  UNL1        0.0264
     28 C           4.3330   -2.4486   22.3883 C.ar    1  UNL1        0.0293
     29 C           5.2572   -3.4902   21.8307 C.ar    1  UNL1        0.1422
     30 F           6.0179   -4.3914   22.7576 F       1  UNL1       -0.2041
     31 C           5.4207   -3.6306   20.3463 C.ar    1  UNL1        0.0592
     32 C           4.6599   -2.7294   19.4194 C.ar    1  UNL1        0.1422
     33 F           4.8234   -2.8698   17.9349 F       1  UNL1       -0.2041
     34 C           3.7358   -1.6877   19.9770 C.ar    1  UNL1        0.0293
     35 C           0.1830    2.2624   23.4368 C.3     1  UNL1        0.1010
     36 C           0.5938    3.7009   23.3259 C.3     1  UNL1        0.0539
     37 C           0.5683    4.5837   24.5383 C.3     1  UNL1        0.1439
     38 O          -0.7147    4.7937   25.2864 O.3     1  UNL1       -0.3537
     39 C          -1.6098    2.9154   26.8422 C.3     1  UNL1        0.0346
     40 C          -0.8852    4.2160   26.6601 C.3     1  UNL1        0.1422
@<TRIPOS>BOND
     1    39    40    1
     2    40    38    1
     3    38    37    1
     4    37    36    1
     5    36    35    1
     6    35     1    1
     7     1     2   am
     8     2     3    2
     9     2     4    1
    10     4     5    1
    11     4    27    1
    12    27    28   ar
    13    28    29   ar
    14    29    30    1
    15    29    31   ar
    16    31    32   ar
    17    32    33    1
    18    32    34   ar
    19     4     6    1
    20     6     7    1
    21     7     8   ar
    22     8     9   ar
    23     9    10   ar
    24    10    13    1
    25    13    14   ar
    26    14    15    1
    27    14    16   ar
    28    16    17   ar
    29    17    18    1
    30    17    19   ar
    31    19    20   ar
    32    20    25    1
    33    25    26    1
    34    10    11   ar
    35    11    12   ar
    36    12     1    1
    37    34    27   ar
    38    12     7   ar
    39    20    13   ar
    40    15    21    1
    41    15    22    1
    42    18    23    1
    43    18    24    1
@<TRIPOS>MOLECULE
*****
 40 43 0 0 0
SMALL
GASTEIGER

@<TRIPOS>ATOM
      1 N           5.1798   -1.6477   25.7641 N.am    1  UNL1       -0.2528
      2 C           5.5951   -2.4533   24.5690 C.2     1  UNL1        0.2697
      3 O           6.7934   -3.3520   24.6498 O.2     1  UNL1       -0.2704
      4 C           4.8121   -2.3603   23.2929 C.3     1  UNL1        0.2199
      5 C           5.8656   -3.3454   22.8809 C.3     1  UNL1        0.0579
      6 O           3.6139   -1.4616   23.2120 O.3     1  UNL1       -0.4686
      7 C           3.1985   -0.6560   24.4072 C.ar    1  UNL1        0.1529
      8 C           2.0003    0.2427   24.3263 C.ar    1  UNL1        0.0382
      9 C           1.5850    1.0483   25.5215 C.ar    1  UNL1        0.0033
     10 C           2.3679    0.9552   26.7976 C.ar    1  UNL1        0.0053
     11 C           3.5662    0.0566   26.8785 C.ar    1  UNL1        0.0181
     12 C           3.9815   -0.7490   25.6833 C.ar    1  UNL1        0.0881
     13 C           1.9526    1.7609   27.9928 C.ar    1  UNL1        0.0449
     14 C           2.5362    3.1242   28.2180 C.ar    1  UNL1        0.1293
     15 N           3.5352    3.6819   27.2479 N.pl3   1  UNL1       -0.3425
     16 N           2.1209    3.9298   29.4132 N.ar    1  UNL1       -0.1995
     17 C           1.1219    3.3721   30.3832 C.ar    1  UNL1        0.2145
     18 N           0.7065    4.1777   31.5784 N.pl3   1  UNL1       -0.3274
     19 N           0.5382    2.0087   30.1580 N.ar    1  UNL1       -0.2183
     20 C           0.9536    1.2032   28.9628 C.ar    1  UNL1        0.0645
     21 H           3.8078    3.1532   26.4635 H       1  UNL1        0.1437
     22 H           3.9183    4.5767   27.3957 H       1  UNL1        0.1437
     23 H           1.0895    5.0725   31.7262 H       1  UNL1        0.1452
     24 H           0.0508    3.8116   32.2150 H       1  UNL1        0.1452
     25 C           0.3699   -0.1602   28.7376 C.3     1  UNL1        0.0460
     26 C          -1.1168   -0.3554   28.7766 C.3     1  UNL1        0.0067
     27 C           4.3950   -2.6093   21.8738 C.ar    1  UNL1        0.0264
     28 C           4.4010   -4.0051   21.3242 C.ar    1  UNL1        0.0293
     29 C           3.9839   -4.2542   19.9051 C.ar    1  UNL1        0.1422
     30 F           3.9899   -5.6499   19.3556 F       1  UNL1       -0.2041
     31 C           3.5608   -3.1076   19.0355 C.ar    1  UNL1        0.0592
     32 C           3.5549   -1.7119   19.5850 C.ar    1  UNL1        0.1422
     33 F           3.1318   -0.5652   18.7153 F       1  UNL1       -0.2041
     34 C           3.9720   -1.4628   21.0041 C.ar    1  UNL1        0.0293
     35 C           5.9627   -1.7408   27.0402 C.3     1  UNL1        0.1010
     36 C           5.7112   -2.8712   27.9937 C.3     1  UNL1        0.0539
     37 C           6.5556   -4.1092   27.9286 C.3     1  UNL1        0.1439
     38 O           6.1976   -5.3057   28.7593 O.3     1  UNL1       -0.3537
     39 C           6.9778   -5.0277   31.2219 C.3     1  UNL1        0.0346
     40 C           7.0833   -5.7216   29.8963 C.3     1  UNL1        0.1422
@<TRIPOS>BOND
     1    39    40    1
     2    40    38    1
     3    38    37    1
     4    37    36    1
     5    36    35    1
     6    35     1    1
     7     1     2   am
     8     2     3    2
     9     2     4    1
    10     4     5    1
    11     4    27    1
    12    27    28   ar
    13    28    29   ar
    14    29    30    1
    15    29    31   ar
    16    31    32   ar
    17    32    33    1
    18    32    34   ar
    19     4     6    1
    20     6     7    1
    21     7     8   ar
    22     8     9   ar
    23     9    10   ar
    24    10    13    1
    25    13    14   ar
    26    14    15    1
    27    14    16   ar
    28    16    17   ar
    29    17    18    1
    30    17    19   ar
    31    19    20   ar
    32    20    25    1
    33    25    26    1
    34    10    11   ar
    35    11    12   ar
    36    12     1    1
    37    34    27   ar
    38    12     7   ar
    39    20    13   ar
    40    15    21    1
    41    15    22    1
    42    18    23    1
    43    18    24    1
@<TRIPOS>MOLECULE
*****
 40 43 0 0 0
SMALL
GASTEIGER

@<TRIPOS>ATOM
      1 N           5.0189   -1.6066   25.7834 N.am    1  UNL1       -0.2528
      2 C           5.4368   -2.4205   24.5947 C.2     1  UNL1        0.2697
      3 O           6.6246   -3.3317   24.6898 O.2     1  UNL1       -0.2704
      4 C           4.6670   -2.3233   23.3110 C.3     1  UNL1        0.2199
      5 C           5.7136   -3.3210   22.9122 C.3     1  UNL1        0.0579
      6 O           3.4793   -1.4122   23.2159 O.3     1  UNL1       -0.4686
      7 C           3.0613   -0.5982   24.4046 C.ar    1  UNL1        0.1529
      8 C           1.8736    0.3130   24.3095 C.ar    1  UNL1        0.0382
      9 C           1.4557    1.1269   25.4981 C.ar    1  UNL1        0.0033
     10 C           2.2256    1.0296   26.7818 C.ar    1  UNL1        0.0053
     11 C           3.4133    0.1185   26.8769 C.ar    1  UNL1        0.0181
     12 C           3.8312   -0.6954   25.6883 C.ar    1  UNL1        0.0881
     13 C           1.8076    1.8436   27.9705 C.ar    1  UNL1        0.0449
     14 C           2.3536    3.2276   28.1612 C.ar    1  UNL1        0.1293
     15 N           3.3175    3.7977   27.1633 N.pl3   1  UNL1       -0.3425
     16 N           1.9356    4.0416   29.3499 N.ar    1  UNL1       -0.1995
     17 C           0.9717    3.4715   30.3478 C.ar    1  UNL1        0.2145
     18 N           0.5537    4.2854   31.5364 N.pl3   1  UNL1       -0.3274
     19 N           0.4257    2.0874   30.1570 N.ar    1  UNL1       -0.2183
     20 C           0.8437    1.2735   28.9684 C.ar    1  UNL1        0.0645
     21 H           3.5918    3.2635   26.3832 H       1  UNL1        0.1437
     22 H           3.6758    4.7061   27.2885 H       1  UNL1        0.1437
     23 H           0.9121    5.1938   31.6616 H       1  UNL1        0.1452
     24 H          -0.0789    3.9112   32.1913 H       1  UNL1        0.1452
     25 C           0.2977   -0.1106   28.7776 C.3     1  UNL1        0.0460
     26 C          -1.1849   -0.3385   28.7775 C.3     1  UNL1        0.0067
     27 C           4.2607   -2.5726   21.8888 C.ar    1  UNL1        0.0264
     28 C           3.5841   -1.4898   21.1013 C.ar    1  UNL1        0.0293
     29 C           3.1777   -1.7391   19.6790 C.ar    1  UNL1        0.1422
     30 F           2.5012   -0.6564   18.8917 F       1  UNL1       -0.2041
     31 C           3.4480   -3.0710   19.0443 C.ar    1  UNL1        0.0592
     32 C           4.1245   -4.1537   19.8318 C.ar    1  UNL1        0.1422
     33 F           4.3947   -5.4857   19.1970 F       1  UNL1       -0.2041
     34 C           4.5308   -3.9044   21.2540 C.ar    1  UNL1        0.0293
     35 C           5.7888   -1.7039   27.0671 C.3     1  UNL1        0.1010
     36 C           5.5241   -2.8347   28.0165 C.3     1  UNL1        0.0539
     37 C           6.6698   -3.6034   28.6051 C.3     1  UNL1        0.1439
     38 O           6.5410   -4.2145   29.9689 O.3     1  UNL1       -0.3537
     39 C           7.7811   -6.3448   29.1479 C.3     1  UNL1        0.0346
     40 C           7.0032   -5.6215   30.2070 C.3     1  UNL1        0.1422
@<TRIPOS>BOND
     1    39    40    1
     2    40    38    1
     3    38    37    1
     4    37    36    1
     5    36    35    1
     6    35     1    1
     7     1     2   am
     8     2     3    2
     9     2     4    1
    10     4     5    1
    11     4    27    1
    12    27    28   ar
    13    28    29   ar
    14    29    30    1
    15    29    31   ar
    16    31    32   ar
    17    32    33    1
    18    32    34   ar
    19     4     6    1
    20     6     7    1
    21     7     8   ar
    22     8     9   ar
    23     9    10   ar
    24    10    13    1
    25    13    14   ar
    26    14    15    1
    27    14    16   ar
    28    16    17   ar
    29    17    18    1
    30    17    19   ar
    31    19    20   ar
    32    20    25    1
    33    25    26    1
    34    10    11   ar
    35    11    12   ar
    36    12     1    1
    37    34    27   ar
    38    12     7   ar
    39    20    13   ar
    40    15    21    1
    41    15    22    1
    42    18    23    1
    43    18    24    1
@<TRIPOS>MOLECULE
*****
 40 43 0 0 0
SMALL
GASTEIGER

@<TRIPOS>ATOM
      1 N           4.7159    0.0587   32.3856 N.am    1  UNL1       -0.2528
      2 C           4.1330   -0.2098   31.0298 C.2     1  UNL1        0.2697
      3 O           4.8537   -1.1073   30.0679 O.2     1  UNL1       -0.2704
      4 C           2.8295    0.4192   30.6358 C.3     1  UNL1        0.2199
      5 C           3.1343   -0.3530   29.3865 C.3     1  UNL1        0.0579
      6 O           2.1089    1.3167   31.5976 O.3     1  UNL1       -0.4686
      7 C           2.6917    1.5853   32.9534 C.ar    1  UNL1        0.1529
      8 C           1.9710    2.4828   33.9152 C.ar    1  UNL1        0.0382
      9 C           2.5539    2.7512   35.2710 C.ar    1  UNL1        0.0033
     10 C           3.8574    2.1222   35.6650 C.ar    1  UNL1        0.0053
     11 C           4.5780    1.2247   34.7032 C.ar    1  UNL1        0.0181
     12 C           3.9952    0.9562   33.3474 C.ar    1  UNL1        0.0881
     13 C           4.4402    2.3907   37.0209 C.ar    1  UNL1        0.0449
     14 C           5.5555    3.3818   37.1749 C.ar    1  UNL1        0.1293
     15 N           6.0881    4.1044   35.9732 N.pl3   1  UNL1       -0.3425
     16 N           6.1383    3.6503   38.5308 N.ar    1  UNL1       -0.1995
     17 C           5.6058    2.9277   39.7325 C.ar    1  UNL1        0.2145
     18 N           6.1885    3.1962   41.0884 N.pl3   1  UNL1       -0.3274
     19 N           4.4904    1.9366   39.5784 N.ar    1  UNL1       -0.2183
     20 C           3.9076    1.6681   38.2226 C.ar    1  UNL1        0.0645
     21 H           5.7056    3.9282   35.0833 H       1  UNL1        0.1437
     22 H           6.8201    4.7549   36.0743 H       1  UNL1        0.1437
     23 H           6.9206    3.8467   41.1895 H       1  UNL1        0.1452
     24 H           5.8390    2.7219   41.8771 H       1  UNL1        0.1452
     25 C           2.7922    0.6770   38.0685 C.3     1  UNL1        0.0460
     26 C           1.6274    0.7059   39.0132 C.3     1  UNL1        0.0067
     27 C           1.6319    0.7801   29.8079 C.ar    1  UNL1        0.0264
     28 C           1.4173    2.2014   29.3789 C.ar    1  UNL1        0.0293
     29 C           0.2196    2.5622   28.5510 C.ar    1  UNL1        0.1422
     30 F           0.0051    3.9835   28.1220 F       1  UNL1       -0.2041
     31 C          -0.7634    1.5019   28.1522 C.ar    1  UNL1        0.0592
     32 C          -0.5489    0.0806   28.5812 C.ar    1  UNL1        0.1422
     33 F          -1.5320   -0.9797   28.1824 F       1  UNL1       -0.2041
     34 C           0.6488   -0.2802   29.4091 C.ar    1  UNL1        0.0293
     35 C           6.0194   -0.5703   32.7796 C.3     1  UNL1        0.1010
     36 C           6.0683   -2.0216   33.1559 C.3     1  UNL1        0.0539
     37 C           6.8807   -2.9814   32.3381 C.3     1  UNL1        0.1439
     38 O           6.2257   -3.7832   31.2528 O.3     1  UNL1       -0.3537
     39 C           7.1049   -5.7702   29.8285 C.3     1  UNL1        0.0346
     40 C           7.0413   -4.2971   30.1036 C.3     1  UNL1        0.1422
@<TRIPOS>BOND
     1    39    40    1
     2    40    38    1
     3    38    37    1
     4    37    36    1
     5    36    35    1
     6    35     1    1
     7     1     2   am
     8     2     3    2
     9     2     4    1
    10     4     5    1
    11     4    27    1
    12    27    28   ar
    13    28    29   ar
    14    29    30    1
    15    29    31   ar
    16    31    32   ar
    17    32    33    1
    18    32    34   ar
    19     4     6    1
    20     6     7    1
    21     7     8   ar
    22     8     9   ar
    23     9    10   ar
    24    10    13    1
    25    13    14   ar
    26    14    15    1
    27    14    16   ar
    28    16    17   ar
    29    17    18    1
    30    17    19   ar
    31    19    20   ar
    32    20    25    1
    33    25    26    1
    34    10    11   ar
    35    11    12   ar
    36    12     1    1
    37    34    27   ar
    38    12     7   ar
    39    20    13   ar
    40    15    21    1
    41    15    22    1
    42    18    23    1
    43    18    24    1
@<TRIPOS>MOLECULE
*****
 40 43 0 0 0
SMALL
GASTEIGER

@<TRIPOS>ATOM
      1 N          -0.0016    2.0881   23.4354 N.am    1  UNL1       -0.2528
      2 C           0.1834    1.7023   21.9978 C.2     1  UNL1        0.2697
      3 O          -0.7283    2.2638   20.9472 O.2     1  UNL1       -0.2704
      4 C           1.2802    0.7551   21.6106 C.3     1  UNL1        0.2199
      5 C           0.6765    1.0195   20.2631 C.3     1  UNL1        0.0579
      6 O           2.1919    0.1937   22.6610 O.3     1  UNL1       -0.4686
      7 C           2.0069    0.5794   24.0988 C.ar    1  UNL1        0.1529
      8 C           2.9186    0.0180   25.1492 C.ar    1  UNL1        0.0382
      9 C           2.7336    0.4038   26.5869 C.ar    1  UNL1        0.0033
     10 C           1.6369    1.3510   26.9741 C.ar    1  UNL1        0.0053
     11 C           0.7251    1.9124   25.9236 C.ar    1  UNL1        0.0181
     12 C           0.9102    1.5267   24.4860 C.ar    1  UNL1        0.0881
     13 C           1.4519    1.7368   28.4118 C.ar    1  UNL1        0.0449
     14 C           2.1905    2.9154   28.9731 C.ar    1  UNL1        0.1293
     15 N           3.1141    3.7084   28.0967 N.pl3   1  UNL1       -0.3425
     16 N           2.0055    3.3012   30.4109 N.ar    1  UNL1       -0.1995
     17 C           1.0818    2.5082   31.2873 C.ar    1  UNL1        0.2145
     18 N           0.8968    2.8939   32.7249 N.pl3   1  UNL1       -0.3274
     19 N           0.3432    1.3295   30.7259 N.ar    1  UNL1       -0.2183
     20 C           0.5282    0.9438   29.2882 C.ar    1  UNL1        0.0645
     21 H           3.2356    3.4552   27.1531 H       1  UNL1        0.1437
     22 H           3.5989    4.4820   28.4651 H       1  UNL1        0.1437
     23 H           1.3816    3.6676   33.0933 H       1  UNL1        0.1452
     24 H           0.2906    2.3735   33.3001 H       1  UNL1        0.1452
     25 C          -0.2104   -0.2350   28.7269 C.3     1  UNL1        0.0460
     26 C          -1.6780   -0.3960   28.9921 C.3     1  UNL1        0.0067
     27 C           2.1673   -0.1003   20.7554 C.ar    1  UNL1        0.0264
     28 C           2.3930    0.2574   19.3162 C.ar    1  UNL1        0.0293
     29 C           3.2801   -0.5981   18.4610 C.ar    1  UNL1        0.1422
     30 F           3.5058   -0.2403   17.0219 F       1  UNL1       -0.2041
     31 C           3.9415   -1.8111   19.0450 C.ar    1  UNL1        0.0592
     32 C           3.7158   -2.1687   20.4842 C.ar    1  UNL1        0.1422
     33 F           4.3772   -3.3818   21.0682 F       1  UNL1       -0.2041
     34 C           2.8287   -1.3133   21.3393 C.ar    1  UNL1        0.0293
     35 C          -1.0983    3.0353   23.8226 C.3     1  UNL1        0.1010
     36 C          -0.9225    4.5107   23.6167 C.3     1  UNL1        0.0539
     37 C          -1.8306    5.2506   22.6797 C.3     1  UNL1        0.1439
     38 O          -3.2693    4.8454   22.5533 O.3     1  UNL1       -0.3537
     39 C          -4.6493    2.9663   21.4069 C.3     1  UNL1        0.0346
     40 C          -3.7493    4.1621   21.3072 C.3     1  UNL1        0.1422
@<TRIPOS>BOND
     1    39    40    1
     2    40    38    1
     3    38    37    1
     4    37    36    1
     5    36    35    1
     6    35     1    1
     7     1     2   am
     8     2     3    2
     9     2     4    1
    10     4     5    1
    11     4    27    1
    12    27    28   ar
    13    28    29   ar
    14    29    30    1
    15    29    31   ar
    16    31    32   ar
    17    32    33    1
    18    32    34   ar
    19     4     6    1
    20     6     7    1
    21     7     8   ar
    22     8     9   ar
    23     9    10   ar
    24    10    13    1
    25    13    14   ar
    26    14    15    1
    27    14    16   ar
    28    16    17   ar
    29    17    18    1
    30    17    19   ar
    31    19    20   ar
    32    20    25    1
    33    25    26    1
    34    10    11   ar
    35    11    12   ar
    36    12     1    1
    37    34    27   ar
    38    12     7   ar
    39    20    13   ar
    40    15    21    1
    41    15    22    1
    42    18    23    1
    43    18    24    1
@<TRIPOS>MOLECULE
*****
 40 43 0 0 0
SMALL
GASTEIGER

@<TRIPOS>ATOM
      1 N         -13.9894   -3.0354   17.7339 N.am    1  UNL1       -0.2528
      2 C         -13.8143   -1.5474   17.8040 C.2     1  UNL1        0.2697
      3 O         -12.6907   -0.8885   17.0599 O.2     1  UNL1       -0.2704
      4 C         -14.7626   -0.7181   18.6182 C.3     1  UNL1        0.2199
      5 C         -13.8595    0.3586   18.0936 C.3     1  UNL1        0.0579
      6 O         -15.8861   -1.3769   19.3623 O.3     1  UNL1       -0.4686
      7 C         -16.0613   -2.8650   19.2922 C.ar    1  UNL1        0.1529
      8 C         -17.1848   -3.5238   20.0363 C.ar    1  UNL1        0.0382
      9 C         -17.3600   -5.0118   19.9661 C.ar    1  UNL1        0.0033
     10 C         -16.4117   -5.8411   19.1519 C.ar    1  UNL1        0.0053
     11 C         -15.2882   -5.1823   18.4078 C.ar    1  UNL1        0.0181
     12 C         -15.1130   -3.6943   18.4780 C.ar    1  UNL1        0.0881
     13 C         -16.5869   -7.3292   19.0818 C.ar    1  UNL1        0.0449
     14 C         -15.3880   -8.2290   19.1373 C.ar    1  UNL1        0.1293
     15 N         -14.0139   -7.6407   19.2629 N.pl3   1  UNL1       -0.3425
     16 N         -15.5632   -9.7172   19.0672 N.ar    1  UNL1       -0.1995
     17 C         -16.9373  -10.3054   18.9416 C.ar    1  UNL1        0.2145
     18 N         -17.1126  -11.7935   18.8714 N.pl3   1  UNL1       -0.3274
     19 N         -18.1362   -9.4056   18.8860 N.ar    1  UNL1       -0.2183
     20 C         -17.9610   -7.9175   18.9562 C.ar    1  UNL1        0.0645
     21 H         -13.8989   -6.6641   19.3090 H       1  UNL1        0.1437
     22 H         -13.2271   -8.2313   19.2994 H       1  UNL1        0.1437
     23 H         -16.3258  -12.3840   18.9079 H       1  UNL1        0.1452
     24 H         -18.0145  -12.1796   18.7890 H       1  UNL1        0.1452
     25 C         -19.1599   -7.0176   18.9006 C.3     1  UNL1        0.0460
     26 C         -19.7922   -6.6913   17.5801 C.3     1  UNL1        0.0067
     27 C         -15.3973    0.4851   19.2503 C.ar    1  UNL1        0.0264
     28 C         -14.9498    1.8621   18.8582 C.ar    1  UNL1        0.0293
     29 C         -15.5846    3.0653   19.4902 C.ar    1  UNL1        0.1422
     30 F         -15.1371    4.4423   19.0981 F       1  UNL1       -0.2041
     31 C         -16.6667    2.8915   20.5143 C.ar    1  UNL1        0.0592
     32 C         -17.1141    1.5145   20.9064 C.ar    1  UNL1        0.1422
     33 F         -18.1962    1.3407   21.9306 F       1  UNL1       -0.2041
     34 C         -16.4794    0.3114   20.2744 C.ar    1  UNL1        0.0293
     35 C         -13.0411   -3.8647   16.9196 C.3     1  UNL1        0.1010
     36 C         -11.6822   -4.1982   17.4603 C.3     1  UNL1        0.0539
     37 C         -11.5343   -4.6756   18.8746 C.3     1  UNL1        0.1439
     38 O         -11.4636   -6.1452   19.1666 O.3     1  UNL1       -0.3537
     39 C          -9.4075   -7.6891   18.7944 C.3     1  UNL1        0.0346
     40 C         -10.6616   -7.0488   18.2776 C.3     1  UNL1        0.1422
@<TRIPOS>BOND
     1    39    40    1
     2    40    38    1
     3    38    37    1
     4    37    36    1
     5    36    35    1
     6    35     1    1
     7     1     2   am
     8     2     3    2
     9     2     4    1
    10     4     5    1
    11     4    27    1
    12    27    28   ar
    13    28    29   ar
    14    29    30    1
    15    29    31   ar
    16    31    32   ar
    17    32    33    1
    18    32    34   ar
    19     4     6    1
    20     6     7    1
    21     7     8   ar
    22     8     9   ar
    23     9    10   ar
    24    10    13    1
    25    13    14   ar
    26    14    15    1
    27    14    16   ar
    28    16    17   ar
    29    17    18    1
    30    17    19   ar
    31    19    20   ar
    32    20    25    1
    33    25    26    1
    34    10    11   ar
    35    11    12   ar
    36    12     1    1
    37    34    27   ar
    38    12     7   ar
    39    20    13   ar
    40    15    21    1
    41    15    22    1
    42    18    23    1
    43    18    24    1
