@<TRIPOS>MOLECULE
*****
 38 41 0 0 0
SMALL
GASTEIGER

@<TRIPOS>ATOM
      1 C           5.1893   -0.5873   34.4929 C.ar    1  UNL1       -0.0206
      2 C           4.4757   -1.7332   33.8390 C.ar    1  UNL1       -0.0042
      3 C           5.1866   -2.5784   32.8240 C.ar    1  UNL1       -0.0003
      4 C           6.6111   -2.2777   32.4628 C.ar    1  UNL1        0.0001
      5 C           7.3247   -1.1318   33.1168 C.ar    1  UNL1       -0.0003
      6 C           6.6138   -0.2866   34.1318 C.ar    1  UNL1       -0.0042
      7 C           3.4947    1.3766   39.0921 C.3     1  UNL1        0.0897
      8 N           3.6995    1.1607   37.6219 N.3     1  UNL1       -0.2708
      9 C           3.0695    1.9568   36.5176 C.3     1  UNL1        0.0816
     10 C           3.5509    1.3989   35.2111 C.3     1  UNL1        0.0981
     11 C           4.4784    0.2580   35.5079 C.3     1  UNL1        0.0483
     12 C           4.5703    0.1107   36.9978 C.3     1  UNL1        0.0770
     13 C           3.1714    1.8948   33.8473 C.2     1  UNL1        0.2274
     14 O           4.2259    2.4266   32.9224 O.2     1  UNL1       -0.2747
     15 N           1.7376    1.8590   33.4083 N.am    1  UNL1       -0.2839
     16 H           1.0455    1.5100   34.0153 H       1  UNL1        0.1549
     17 C           1.3581    2.3550   32.0444 C.ar    1  UNL1        0.0504
     18 C           0.9893    3.7953   31.8460 C.ar    1  UNL1        0.0155
     19 C           0.6098    4.2912   30.4822 C.ar    1  UNL1        0.0127
     20 C           0.5992    3.3468   29.3168 C.ar    1  UNL1        0.0578
     21 CL          0.2197    3.8428   27.9530 Cl      1  UNL1       -0.0822
     22 C           0.9679    1.9065   29.5153 C.ar    1  UNL1        0.0127
     23 C           1.3474    1.4106   30.8791 C.ar    1  UNL1        0.0155
     24 C           7.3220   -3.1229   31.4478 C.2     1  UNL1        0.0047
     25 C           6.5831   -3.6314   30.2455 C.2     1  UNL1        0.0580
     26 C           7.2939   -4.4766   29.2305 C.2     1  UNL1        0.2497
     27 O           8.7804   -4.3607   29.0666 O.2     1  UNL1       -0.2698
     28 N           6.5182   -5.4378   28.3793 N.am    1  UNL1       -0.2794
     29 H           5.5425   -5.5139   28.4868 H       1  UNL1        0.1552
     30 C           7.2290   -6.2830   27.3642 C.ar    1  UNL1        0.0636
     31 C           7.9658   -7.5154   27.7980 C.ar    1  UNL1        0.0159
     32 C           8.6766   -8.3606   26.7829 C.ar    1  UNL1        0.0014
     33 C           8.6507   -7.9733   25.3340 C.ar    1  UNL1        0.0013
     34 C           7.9139   -6.7408   24.9002 C.ar    1  UNL1        0.0153
     35 C           7.2031   -5.8957   25.9153 C.ar    1  UNL1        0.0552
     36 N           6.4663   -4.6632   25.4815 N.pl3   1  UNL1       -0.3560
     37 H           6.4493   -4.4090   24.5306 H       1  UNL1        0.1424
     38 H           5.9998   -4.1085   26.1478 H       1  UNL1        0.1424
@<TRIPOS>BOND
     1     7     8    1
     2     8     9    1
     3     9    10    1
     4    10    13    1
     5    13    14    2
     6    13    15   am
     7    15    17    1
     8    17    18   ar
     9    18    19   ar
    10    19    20   ar
    11    20    21    1
    12    20    22   ar
    13    22    23   ar
    14    10    11    1
    15    11     1    1
    16     1     2   ar
    17     2     3   ar
    18     3     4   ar
    19     4    24    1
    20    24    25    2
    21    25    26    1
    22    26    27    2
    23    26    28   am
    24    28    30    1
    25    30    31   ar
    26    31    32   ar
    27    32    33   ar
    28    33    34   ar
    29    34    35   ar
    30    35    36    1
    31     4     5   ar
    32     5     6   ar
    33    11    12    1
    34    12     8    1
    35    23    17   ar
    36     6     1   ar
    37    35    30   ar
    38    15    16    1
    39    28    29    1
    40    36    37    1
    41    36    38    1
@<TRIPOS>MOLECULE
*****
 38 41 0 0 0
SMALL
GASTEIGER

@<TRIPOS>ATOM
      1 C           0.7320    1.7587   19.0401 C.ar    1  UNL1       -0.0206
      2 C           0.2149    0.6577   19.9178 C.ar    1  UNL1       -0.0042
      3 C           1.0856   -0.5227   20.2317 C.ar    1  UNL1       -0.0003
      4 C           2.4735   -0.6020   19.6681 C.ar    1  UNL1        0.0001
      5 C           2.9905    0.4990   18.7905 C.ar    1  UNL1       -0.0003
      6 C           2.1198    1.6794   18.4765 C.ar    1  UNL1       -0.0042
      7 C          -1.6098    5.7270   16.4613 C.3     1  UNL1        0.0897
      8 N          -1.2151    4.7631   17.5408 N.3     1  UNL1       -0.2708
      9 C          -1.7420    4.7480   18.9452 C.3     1  UNL1        0.0816
     10 C          -1.0767    3.6207   19.6777 C.3     1  UNL1        0.0981
     11 C          -0.1387    2.9391   18.7261 C.3     1  UNL1        0.0483
     12 C          -0.2242    3.6451   17.4054 C.3     1  UNL1        0.0770
     13 C          -1.3088    3.2416   21.1104 C.2     1  UNL1        0.2274
     14 O          -2.6897    2.8903   21.5790 O.2     1  UNL1       -0.2747
     15 N          -0.1599    3.2138   22.0744 N.am    1  UNL1       -0.2839
     16 H           0.7464    3.4444   21.7668 H       1  UNL1        0.1549
     17 C          -0.3920    2.8347   23.5070 C.ar    1  UNL1        0.0504
     18 C          -1.2631    3.6908   24.3778 C.ar    1  UNL1        0.0155
     19 C          -1.4951    3.3117   25.8103 C.ar    1  UNL1        0.0127
     20 C          -0.8560    2.0764   26.3722 C.ar    1  UNL1        0.0578
     21 CL         -1.0881    1.6973   27.8049 Cl      1  UNL1       -0.0822
     22 C           0.0151    1.2203   25.5015 C.ar    1  UNL1        0.0127
     23 C           0.2471    1.5994   24.0689 C.ar    1  UNL1        0.0155
     24 C           3.3441   -1.7824   19.9821 C.2     1  UNL1        0.0047
     25 C           3.9944   -1.8974   21.3289 C.2     1  UNL1        0.0580
     26 C           4.8651   -3.0778   21.6430 C.2     1  UNL1        0.2497
     27 O           4.3612   -4.4686   21.3947 O.2     1  UNL1       -0.2698
     28 N           6.2396   -2.8674   22.2055 N.am    1  UNL1       -0.2794
     29 H           6.5704   -1.9546   22.3685 H       1  UNL1        0.1552
     30 C           7.1102   -4.0478   22.5196 C.ar    1  UNL1        0.0636
     31 C           8.0150   -4.6140   21.4657 C.ar    1  UNL1        0.0159
     32 C           8.8856   -5.7944   21.7799 C.ar    1  UNL1        0.0014
     33 C           8.8513   -6.4086   23.1479 C.ar    1  UNL1        0.0013
     34 C           7.9465   -5.8424   24.2018 C.ar    1  UNL1        0.0153
     35 C           7.0760   -4.6620   23.8877 C.ar    1  UNL1        0.0552
     36 N           6.1712   -4.0958   24.9416 N.pl3   1  UNL1       -0.3560
     37 H           6.1487   -4.4989   25.8395 H       1  UNL1        0.1424
     38 H           5.5998   -3.3210   24.7354 H       1  UNL1        0.1424
@<TRIPOS>BOND
     1     7     8    1
     2     8     9    1
     3     9    10    1
     4    10    13    1
     5    13    14    2
     6    13    15   am
     7    15    17    1
     8    17    18   ar
     9    18    19   ar
    10    19    20   ar
    11    20    21    1
    12    20    22   ar
    13    22    23   ar
    14    10    11    1
    15    11     1    1
    16     1     2   ar
    17     2     3   ar
    18     3     4   ar
    19     4    24    1
    20    24    25    2
    21    25    26    1
    22    26    27    2
    23    26    28   am
    24    28    30    1
    25    30    31   ar
    26    31    32   ar
    27    32    33   ar
    28    33    34   ar
    29    34    35   ar
    30    35    36    1
    31     4     5   ar
    32     5     6   ar
    33    11    12    1
    34    12     8    1
    35    23    17   ar
    36     6     1   ar
    37    35    30   ar
    38    15    16    1
    39    28    29    1
    40    36    37    1
    41    36    38    1
@<TRIPOS>MOLECULE
*****
 38 41 0 0 0
SMALL
GASTEIGER

@<TRIPOS>ATOM
      1 C           1.6585    0.5465   28.8209 C.ar    1  UNL1       -0.0206
      2 C           0.2869   -0.0581   28.7663 C.ar    1  UNL1       -0.0042
      3 C          -0.8264    0.6695   28.0727 C.ar    1  UNL1       -0.0003
      4 C          -0.5681    2.0018   27.4335 C.ar    1  UNL1        0.0001
      5 C           0.8036    2.6064   27.4880 C.ar    1  UNL1       -0.0003
      6 C           1.9169    1.8788   28.1817 C.ar    1  UNL1       -0.0042
      7 C           4.6200   -1.6996   32.5713 C.3     1  UNL1        0.0897
      8 N           4.1331   -1.2135   31.2384 N.3     1  UNL1       -0.2708
      9 C           4.8372   -1.3877   29.9253 C.3     1  UNL1        0.0816
     10 C           3.9959   -0.7496   28.8600 C.3     1  UNL1        0.0981
     11 C           2.7718   -0.1810   29.5145 C.3     1  UNL1        0.0483
     12 C           2.8566   -0.4677   30.9844 C.3     1  UNL1        0.0770
     13 C           4.3215   -0.6905   27.3969 C.2     1  UNL1        0.2274
     14 O           5.4002    0.2286   26.9052 O.2     1  UNL1       -0.2747
     15 N           3.5685   -1.5504   26.4257 N.am    1  UNL1       -0.2839
     16 H           2.8605   -2.1536   26.7484 H       1  UNL1        0.1549
     17 C           3.8941   -1.4913   24.9626 C.ar    1  UNL1        0.0504
     18 C           3.1131   -0.5866   24.0563 C.ar    1  UNL1        0.0155
     19 C           3.4387   -0.5275   22.5933 C.ar    1  UNL1        0.0127
     20 C           4.5454   -1.3732   22.0366 C.ar    1  UNL1        0.0578
     21 CL          4.8710   -1.3141   20.5735 Cl      1  UNL1       -0.0822
     22 C           5.3264   -2.2780   22.9428 C.ar    1  UNL1        0.0127
     23 C           5.0008   -2.3371   24.4058 C.ar    1  UNL1        0.0155
     24 C          -1.6814    2.7293   26.7398 C.2     1  UNL1        0.0047
     25 C          -1.6153    2.9657   25.2600 C.2     1  UNL1        0.0580
     26 C          -2.7286    3.6932   24.5663 C.2     1  UNL1        0.2497
     27 O          -2.4973    5.0697   24.0171 O.2     1  UNL1       -0.2698
     28 N          -4.0732    3.0443   24.4217 N.am    1  UNL1       -0.2794
     29 H          -4.2251    2.1408   24.7822 H       1  UNL1        0.1552
     30 C          -5.1864    3.7718   23.7280 C.ar    1  UNL1        0.0636
     31 C          -6.0871    4.6834   24.5076 C.ar    1  UNL1        0.0159
     32 C          -7.2003    5.4110   23.8137 C.ar    1  UNL1        0.0014
     33 C          -7.4128    5.2270   22.3403 C.ar    1  UNL1        0.0013
     34 C          -6.5121    4.3154   21.5607 C.ar    1  UNL1        0.0153
     35 C          -5.3990    3.5878   22.2545 C.ar    1  UNL1        0.0552
     36 N          -4.4983    2.6762   21.4750 N.pl3   1  UNL1       -0.3560
     37 H          -4.6378    2.5555   20.5079 H       1  UNL1        0.1424
     38 H          -3.7676    2.1987   21.9303 H       1  UNL1        0.1424
@<TRIPOS>BOND
     1     7     8    1
     2     8     9    1
     3     9    10    1
     4    10    13    1
     5    13    14    2
     6    13    15   am
     7    15    17    1
     8    17    18   ar
     9    18    19   ar
    10    19    20   ar
    11    20    21    1
    12    20    22   ar
    13    22    23   ar
    14    10    11    1
    15    11     1    1
    16     1     2   ar
    17     2     3   ar
    18     3     4   ar
    19     4    24    1
    20    24    25    2
    21    25    26    1
    22    26    27    2
    23    26    28   am
    24    28    30    1
    25    30    31   ar
    26    31    32   ar
    27    32    33   ar
    28    33    34   ar
    29    34    35   ar
    30    35    36    1
    31     4     5   ar
    32     5     6   ar
    33    11    12    1
    34    12     8    1
    35    23    17   ar
    36     6     1   ar
    37    35    30   ar
    38    15    16    1
    39    28    29    1
    40    36    37    1
    41    36    38    1
@<TRIPOS>MOLECULE
*****
 38 41 0 0 0
SMALL
GASTEIGER

@<TRIPOS>ATOM
      1 C           2.2177    0.3647   28.6017 C.ar    1  UNL1       -0.0206
      2 C           2.3264    1.6203   27.7883 C.ar    1  UNL1       -0.0042
      3 C           1.0864    2.2970   27.2840 C.ar    1  UNL1       -0.0003
      4 C          -0.2625    1.7182   27.5932 C.ar    1  UNL1        0.0001
      5 C          -0.3713    0.4626   28.4066 C.ar    1  UNL1       -0.0003
      6 C           0.8688   -0.2141   28.9109 C.ar    1  UNL1       -0.0042
      7 C           5.8476   -1.7133   31.8245 C.3     1  UNL1        0.0897
      8 N           5.1262   -1.2672   30.5874 N.3     1  UNL1       -0.2708
      9 C           5.6057   -1.4399   29.1765 C.3     1  UNL1        0.0816
     10 C           4.5744   -0.8495   28.2610 C.3     1  UNL1        0.0981
     11 C           3.4577   -0.3121   29.1060 C.3     1  UNL1        0.0483
     12 C           3.7987   -0.5702   30.5437 C.3     1  UNL1        0.0770
     13 C           4.6472   -0.8046   26.7634 C.2     1  UNL1        0.2274
     14 O           5.5817    0.1538   26.0864 O.2     1  UNL1       -0.2747
     15 N           3.7857   -1.7180   25.9429 N.am    1  UNL1       -0.2839
     16 H           3.1724   -2.3470   26.3873 H       1  UNL1        0.1549
     17 C           3.8585   -1.6731   24.4453 C.ar    1  UNL1        0.0504
     18 C           4.7257   -2.6491   23.7070 C.ar    1  UNL1        0.0155
     19 C           4.7985   -2.6041   22.2094 C.ar    1  UNL1        0.0127
     20 C           4.0040   -1.5831   21.4503 C.ar    1  UNL1        0.0578
     21 CL          4.0769   -1.5382   19.9526 Cl      1  UNL1       -0.0822
     22 C           3.1368   -0.6071   22.1886 C.ar    1  UNL1        0.0127
     23 C           3.0640   -0.6521   23.6861 C.ar    1  UNL1        0.0155
     24 C          -1.5025    2.3949   27.0889 C.2     1  UNL1        0.0047
     25 C          -1.4857    3.8646   26.7891 C.2     1  UNL1        0.0580
     26 C          -2.7256    4.5414   26.2848 C.2     1  UNL1        0.2497
     27 O          -2.6148    5.7595   25.4165 O.2     1  UNL1       -0.2698
     28 N          -4.0765    4.0003   26.6488 N.am    1  UNL1       -0.2794
     29 H          -4.1492    3.2008   27.2188 H       1  UNL1        0.1552
     30 C          -5.3163    4.6772   26.1445 C.ar    1  UNL1        0.0636
     31 C          -5.9485    5.7774   26.9445 C.ar    1  UNL1        0.0159
     32 C          -7.1884    6.4543   26.4400 C.ar    1  UNL1        0.0014
     33 C          -7.7962    6.0309   25.1356 C.ar    1  UNL1        0.0013
     34 C          -7.1640    4.9308   24.3357 C.ar    1  UNL1        0.0153
     35 C          -5.9241    4.2539   24.8401 C.ar    1  UNL1        0.0552
     36 N          -5.2920    3.1537   24.0401 N.pl3   1  UNL1       -0.3560
     37 H          -5.6909    2.8759   23.1840 H       1  UNL1        0.1424
     38 H          -4.4782    2.7094   24.3712 H       1  UNL1        0.1424
@<TRIPOS>BOND
     1     7     8    1
     2     8     9    1
     3     9    10    1
     4    10    13    1
     5    13    14    2
     6    13    15   am
     7    15    17    1
     8    17    18   ar
     9    18    19   ar
    10    19    20   ar
    11    20    21    1
    12    20    22   ar
    13    22    23   ar
    14    10    11    1
    15    11     1    1
    16     1     2   ar
    17     2     3   ar
    18     3     4   ar
    19     4    24    1
    20    24    25    2
    21    25    26    1
    22    26    27    2
    23    26    28   am
    24    28    30    1
    25    30    31   ar
    26    31    32   ar
    27    32    33   ar
    28    33    34   ar
    29    34    35   ar
    30    35    36    1
    31     4     5   ar
    32     5     6   ar
    33    11    12    1
    34    12     8    1
    35    23    17   ar
    36     6     1   ar
    37    35    30   ar
    38    15    16    1
    39    28    29    1
    40    36    37    1
    41    36    38    1
@<TRIPOS>MOLECULE
*****
 38 41 0 0 0
SMALL
GASTEIGER

@<TRIPOS>ATOM
      1 C          -0.4007    3.0169   24.1833 C.ar    1  UNL1       -0.0206
      2 C          -0.2745    1.6195   24.7137 C.ar    1  UNL1       -0.0042
      3 C           0.6531    1.3321   25.8569 C.ar    1  UNL1       -0.0003
      4 C           1.4546    2.4421   26.4699 C.ar    1  UNL1        0.0001
      5 C           1.3283    3.8395   25.9395 C.ar    1  UNL1       -0.0003
      6 C           0.4007    4.1269   24.7963 C.ar    1  UNL1       -0.0042
      7 C          -4.5522    4.6935   21.3843 C.3     1  UNL1        0.0897
      8 N          -3.2365    4.0750   21.7535 N.3     1  UNL1       -0.2708
      9 C          -2.2747    3.4182   20.8081 C.3     1  UNL1        0.0816
     10 C          -1.0954    2.9419   21.6033 C.3     1  UNL1        0.0981
     11 C          -1.3283    3.3043   23.0401 C.3     1  UNL1        0.0483
     12 C          -2.6515    4.0045   23.1330 C.3     1  UNL1        0.0770
     13 C           0.1059    2.2285   21.0575 C.2     1  UNL1        0.2274
     14 O           1.4786    2.7889   21.2849 O.2     1  UNL1       -0.2747
     15 N          -0.0654    0.9547   20.2842 N.am    1  UNL1       -0.2839
     16 H          -0.9663    0.5868   20.1349 H       1  UNL1        0.1549
     17 C           1.1359    0.2412   19.7384 C.ar    1  UNL1        0.0504
     18 C           1.7442   -0.8967   20.5033 C.ar    1  UNL1        0.0155
     19 C           2.9454   -1.6101   19.9574 C.ar    1  UNL1        0.0127
     20 C           3.5384   -1.1855   18.6466 C.ar    1  UNL1        0.0578
     21 CL          4.7398   -1.8990   18.1007 Cl      1  UNL1       -0.0822
     22 C           2.9302   -0.0476   17.8817 C.ar    1  UNL1        0.0127
     23 C           1.7289    0.6658   18.4276 C.ar    1  UNL1        0.0155
     24 C           2.3821    2.1547   27.6131 C.2     1  UNL1        0.0047
     25 C           2.0484    1.0713   28.5954 C.2     1  UNL1        0.0580
     26 C           2.9759    0.7838   29.7386 C.2     1  UNL1        0.2497
     27 O           4.2960    1.4903   29.8293 O.2     1  UNL1       -0.2698
     28 N           2.5835   -0.2103   30.7912 N.am    1  UNL1       -0.2794
     29 H           1.7171   -0.6740   30.7317 H       1  UNL1        0.1552
     30 C           3.5110   -0.4977   31.9344 C.ar    1  UNL1        0.0636
     31 C           4.5073   -1.6141   31.8294 C.ar    1  UNL1        0.0159
     32 C           5.4349   -1.9015   32.9727 C.ar    1  UNL1        0.0014
     33 C           5.3661   -1.0724   34.2209 C.ar    1  UNL1        0.0013
     34 C           4.3698    0.0440   34.3258 C.ar    1  UNL1        0.0153
     35 C           3.4423    0.3313   33.1826 C.ar    1  UNL1        0.0552
     36 N           2.4460    1.4477   33.2875 N.pl3   1  UNL1       -0.3560
     37 H           2.4009    1.9918   34.1068 H       1  UNL1        0.1424
     38 H           1.8372    1.6363   32.5372 H       1  UNL1        0.1424
@<TRIPOS>BOND
     1     7     8    1
     2     8     9    1
     3     9    10    1
     4    10    13    1
     5    13    14    2
     6    13    15   am
     7    15    17    1
     8    17    18   ar
     9    18    19   ar
    10    19    20   ar
    11    20    21    1
    12    20    22   ar
    13    22    23   ar
    14    10    11    1
    15    11     1    1
    16     1     2   ar
    17     2     3   ar
    18     3     4   ar
    19     4    24    1
    20    24    25    2
    21    25    26    1
    22    26    27    2
    23    26    28   am
    24    28    30    1
    25    30    31   ar
    26    31    32   ar
    27    32    33   ar
    28    33    34   ar
    29    34    35   ar
    30    35    36    1
    31     4     5   ar
    32     5     6   ar
    33    11    12    1
    34    12     8    1
    35    23    17   ar
    36     6     1   ar
    37    35    30   ar
    38    15    16    1
    39    28    29    1
    40    36    37    1
    41    36    38    1
@<TRIPOS>MOLECULE
*****
 38 41 0 0 0
SMALL
GASTEIGER

@<TRIPOS>ATOM
      1 C          -1.1895    3.7486   25.9892 C.ar    1  UNL1       -0.0206
      2 C          -0.4788    4.0717   24.7083 C.ar    1  UNL1       -0.0042
      3 C           0.3990    3.0439   24.0578 C.ar    1  UNL1       -0.0003
      4 C           0.5661    1.6930   24.6881 C.ar    1  UNL1        0.0001
      5 C          -0.1445    1.3699   25.9690 C.ar    1  UNL1       -0.0003
      6 C          -1.0223    2.3977   26.6195 C.ar    1  UNL1       -0.0042
      7 C          -3.0023    7.4176   29.3257 C.3     1  UNL1        0.0897
      8 N          -2.9006    6.4628   28.1734 N.3     1  UNL1       -0.2708
      9 C          -3.9357    6.2529   27.1082 C.3     1  UNL1        0.0816
     10 C          -3.4206    5.2106   26.1604 C.3     1  UNL1        0.0981
     11 C          -2.0672    4.7763   26.6397 C.3     1  UNL1        0.0483
     12 C          -1.7458    5.5502   27.8838 C.3     1  UNL1        0.0770
     13 C          -4.1338    4.6934   24.9463 C.2     1  UNL1        0.2274
     14 O          -5.1071    3.5593   25.0746 O.2     1  UNL1       -0.2747
     15 N          -3.8736    5.3103   23.6040 N.am    1  UNL1       -0.2839
     16 H          -3.2348    6.0546   23.5198 H       1  UNL1        0.1549
     17 C          -4.5868    4.7930   22.3899 C.ar    1  UNL1        0.0504
     18 C          -5.9741    5.2689   22.0755 C.ar    1  UNL1        0.0155
     19 C          -6.6873    4.7517   20.8615 C.ar    1  UNL1        0.0127
     20 C          -6.0131    3.7586   19.9619 C.ar    1  UNL1        0.0578
     21 CL         -6.7263    3.2414   18.7478 Cl      1  UNL1       -0.0822
     22 C          -4.6258    3.2828   20.2763 C.ar    1  UNL1        0.0127
     23 C          -3.9127    3.8000   21.4903 C.ar    1  UNL1        0.0155
     24 C           1.4439    0.6653   24.0376 C.2     1  UNL1        0.0047
     25 C           1.7258    0.7428   22.5663 C.2     1  UNL1        0.0580
     26 C           2.6036   -0.2848   21.9157 C.2     1  UNL1        0.2497
     27 O           3.3178   -1.3015   22.7560 O.2     1  UNL1       -0.2698
     28 N           2.7672   -0.2959   20.4246 N.am    1  UNL1       -0.2794
     29 H           2.2984    0.3713   19.8730 H       1  UNL1        0.1552
     30 C           3.6449   -1.3236   19.7741 C.ar    1  UNL1        0.0636
     31 C           3.1444   -2.7246   19.5825 C.ar    1  UNL1        0.0159
     32 C           4.0223   -3.7523   18.9319 C.ar    1  UNL1        0.0014
     33 C           5.4007   -3.3789   18.4729 C.ar    1  UNL1        0.0013
     34 C           5.9012   -1.9780   18.6645 C.ar    1  UNL1        0.0153
     35 C           5.0233   -0.9503   19.3150 C.ar    1  UNL1        0.0552
     36 N           5.5238    0.4507   19.5066 N.pl3   1  UNL1       -0.3560
     37 H           6.4285    0.6957   19.2053 H       1  UNL1        0.1424
     38 H           4.9477    1.1252   19.9336 H       1  UNL1        0.1424
@<TRIPOS>BOND
     1     7     8    1
     2     8     9    1
     3     9    10    1
     4    10    13    1
     5    13    14    2
     6    13    15   am
     7    15    17    1
     8    17    18   ar
     9    18    19   ar
    10    19    20   ar
    11    20    21    1
    12    20    22   ar
    13    22    23   ar
    14    10    11    1
    15    11     1    1
    16     1     2   ar
    17     2     3   ar
    18     3     4   ar
    19     4    24    1
    20    24    25    2
    21    25    26    1
    22    26    27    2
    23    26    28   am
    24    28    30    1
    25    30    31   ar
    26    31    32   ar
    27    32    33   ar
    28    33    34   ar
    29    34    35   ar
    30    35    36    1
    31     4     5   ar
    32     5     6   ar
    33    11    12    1
    34    12     8    1
    35    23    17   ar
    36     6     1   ar
    37    35    30   ar
    38    15    16    1
    39    28    29    1
    40    36    37    1
    41    36    38    1
@<TRIPOS>MOLECULE
*****
 38 41 0 0 0
SMALL
GASTEIGER

@<TRIPOS>ATOM
      1 C           2.7662   -0.2233   27.9956 C.ar    1  UNL1       -0.0206
      2 C           1.5371   -0.4052   28.8358 C.ar    1  UNL1       -0.0042
      3 C           0.2822    0.3455   28.5015 C.ar    1  UNL1       -0.0003
      4 C           0.2564    1.2781   27.3270 C.ar    1  UNL1        0.0001
      5 C           1.4856    1.4601   26.4868 C.ar    1  UNL1       -0.0003
      6 C           2.7405    0.7094   26.8211 C.ar    1  UNL1       -0.0042
      7 C           6.8647   -3.5391   27.6980 C.3     1  UNL1        0.0897
      8 N           5.9050   -2.4980   28.1931 N.3     1  UNL1       -0.2708
      9 C           5.9995   -1.7599   29.4956 C.3     1  UNL1        0.0816
     10 C           4.8352   -0.8180   29.5801 C.3     1  UNL1        0.0981
     11 C           4.0211   -0.9739   28.3299 C.3     1  UNL1        0.0483
     12 C           4.6823   -2.0122   27.4727 C.3     1  UNL1        0.0770
     13 C           4.5373    0.1159   30.7155 C.2     1  UNL1        0.2274
     14 O           5.1252    1.4958   30.7256 O.2     1  UNL1       -0.2747
     15 N           3.6514   -0.3301   31.8408 N.am    1  UNL1       -0.2839
     16 H           3.2655   -1.2358   31.8341 H       1  UNL1        0.1549
     17 C           3.3535    0.6037   32.9762 C.ar    1  UNL1        0.0504
     18 C           2.2892    1.6502   32.8271 C.ar    1  UNL1        0.0155
     19 C           1.9913    2.5840   33.9626 C.ar    1  UNL1        0.0127
     20 C           2.7577    2.4714   35.2471 C.ar    1  UNL1        0.0578
     21 CL          2.4598    3.4053   36.3825 Cl      1  UNL1       -0.0822
     22 C           3.8220    1.4250   35.3961 C.ar    1  UNL1        0.0127
     23 C           4.1199    0.4912   34.2607 C.ar    1  UNL1        0.0155
     24 C          -0.9985    2.0288   26.9927 C.2     1  UNL1        0.0047
     25 C          -0.9165    3.3513   26.2897 C.2     1  UNL1        0.0580
     26 C          -2.1714    4.1020   25.9554 C.2     1  UNL1        0.2497
     27 O          -2.0975    5.3655   25.1504 O.2     1  UNL1       -0.2698
     28 N          -3.5001    3.5892   26.4261 N.am    1  UNL1       -0.2794
     29 H          -3.5487    2.7599   26.9544 H       1  UNL1        0.1552
     30 C          -4.7549    4.3400   26.0917 C.ar    1  UNL1        0.0636
     31 C          -5.2513    5.4176   27.0095 C.ar    1  UNL1        0.0159
     32 C          -6.5061    6.1683   26.6751 C.ar    1  UNL1        0.0014
     33 C          -7.2645    5.8414   25.4229 C.ar    1  UNL1        0.0013
     34 C          -6.7681    4.7638   24.5051 C.ar    1  UNL1        0.0153
     35 C          -5.5133    4.0131   24.8396 C.ar    1  UNL1        0.0552
     36 N          -5.0169    2.9354   23.9218 N.pl3   1  UNL1       -0.3560
     37 H          -5.5147    2.7209   23.1000 H       1  UNL1        0.1424
     38 H          -4.1934    2.4427   24.1413 H       1  UNL1        0.1424
@<TRIPOS>BOND
     1     7     8    1
     2     8     9    1
     3     9    10    1
     4    10    13    1
     5    13    14    2
     6    13    15   am
     7    15    17    1
     8    17    18   ar
     9    18    19   ar
    10    19    20   ar
    11    20    21    1
    12    20    22   ar
    13    22    23   ar
    14    10    11    1
    15    11     1    1
    16     1     2   ar
    17     2     3   ar
    18     3     4   ar
    19     4    24    1
    20    24    25    2
    21    25    26    1
    22    26    27    2
    23    26    28   am
    24    28    30    1
    25    30    31   ar
    26    31    32   ar
    27    32    33   ar
    28    33    34   ar
    29    34    35   ar
    30    35    36    1
    31     4     5   ar
    32     5     6   ar
    33    11    12    1
    34    12     8    1
    35    23    17   ar
    36     6     1   ar
    37    35    30   ar
    38    15    16    1
    39    28    29    1
    40    36    37    1
    41    36    38    1
@<TRIPOS>MOLECULE
*****
 38 41 0 0 0
SMALL
GASTEIGER

@<TRIPOS>ATOM
      1 C           1.3142    2.0303   28.9125 C.ar    1  UNL1       -0.0206
      2 C           0.0573    1.5455   28.2528 C.ar    1  UNL1       -0.0042
      3 C           0.0731    1.1548   26.8047 C.ar    1  UNL1       -0.0003
      4 C           1.3457    1.2489   26.0162 C.ar    1  UNL1        0.0001
      5 C           2.6026    1.7337   26.6759 C.ar    1  UNL1       -0.0003
      6 C           2.5868    2.1244   28.1240 C.ar    1  UNL1       -0.0042
      7 C           0.3858    4.6650   33.3933 C.3     1  UNL1        0.0897
      8 N           0.8717    3.6320   32.4203 N.3     1  UNL1       -0.2708
      9 C           1.6770    2.4123   32.7580 C.3     1  UNL1        0.0816
     10 C           1.9407    1.6639   31.4851 C.3     1  UNL1        0.0981
     11 C           1.2985    2.4210   30.3606 C.3     1  UNL1        0.0483
     12 C           0.6378    3.6374   30.9386 C.3     1  UNL1        0.0770
     13 C           2.7113    0.3832   31.3588 C.2     1  UNL1        0.2274
     14 O           2.0509   -0.8363   30.7872 O.2     1  UNL1       -0.2747
     15 N           4.1424    0.3220   31.8041 N.am    1  UNL1       -0.2839
     16 H           4.5758    1.1224   32.1793 H       1  UNL1        0.1549
     17 C           4.9130   -0.9587   31.6778 C.ar    1  UNL1        0.0504
     18 C           4.9321   -1.9377   32.8141 C.ar    1  UNL1        0.0155
     19 C           5.7028   -3.2184   32.6878 C.ar    1  UNL1        0.0127
     20 C           6.4543   -3.5200   31.4252 C.ar    1  UNL1        0.0578
     21 CL          7.2250   -4.8008   31.2990 Cl      1  UNL1       -0.0822
     22 C           6.4353   -2.5411   30.2889 C.ar    1  UNL1        0.0127
     23 C           5.6646   -1.2604   30.4152 C.ar    1  UNL1        0.0155
     24 C           1.3614    0.8582   24.5681 C.2     1  UNL1        0.0047
     25 C           2.6380    0.9359   23.7842 C.2     1  UNL1        0.0580
     26 C           2.6538    0.5452   22.3360 C.2     1  UNL1        0.2497
     27 O           1.3893    0.5988   21.5309 O.2     1  UNL1       -0.2698
     28 N           3.9340    0.1009   21.6929 N.am    1  UNL1       -0.2794
     29 H           4.7640    0.0657   22.2213 H       1  UNL1        0.1552
     30 C           3.9497   -0.2898   20.2448 C.ar    1  UNL1        0.0636
     31 C           3.8737   -1.7369   19.8575 C.ar    1  UNL1        0.0159
     32 C           3.8894   -2.1275   18.4093 C.ar    1  UNL1        0.0014
     33 C           3.9811   -1.0710   17.3485 C.ar    1  UNL1        0.0013
     34 C           4.0572    0.3762   17.7358 C.ar    1  UNL1        0.0153
     35 C           4.0415    0.7667   19.1840 C.ar    1  UNL1        0.0552
     36 N           4.1175    2.2139   19.5713 N.pl3   1  UNL1       -0.3560
     37 H           4.1777    2.9073   18.8751 H       1  UNL1        0.1424
     38 H           4.1072    2.4702   20.5218 H       1  UNL1        0.1424
@<TRIPOS>BOND
     1     7     8    1
     2     8     9    1
     3     9    10    1
     4    10    13    1
     5    13    14    2
     6    13    15   am
     7    15    17    1
     8    17    18   ar
     9    18    19   ar
    10    19    20   ar
    11    20    21    1
    12    20    22   ar
    13    22    23   ar
    14    10    11    1
    15    11     1    1
    16     1     2   ar
    17     2     3   ar
    18     3     4   ar
    19     4    24    1
    20    24    25    2
    21    25    26    1
    22    26    27    2
    23    26    28   am
    24    28    30    1
    25    30    31   ar
    26    31    32   ar
    27    32    33   ar
    28    33    34   ar
    29    34    35   ar
    30    35    36    1
    31     4     5   ar
    32     5     6   ar
    33    11    12    1
    34    12     8    1
    35    23    17   ar
    36     6     1   ar
    37    35    30   ar
    38    15    16    1
    39    28    29    1
    40    36    37    1
    41    36    38    1
@<TRIPOS>MOLECULE
*****
 38 41 0 0 0
SMALL
GASTEIGER

@<TRIPOS>ATOM
      1 C           2.8417   -1.3429   20.6764 C.ar    1  UNL1       -0.0206
      2 C           3.3416   -0.9814   22.0436 C.ar    1  UNL1       -0.0042
      3 C           2.5760   -0.0068   22.8887 C.ar    1  UNL1       -0.0003
      4 C           1.3105    0.6063   22.3665 C.ar    1  UNL1        0.0001
      5 C           0.8106    0.2449   20.9992 C.ar    1  UNL1       -0.0003
      6 C           1.5762   -0.7297   20.1542 C.ar    1  UNL1       -0.0042
      7 C           4.9864   -5.8134   18.8611 C.3     1  UNL1        0.0897
      8 N           4.5930   -4.3723   18.9969 N.3     1  UNL1       -0.2708
      9 C           4.9774   -3.2618   18.0645 C.3     1  UNL1        0.0816
     10 C           4.3681   -1.9919   18.5803 C.3     1  UNL1        0.0981
     11 C           3.6072   -2.3174   19.8313 C.3     1  UNL1        0.0483
     12 C           3.7462   -3.7886   20.0888 C.3     1  UNL1        0.0770
     13 C           4.4971   -0.6346   17.9547 C.2     1  UNL1        0.2274
     14 O           4.3058   -0.4690   16.4762 O.2     1  UNL1       -0.2747
     15 N           4.8173    0.5570   18.8077 N.am    1  UNL1       -0.2839
     16 H           4.9429    0.4482   19.7781 H       1  UNL1        0.1549
     17 C           4.9463    1.9142   18.1821 C.ar    1  UNL1        0.0504
     18 C           3.8210    2.9000   18.2904 C.ar    1  UNL1        0.0155
     19 C           3.9500    4.2572   17.6649 C.ar    1  UNL1        0.0127
     20 C           5.2044    4.6286   16.9311 C.ar    1  UNL1        0.0578
     21 CL          5.3334    5.9859   16.3055 Cl      1  UNL1       -0.0822
     22 C           6.3298    3.6429   16.8227 C.ar    1  UNL1        0.0127
     23 C           6.2007    2.2857   17.4483 C.ar    1  UNL1        0.0155
     24 C           0.5450    1.5809   23.2116 C.2     1  UNL1        0.0047
     25 C           0.2777    1.2733   24.6552 C.2     1  UNL1        0.0580
     26 C          -0.4878    2.2478   25.5003 C.2     1  UNL1        0.2497
     27 O          -0.1383    2.4205   26.9488 O.2     1  UNL1       -0.2698
     28 N          -1.6029    3.0496   24.8972 N.am    1  UNL1       -0.2794
     29 H          -1.8323    2.9363   23.9465 H       1  UNL1        0.1552
     30 C          -2.3683    4.0241   25.7424 C.ar    1  UNL1        0.0636
     31 C          -3.7957    3.7414   26.1068 C.ar    1  UNL1        0.0159
     32 C          -4.5610    4.7160   26.9520 C.ar    1  UNL1        0.0014
     33 C          -3.8990    5.9732   27.4329 C.ar    1  UNL1        0.0013
     34 C          -2.4717    6.2558   27.0685 C.ar    1  UNL1        0.0153
     35 C          -1.7063    5.2813   26.2233 C.ar    1  UNL1        0.0552
     36 N          -0.2790    5.5640   25.8589 N.pl3   1  UNL1       -0.3560
     37 H           0.1555    6.3891   26.1745 H       1  UNL1        0.1424
     38 H           0.2234    4.9244   25.3041 H       1  UNL1        0.1424
@<TRIPOS>BOND
     1     7     8    1
     2     8     9    1
     3     9    10    1
     4    10    13    1
     5    13    14    2
     6    13    15   am
     7    15    17    1
     8    17    18   ar
     9    18    19   ar
    10    19    20   ar
    11    20    21    1
    12    20    22   ar
    13    22    23   ar
    14    10    11    1
    15    11     1    1
    16     1     2   ar
    17     2     3   ar
    18     3     4   ar
    19     4    24    1
    20    24    25    2
    21    25    26    1
    22    26    27    2
    23    26    28   am
    24    28    30    1
    25    30    31   ar
    26    31    32   ar
    27    32    33   ar
    28    33    34   ar
    29    34    35   ar
    30    35    36    1
    31     4     5   ar
    32     5     6   ar
    33    11    12    1
    34    12     8    1
    35    23    17   ar
    36     6     1   ar
    37    35    30   ar
    38    15    16    1
    39    28    29    1
    40    36    37    1
    41    36    38    1
