@<TRIPOS>MOLECULE
*****
 48 53 0 0 0
SMALL
GASTEIGER

@<TRIPOS>ATOM
      1 N           3.6804   -1.2439   31.6836 N.am    1  UNL1       -0.2681
      2 C           2.7993   -0.3383   30.8752 C.2     1  UNL1        0.3082
      3 O           2.6885    1.1145   31.2318 O.2     1  UNL1       -0.2522
      4 N           2.0289   -0.8854   29.7102 N.am    1  UNL1       -0.2681
      5 H           3.7532   -2.1974   31.4495 H       1  UNL1        0.1564
      6 H           2.1017   -1.8389   29.4761 H       1  UNL1        0.1564
      7 C           5.9914    0.3975   35.1786 C.ar    1  UNL1        0.0537
      8 C           5.0543   -0.7572   35.3749 C.ar    1  UNL1        0.0058
      9 C           4.2840   -1.3043   34.2099 C.ar    1  UNL1        0.0149
     10 C           4.4508   -0.6967   32.8486 C.ar    1  UNL1        0.0516
     11 C           5.3879    0.4580   32.6523 C.ar    1  UNL1        0.0149
     12 C           6.1581    1.0051   33.8174 C.ar    1  UNL1        0.0058
     13 C           6.6737    2.2429   38.6785 C.3     1  UNL1        0.1518
     14 C           5.5849    2.8411   39.5191 C.3     1  UNL1        0.0310
     15 C           4.2792    2.6149   38.8161 C.3     1  UNL1        0.0237
     16 C           4.5612    1.8769   37.5410 C.3     1  UNL1        0.0942
     17 N           6.0411    1.6471   37.4559 N.am    1  UNL1       -0.2695
     18 C           6.7617    0.9446   36.3437 C.2     1  UNL1        0.2493
     19 O           8.2527    0.7894   36.3963 O.2     1  UNL1       -0.2699
     20 N           8.8441    0.9461   39.2768 N.am    1  UNL1       -0.3275
     21 C           8.1381    2.2411   39.0034 C.2     1  UNL1        0.2375
     22 O           8.8965    3.5341   39.0550 O.2     1  UNL1       -0.2736
     23 H           9.8052    0.9449   39.4900 H       1  UNL1        0.1450
     24 H           8.3464    0.0974   39.2429 H       1  UNL1        0.1450
     25 C           1.1478    0.0201   28.9018 C.ar    1  UNL1        0.0516
     26 C           1.7522    0.9444   27.8868 C.ar    1  UNL1        0.0148
     27 C           0.8711    1.8500   27.0784 C.ar    1  UNL1        0.0043
     28 C          -0.6145    1.8314   27.2851 C.ar    1  UNL1        0.0361
     29 C          -1.2189    0.9071   28.3002 C.ar    1  UNL1        0.0043
     30 C          -0.3377    0.0014   29.1086 C.ar    1  UNL1        0.0148
     31 C          -1.4957    2.7370   26.4768 C.ar    1  UNL1        0.1680
     32 N          -2.4123    3.7033   27.1668 N.ar    1  UNL1       -0.1944
     33 C          -3.2934    4.6089   26.3584 C.ar    1  UNL1        0.2240
     34 N          -3.2580    4.5482   24.8600 N.ar    1  UNL1       -0.1807
     35 C          -2.3414    3.5818   24.1700 C.ar    1  UNL1        0.2240
     36 N          -1.4602    2.6762   24.9785 N.ar    1  UNL1       -0.1944
     37 N          -4.2100    5.5752   27.0484 N.pl3   1  UNL1       -0.2729
     38 C          -3.6427    6.6488   27.9290 C.3     1  UNL1        0.1257
     39 C          -4.5593    7.6151   28.6190 C.3     1  UNL1        0.1637
     40 O          -6.0432    7.5078   28.4284 O.3     1  UNL1       -0.3501
     41 C          -6.6106    6.4342   27.5477 C.3     1  UNL1        0.1637
     42 C          -5.6940    5.4679   26.8577 C.3     1  UNL1        0.1257
     43 N          -2.3059    3.5211   22.6717 N.pl3   1  UNL1       -0.2729
     44 C          -1.0208    3.2083   21.9640 C.3     1  UNL1        0.1257
     45 C          -0.9854    3.1476   20.4656 C.3     1  UNL1        0.1637
     46 O          -2.2349    3.3996   19.6750 O.3     1  UNL1       -0.3501
     47 C          -3.5199    3.7124   20.3827 C.3     1  UNL1        0.1637
     48 C          -3.5555    3.7731   21.8811 C.3     1  UNL1        0.1257
@<TRIPOS>BOND
     1    20    21   am
     2    21    22    2
     3    13    21    1
     4    13    14    1
     5    14    15    1
     6    15    16    1
     7    16    17    1
     8    17    18   am
     9    18    19    2
    10    18     7    1
    11     7     8   ar
    12     8     9   ar
    13     9    10   ar
    14    10     1    1
    15     1     2   am
    16     2     3    2
    17     2     4   am
    18     4    25    1
    19    25    26   ar
    20    26    27   ar
    21    27    28   ar
    22    28    31    1
    23    31    32   ar
    24    32    33   ar
    25    33    37    1
    26    37    38    1
    27    38    39    1
    28    39    40    1
    29    40    41    1
    30    41    42    1
    31    33    34   ar
    32    34    35   ar
    33    35    43    1
    34    43    44    1
    35    44    45    1
    36    45    46    1
    37    46    47    1
    38    47    48    1
    39    35    36   ar
    40    28    29   ar
    41    29    30   ar
    42    10    11   ar
    43    11    12   ar
    44    17    13    1
    45    12     7   ar
    46    30    25   ar
    47    36    31   ar
    48    42    37    1
    49    48    43    1
    50    20    23    1
    51    20    24    1
    52     1     5    1
    53     4     6    1
@<TRIPOS>MOLECULE
*****
 48 53 0 0 0
SMALL
GASTEIGER

@<TRIPOS>ATOM
      1 N           3.7300   -1.2641   31.6435 N.am    1  UNL1       -0.2681
      2 C           2.8437   -0.3565   30.8431 C.2     1  UNL1        0.3082
      3 O           2.7331    1.0948   31.2056 O.2     1  UNL1       -0.2522
      4 N           2.0678   -0.9003   29.6801 N.am    1  UNL1       -0.2681
      5 H           3.8026   -2.2166   31.4055 H       1  UNL1        0.1564
      6 H           2.1403   -1.8528   29.4422 H       1  UNL1        0.1564
      7 C           6.0576    0.3672   35.1322 C.ar    1  UNL1        0.0537
      8 C           6.2770    0.9256   33.7574 C.ar    1  UNL1        0.0058
      9 C           5.5011    0.3818   32.5945 C.ar    1  UNL1        0.0149
     10 C           4.5059   -0.7203   32.8064 C.ar    1  UNL1        0.0516
     11 C           4.2865   -1.2786   34.1812 C.ar    1  UNL1        0.0149
     12 C           5.0624   -0.7349   35.3441 C.ar    1  UNL1        0.0058
     13 C           6.7581    2.2148   38.6274 C.3     1  UNL1        0.1518
     14 C           5.6749    2.8229   39.4681 C.3     1  UNL1        0.0310
     15 C           4.3667    2.6050   38.7671 C.3     1  UNL1        0.0237
     16 C           4.6415    1.8623   37.4932 C.3     1  UNL1        0.0942
     17 N           6.1195    1.6211   37.4068 N.am    1  UNL1       -0.2695
     18 C           6.8335    0.9110   36.2952 C.2     1  UNL1        0.2493
     19 O           8.3234    0.7446   36.3464 O.2     1  UNL1       -0.2699
     20 N           8.9168    0.9041   39.2376 N.am    1  UNL1       -0.3275
     21 C           8.2228    2.2025   38.9505 C.2     1  UNL1        0.2375
     22 O           8.9937    3.4888   38.9866 O.2     1  UNL1       -0.2736
     23 H           9.8782    0.8961   39.4497 H       1  UNL1        0.1450
     24 H           8.4109    0.0598   39.2139 H       1  UNL1        0.1450
     25 C           1.1814    0.0073   28.8798 C.ar    1  UNL1        0.0516
     26 C          -0.3007    0.0032   29.1108 C.ar    1  UNL1        0.0148
     27 C          -1.1870    0.9107   28.3104 C.ar    1  UNL1        0.0043
     28 C          -0.5913    1.8224   27.2789 C.ar    1  UNL1        0.0361
     29 C           0.8908    1.8265   27.0478 C.ar    1  UNL1        0.0043
     30 C           1.7771    0.9189   27.8483 C.ar    1  UNL1        0.0148
     31 C          -1.4777    2.7300   26.4785 C.ar    1  UNL1        0.1680
     32 N          -1.4548    2.6702   24.9799 N.ar    1  UNL1       -0.1944
     33 C          -2.3412    3.5778   24.1795 C.ar    1  UNL1        0.2240
     34 N          -3.2505    4.5452   24.8778 N.ar    1  UNL1       -0.1807
     35 C          -3.2733    4.6049   26.3764 C.ar    1  UNL1        0.2240
     36 N          -2.3869    3.6973   27.1768 N.ar    1  UNL1       -0.1944
     37 N          -2.3184    3.5180   22.6809 N.pl3   1  UNL1       -0.2729
     38 C          -3.5872    3.7063   21.9034 C.3     1  UNL1        0.1257
     39 C          -3.5643    3.6466   20.4047 C.3     1  UNL1        0.1637
     40 O          -2.2727    3.3985   19.6836 O.3     1  UNL1       -0.3501
     41 C          -1.0038    3.2102   20.4612 C.3     1  UNL1        0.1637
     42 C          -1.0266    3.2700   21.9598 C.3     1  UNL1        0.1257
     43 N          -4.1825    5.5722   27.0747 N.pl3   1  UNL1       -0.2729
     44 C          -3.6054    6.6532   27.9399 C.3     1  UNL1        0.1257
     45 C          -4.5146    7.6205   28.6381 C.3     1  UNL1        0.1637
     46 O          -6.0010    7.5069   28.4712 O.3     1  UNL1       -0.3501
     47 C          -6.5781    6.4260   27.6061 C.3     1  UNL1        0.1637
     48 C          -5.6689    5.4586   26.9078 C.3     1  UNL1        0.1257
@<TRIPOS>BOND
     1    20    21   am
     2    21    22    2
     3    13    21    1
     4    13    14    1
     5    14    15    1
     6    15    16    1
     7    16    17    1
     8    17    18   am
     9    18    19    2
    10    18     7    1
    11     7     8   ar
    12     8     9   ar
    13     9    10   ar
    14    10     1    1
    15     1     2   am
    16     2     3    2
    17     2     4   am
    18     4    25    1
    19    25    26   ar
    20    26    27   ar
    21    27    28   ar
    22    28    31    1
    23    31    32   ar
    24    32    33   ar
    25    33    37    1
    26    37    38    1
    27    38    39    1
    28    39    40    1
    29    40    41    1
    30    41    42    1
    31    33    34   ar
    32    34    35   ar
    33    35    43    1
    34    43    44    1
    35    44    45    1
    36    45    46    1
    37    46    47    1
    38    47    48    1
    39    35    36   ar
    40    28    29   ar
    41    29    30   ar
    42    10    11   ar
    43    11    12   ar
    44    17    13    1
    45    12     7   ar
    46    30    25   ar
    47    36    31   ar
    48    42    37    1
    49    48    43    1
    50    20    23    1
    51    20    24    1
    52     1     5    1
    53     4     6    1
@<TRIPOS>MOLECULE
*****
 48 53 0 0 0
SMALL
GASTEIGER

@<TRIPOS>ATOM
      1 N           2.6289    3.6442   29.8121 N.am    1  UNL1       -0.2681
      2 C           3.2208    2.5272   29.0048 C.2     1  UNL1        0.3082
      3 O           3.7220    1.2905   29.6898 O.2     1  UNL1       -0.2522
      4 N           3.3116    2.6469   27.5122 N.am    1  UNL1       -0.2681
      5 H           2.3000    4.4559   29.3624 H       1  UNL1        0.1564
      6 H           2.9826    3.4586   27.0626 H       1  UNL1        0.1564
      7 C           2.3567    3.2854   34.2895 C.ar    1  UNL1        0.0537
      8 C           3.1971    4.3643   33.6733 C.ar    1  UNL1        0.0058
      9 C           3.2878    4.4839   32.1809 C.ar    1  UNL1        0.0149
     10 C           2.5381    3.5246   31.3046 C.ar    1  UNL1        0.0516
     11 C           1.6978    2.4457   31.9208 C.ar    1  UNL1        0.0149
     12 C           1.6070    2.3261   33.4132 C.ar    1  UNL1        0.0058
     13 C           3.1393    1.9378   37.9897 C.3     1  UNL1        0.1518
     14 C           4.1373    0.8555   38.2772 C.3     1  UNL1        0.0310
     15 C           4.7358    0.4185   36.9729 C.3     1  UNL1        0.0237
     16 C           4.1076    1.2308   35.8795 C.3     1  UNL1        0.0942
     17 N           3.1209    2.1697   36.5079 N.am    1  UNL1       -0.2695
     18 C           2.2659    3.1657   35.7820 C.2     1  UNL1        0.2493
     19 O           1.3202    4.0421   36.5485 O.2     1  UNL1       -0.2699
     20 N           0.8138    2.5075   38.9988 N.am    1  UNL1       -0.3275
     21 C           2.3059    2.6611   39.0058 C.2     1  UNL1        0.2375
     22 O           2.9647    3.5380   40.0290 O.2     1  UNL1       -0.2736
     23 H           0.2669    2.9822   39.6657 H       1  UNL1        0.1450
     24 H           0.3814    1.9319   38.3272 H       1  UNL1        0.1450
     25 C           3.9035    1.5298   26.7049 C.ar    1  UNL1        0.0516
     26 C           5.3489    1.5764   26.3068 C.ar    1  UNL1        0.0148
     27 C           5.9408    0.4594   25.4994 C.ar    1  UNL1        0.0043
     28 C           5.0873   -0.7043   25.0902 C.ar    1  UNL1        0.0361
     29 C           3.6418   -0.7509   25.4883 C.ar    1  UNL1        0.0043
     30 C           3.0499    0.3663   26.2957 C.ar    1  UNL1        0.0148
     31 C           5.6792   -1.8213   24.2828 C.ar    1  UNL1        0.1680
     32 N           6.1731   -3.0614   24.9672 N.ar    1  UNL1       -0.1944
     33 C           6.7650   -4.1784   24.1599 C.ar    1  UNL1        0.2240
     34 N           6.8630   -4.0554   22.6681 N.ar    1  UNL1       -0.1807
     35 C           6.3691   -2.8154   21.9837 C.ar    1  UNL1        0.2240
     36 N           5.7771   -1.6984   22.7911 N.ar    1  UNL1       -0.1944
     37 N           7.2590   -5.4184   24.8442 N.pl3   1  UNL1       -0.2729
     38 C           8.0834   -6.4159   24.0857 C.3     1  UNL1        0.1257
     39 C           8.5773   -7.6559   24.7701 C.3     1  UNL1        0.1637
     40 O           8.2469   -7.8984   26.2130 O.3     1  UNL1       -0.3501
     41 C           7.4225   -6.9009   26.9716 C.3     1  UNL1        0.1637
     42 C           6.9286   -5.6609   26.2872 C.3     1  UNL1        0.1257
     43 N           6.4670   -2.6924   20.4920 N.pl3   1  UNL1       -0.2729
     44 C           5.3224   -3.1295   19.6266 C.3     1  UNL1        0.1257
     45 C           5.4203   -3.0065   18.1349 C.3     1  UNL1        0.1637
     46 O           6.6629   -2.4465   17.5085 O.3     1  UNL1       -0.3501
     47 C           7.8075   -2.0094   18.3738 C.3     1  UNL1        0.1637
     48 C           7.7096   -2.1324   19.8656 C.3     1  UNL1        0.1257
@<TRIPOS>BOND
     1    20    21   am
     2    21    22    2
     3    13    21    1
     4    13    14    1
     5    14    15    1
     6    15    16    1
     7    16    17    1
     8    17    18   am
     9    18    19    2
    10    18     7    1
    11     7     8   ar
    12     8     9   ar
    13     9    10   ar
    14    10     1    1
    15     1     2   am
    16     2     3    2
    17     2     4   am
    18     4    25    1
    19    25    26   ar
    20    26    27   ar
    21    27    28   ar
    22    28    31    1
    23    31    32   ar
    24    32    33   ar
    25    33    37    1
    26    37    38    1
    27    38    39    1
    28    39    40    1
    29    40    41    1
    30    41    42    1
    31    33    34   ar
    32    34    35   ar
    33    35    43    1
    34    43    44    1
    35    44    45    1
    36    45    46    1
    37    46    47    1
    38    47    48    1
    39    35    36   ar
    40    28    29   ar
    41    29    30   ar
    42    10    11   ar
    43    11    12   ar
    44    17    13    1
    45    12     7   ar
    46    30    25   ar
    47    36    31   ar
    48    42    37    1
    49    48    43    1
    50    20    23    1
    51    20    24    1
    52     1     5    1
    53     4     6    1
@<TRIPOS>MOLECULE
*****
 48 53 0 0 0
SMALL
GASTEIGER

@<TRIPOS>ATOM
      1 N           3.7541    1.9175   29.4156 N.am    1  UNL1       -0.2681
      2 C           2.5093    2.3018   28.6721 C.2     1  UNL1        0.3082
      3 O           1.2530    2.6207   29.4272 O.2     1  UNL1       -0.2522
      4 N           2.5208    2.3672   27.1735 N.am    1  UNL1       -0.2681
      5 H           4.5786    1.7082   28.9200 H       1  UNL1        0.1564
      6 H           3.3453    2.1580   26.6780 H       1  UNL1        0.1564
      7 C           3.7198    1.7214   33.9112 C.ar    1  UNL1        0.0537
      8 C           4.2254    2.9517   33.2180 C.ar    1  UNL1        0.0058
      9 C           4.2369    3.0171   31.7195 C.ar    1  UNL1        0.0149
     10 C           3.7426    1.8521   30.9142 C.ar    1  UNL1        0.0516
     11 C           3.2370    0.6218   31.6073 C.ar    1  UNL1        0.0149
     12 C           3.2256    0.5564   33.1058 C.ar    1  UNL1        0.0058
     13 C           2.7942    2.7040   37.6925 C.3     1  UNL1        0.1518
     14 C           1.8879    3.8452   38.0476 C.3     1  UNL1        0.0310
     15 C           1.4356    4.4922   36.7721 C.3     1  UNL1        0.0237
     16 C           2.0626    3.7508   35.6287 C.3     1  UNL1        0.0942
     17 N           2.9022    2.6457   36.1975 N.am    1  UNL1       -0.2695
     18 C           3.7083    1.6559   35.4098 C.2     1  UNL1        0.2493
     19 O           4.5030    0.6008   36.1205 O.2     1  UNL1       -0.2699
     20 N           2.9604    0.3865   38.8554 N.am    1  UNL1       -0.3275
     21 C           3.4734    1.7828   38.6621 C.2     1  UNL1        0.2375
     22 O           4.6655    2.2580   39.4387 O.2     1  UNL1       -0.2736
     23 H           3.4062   -0.2180   39.4918 H       1  UNL1        0.1450
     24 H           2.1779    0.0747   38.3457 H       1  UNL1        0.1450
     25 C           1.2760    2.7515   26.4301 C.ar    1  UNL1        0.0516
     26 C           0.2243    1.7207   26.1450 C.ar    1  UNL1        0.0148
     27 C          -1.0205    2.1050   25.4015 C.ar    1  UNL1        0.0043
     28 C          -1.2136    3.5202   24.9431 C.ar    1  UNL1        0.0361
     29 C          -0.1619    4.5510   25.2282 C.ar    1  UNL1        0.0043
     30 C           1.0830    4.1666   25.9717 C.ar    1  UNL1        0.0148
     31 C          -2.4584    3.9045   24.1996 C.ar    1  UNL1        0.1680
     32 N          -3.6497    4.4232   24.9491 N.ar    1  UNL1       -0.1944
     33 C          -4.8944    4.8075   24.2056 C.ar    1  UNL1        0.2240
     34 N          -4.9480    4.6731   22.7126 N.ar    1  UNL1       -0.1807
     35 C          -3.7567    4.1543   21.9631 C.ar    1  UNL1        0.2240
     36 N          -2.5119    3.7700   22.7066 N.ar    1  UNL1       -0.1944
     37 N          -6.0857    5.3262   24.9551 N.pl3   1  UNL1       -0.2729
     38 C          -7.4220    5.4045   24.2782 C.3     1  UNL1        0.1257
     39 C          -8.6132    5.9232   25.0277 C.3     1  UNL1        0.1637
     40 O          -8.4683    6.3637   26.4541 O.3     1  UNL1       -0.3501
     41 C          -7.1320    6.2855   27.1312 C.3     1  UNL1        0.1637
     42 C          -5.9407    5.7668   26.3817 C.3     1  UNL1        0.1257
     43 N          -3.8102    4.0199   20.4701 N.pl3   1  UNL1       -0.2729
     44 C          -2.5554    4.1556   19.6594 C.3     1  UNL1        0.1257
     45 C          -2.6089    4.0212   18.1664 C.3     1  UNL1        0.1637
     46 O          -3.9171    3.7510   17.4841 O.3     1  UNL1       -0.3501
     47 C          -5.1719    3.6152   18.2947 C.3     1  UNL1        0.1637
     48 C          -5.1184    3.7496   19.7878 C.3     1  UNL1        0.1257
@<TRIPOS>BOND
     1    20    21   am
     2    21    22    2
     3    13    21    1
     4    13    14    1
     5    14    15    1
     6    15    16    1
     7    16    17    1
     8    17    18   am
     9    18    19    2
    10    18     7    1
    11     7     8   ar
    12     8     9   ar
    13     9    10   ar
    14    10     1    1
    15     1     2   am
    16     2     3    2
    17     2     4   am
    18     4    25    1
    19    25    26   ar
    20    26    27   ar
    21    27    28   ar
    22    28    31    1
    23    31    32   ar
    24    32    33   ar
    25    33    37    1
    26    37    38    1
    27    38    39    1
    28    39    40    1
    29    40    41    1
    30    41    42    1
    31    33    34   ar
    32    34    35   ar
    33    35    43    1
    34    43    44    1
    35    44    45    1
    36    45    46    1
    37    46    47    1
    38    47    48    1
    39    35    36   ar
    40    28    29   ar
    41    29    30   ar
    42    10    11   ar
    43    11    12   ar
    44    17    13    1
    45    12     7   ar
    46    30    25   ar
    47    36    31   ar
    48    42    37    1
    49    48    43    1
    50    20    23    1
    51    20    24    1
    52     1     5    1
    53     4     6    1
@<TRIPOS>MOLECULE
*****
 48 53 0 0 0
SMALL
GASTEIGER

@<TRIPOS>ATOM
      1 N           3.5938    0.9303   29.3665 N.am    1  UNL1       -0.2681
      2 C           2.3767    1.4749   28.6795 C.2     1  UNL1        0.3082
      3 O           1.3011    2.1470   29.4803 O.2     1  UNL1       -0.2522
      4 N           2.2351    1.3474   27.1916 N.am    1  UNL1       -0.2681
      5 H           4.2997    0.4891   28.8408 H       1  UNL1        0.1564
      6 H           2.9411    0.9063   26.6659 H       1  UNL1        0.1564
      7 C           4.0184    1.3125   33.8300 C.ar    1  UNL1        0.0537
      8 C           3.5481    0.0211   33.2293 C.ar    1  UNL1        0.0058
      9 C           3.4066   -0.1063   31.7415 C.ar    1  UNL1        0.0149
     10 C           3.7353    1.0577   30.8544 C.ar    1  UNL1        0.0516
     11 C           4.2056    2.3492   31.4551 C.ar    1  UNL1        0.0149
     12 C           4.3472    2.4766   32.9429 C.ar    1  UNL1        0.0058
     13 C           3.3502    2.6678   37.5499 C.3     1  UNL1        0.1518
     14 C           2.3504    3.7399   37.8676 C.3     1  UNL1        0.0310
     15 C           1.7016    4.1640   36.5833 C.3     1  UNL1        0.0237
     16 C           2.3005    3.3541   35.4719 C.3     1  UNL1        0.0942
     17 N           3.3194    2.4294   36.0693 N.am    1  UNL1       -0.2695
     18 C           4.1600    1.4400   35.3179 C.2     1  UNL1        0.2493
     19 O           5.1421    0.5780   36.0544 O.2     1  UNL1       -0.2699
     20 N           5.7105    2.1799   38.5201 N.am    1  UNL1       -0.3275
     21 C           4.2270    1.9588   38.5391 C.2     1  UNL1        0.2375
     22 O           3.6202    1.0286   39.5473 O.2     1  UNL1       -0.2736
     23 H           6.2859    1.7144   39.1694 H       1  UNL1        0.1450
     24 H           6.1088    2.7904   37.8584 H       1  UNL1        0.1450
     25 C           1.0180    1.8920   26.5046 C.ar    1  UNL1        0.0516
     26 C           1.1154    2.3988   25.0962 C.ar    1  UNL1        0.0148
     27 C          -0.1017    2.9435   24.4092 C.ar    1  UNL1        0.0043
     28 C          -1.4163    2.9813   25.1306 C.ar    1  UNL1        0.0361
     29 C          -1.5137    2.4745   26.5391 C.ar    1  UNL1        0.0043
     30 C          -0.2965    1.9299   27.2261 C.ar    1  UNL1        0.0148
     31 C          -2.6334    3.5259   24.4437 C.ar    1  UNL1        0.1680
     32 N          -2.7484    3.4504   22.9500 N.ar    1  UNL1       -0.1944
     33 C          -3.9656    3.9950   22.2630 C.ar    1  UNL1        0.2240
     34 N          -5.0677    4.6152   23.0697 N.ar    1  UNL1       -0.1807
     35 C          -4.9527    4.6907   24.5634 C.ar    1  UNL1        0.2240
     36 N          -3.7355    4.1461   25.2504 N.ar    1  UNL1       -0.1944
     37 N          -4.0806    3.9195   20.7693 N.pl3   1  UNL1       -0.2729
     38 C          -2.8605    4.0898   19.9136 C.3     1  UNL1        0.1257
     39 C          -2.9755    4.0143   18.4199 C.3     1  UNL1        0.1637
     40 O          -4.3106    3.7685   17.7820 O.3     1  UNL1       -0.3501
     41 C          -5.5308    3.5982   18.6377 C.3     1  UNL1        0.1637
     42 C          -5.4158    3.6737   20.1314 C.3     1  UNL1        0.1257
     43 N          -6.0548    5.3108   25.3701 N.pl3   1  UNL1       -0.2729
     44 C          -5.8438    5.6068   26.8255 C.3     1  UNL1        0.1257
     45 C          -6.9458    6.2269   27.6322 C.3     1  UNL1        0.1637
     46 O          -8.2590    6.5511   26.9836 O.3     1  UNL1       -0.3501
     47 C          -8.4700    6.2552   25.5283 C.3     1  UNL1        0.1637
     48 C          -7.3679    5.6350   24.7215 C.3     1  UNL1        0.1257
@<TRIPOS>BOND
     1    20    21   am
     2    21    22    2
     3    13    21    1
     4    13    14    1
     5    14    15    1
     6    15    16    1
     7    16    17    1
     8    17    18   am
     9    18    19    2
    10    18     7    1
    11     7     8   ar
    12     8     9   ar
    13     9    10   ar
    14    10     1    1
    15     1     2   am
    16     2     3    2
    17     2     4   am
    18     4    25    1
    19    25    26   ar
    20    26    27   ar
    21    27    28   ar
    22    28    31    1
    23    31    32   ar
    24    32    33   ar
    25    33    37    1
    26    37    38    1
    27    38    39    1
    28    39    40    1
    29    40    41    1
    30    41    42    1
    31    33    34   ar
    32    34    35   ar
    33    35    43    1
    34    43    44    1
    35    44    45    1
    36    45    46    1
    37    46    47    1
    38    47    48    1
    39    35    36   ar
    40    28    29   ar
    41    29    30   ar
    42    10    11   ar
    43    11    12   ar
    44    17    13    1
    45    12     7   ar
    46    30    25   ar
    47    36    31   ar
    48    42    37    1
    49    48    43    1
    50    20    23    1
    51    20    24    1
    52     1     5    1
    53     4     6    1
@<TRIPOS>MOLECULE
*****
 48 53 0 0 0
SMALL
GASTEIGER

@<TRIPOS>ATOM
      1 N           3.7252   -0.9752   32.0426 N.am    1  UNL1       -0.2681
      2 C           2.9298   -0.2153   31.0229 C.2     1  UNL1        0.3082
      3 O           2.5734    1.2210   31.2679 O.2     1  UNL1       -0.2522
      4 N           2.4907   -0.8917   29.7581 N.am    1  UNL1       -0.2681
      5 H           3.9591   -1.9179   31.8818 H       1  UNL1        0.1564
      6 H           2.7246   -1.8344   29.5973 H       1  UNL1        0.1564
      7 C           5.0423    1.0540   35.8370 C.ar    1  UNL1        0.0537
      8 C           4.7133   -0.4094   35.8444 C.ar    1  UNL1        0.0058
      9 C           4.2743   -1.0858   34.5797 C.ar    1  UNL1        0.0149
     10 C           4.1643   -0.2987   33.3075 C.ar    1  UNL1        0.0516
     11 C           4.4933    1.1647   33.3001 C.ar    1  UNL1        0.0149
     12 C           4.9323    1.8411   34.5649 C.ar    1  UNL1        0.0058
     13 C           4.7964    3.2787   39.1703 C.3     1  UNL1        0.1518
     14 C           3.5360    3.9610   39.6129 C.3     1  UNL1        0.0310
     15 C           2.4648    3.6521   38.6093 C.3     1  UNL1        0.0237
     16 C           3.0632    2.7789   37.5466 C.3     1  UNL1        0.0942
     17 N           4.5042    2.5482   37.8933 N.am    1  UNL1       -0.2695
     18 C           5.4814    1.7304   37.1019 C.2     1  UNL1        0.2493
     19 O           6.8977    1.5891   37.5753 O.2     1  UNL1       -0.2699
     20 N           7.3322    3.8448   39.1742 N.am    1  UNL1       -0.3275
     21 C           6.1172    3.3199   39.8802 C.2     1  UNL1        0.2375
     22 O           6.2230    2.8360   41.2960 O.2     1  UNL1       -0.2736
     23 H           8.1990    3.8718   39.6402 H       1  UNL1        0.1450
     24 H           7.2628    4.1624   38.2450 H       1  UNL1        0.1450
     25 C           1.6953   -0.1319   28.7383 C.ar    1  UNL1        0.0516
     26 C           0.2036   -0.0408   28.8665 C.ar    1  UNL1        0.0148
     27 C          -0.5918    0.7190   27.8468 C.ar    1  UNL1        0.0043
     28 C           0.1045    1.3879   26.6988 C.ar    1  UNL1        0.0361
     29 C           1.5963    1.2968   26.5706 C.ar    1  UNL1        0.0043
     30 C           2.3917    0.5369   27.5904 C.ar    1  UNL1        0.0148
     31 C          -0.6909    2.1478   25.6790 C.ar    1  UNL1        0.1680
     32 N          -1.9676    2.8267   26.0776 N.ar    1  UNL1       -0.1944
     33 C          -2.7630    3.5865   25.0579 C.ar    1  UNL1        0.2240
     34 N          -2.2817    3.6675   23.6395 N.ar    1  UNL1       -0.1807
     35 C          -1.0049    2.9886   23.2409 C.ar    1  UNL1        0.2240
     36 N          -0.2095    2.2287   24.2607 N.ar    1  UNL1       -0.1944
     37 N          -4.0398    4.2655   25.4565 N.pl3   1  UNL1       -0.2729
     38 C          -4.1840    4.8431   26.8332 C.3     1  UNL1        0.1257
     39 C          -5.4608    5.5220   27.2318 C.3     1  UNL1        0.1637
     40 O          -6.5934    5.6234   26.2536 O.3     1  UNL1       -0.3501
     41 C          -6.4492    5.0458   24.8768 C.3     1  UNL1        0.1637
     42 C          -5.1725    4.3668   24.4782 C.3     1  UNL1        0.1257
     43 N          -0.5235    3.0695   21.8226 N.pl3   1  UNL1       -0.2729
     44 C           0.8974    2.7205   21.4917 C.3     1  UNL1        0.1257
     45 C           1.3788    2.8014   20.0734 C.3     1  UNL1        0.1637
     46 O           0.4394    3.2313   18.9859 O.3     1  UNL1       -0.3501
     47 C          -0.9814    3.5803   19.3167 C.3     1  UNL1        0.1637
     48 C          -1.4629    3.4994   20.7351 C.3     1  UNL1        0.1257
@<TRIPOS>BOND
     1    20    21   am
     2    21    22    2
     3    13    21    1
     4    13    14    1
     5    14    15    1
     6    15    16    1
     7    16    17    1
     8    17    18   am
     9    18    19    2
    10    18     7    1
    11     7     8   ar
    12     8     9   ar
    13     9    10   ar
    14    10     1    1
    15     1     2   am
    16     2     3    2
    17     2     4   am
    18     4    25    1
    19    25    26   ar
    20    26    27   ar
    21    27    28   ar
    22    28    31    1
    23    31    32   ar
    24    32    33   ar
    25    33    37    1
    26    37    38    1
    27    38    39    1
    28    39    40    1
    29    40    41    1
    30    41    42    1
    31    33    34   ar
    32    34    35   ar
    33    35    43    1
    34    43    44    1
    35    44    45    1
    36    45    46    1
    37    46    47    1
    38    47    48    1
    39    35    36   ar
    40    28    29   ar
    41    29    30   ar
    42    10    11   ar
    43    11    12   ar
    44    17    13    1
    45    12     7   ar
    46    30    25   ar
    47    36    31   ar
    48    42    37    1
    49    48    43    1
    50    20    23    1
    51    20    24    1
    52     1     5    1
    53     4     6    1
@<TRIPOS>MOLECULE
*****
 48 53 0 0 0
SMALL
GASTEIGER

@<TRIPOS>ATOM
      1 N           3.6579   -1.0010   32.0157 N.am    1  UNL1       -0.2681
      2 C           2.8913   -0.2293   30.9828 C.2     1  UNL1        0.3082
      3 O           2.5664    1.2166   31.2151 O.2     1  UNL1       -0.2522
      4 N           2.4496   -0.9034   29.7177 N.am    1  UNL1       -0.2681
      5 H           3.8711   -1.9500   31.8632 H       1  UNL1        0.1564
      6 H           2.6629   -1.8524   29.5653 H       1  UNL1        0.1564
      7 C           4.9830    1.0214   35.8109 C.ar    1  UNL1        0.0537
      8 C           4.8348    1.8183   34.5488 C.ar    1  UNL1        0.0058
      9 C           4.3931    1.1441   33.2837 C.ar    1  UNL1        0.0149
     10 C           4.0996   -0.3269   33.2808 C.ar    1  UNL1        0.0516
     11 C           4.2478   -1.1237   34.5429 C.ar    1  UNL1        0.0149
     12 C           4.6895   -0.4496   35.8080 C.ar    1  UNL1        0.0058
     13 C           4.7445    3.2417   39.1477 C.3     1  UNL1        0.1518
     14 C           3.4855    3.9247   39.5931 C.3     1  UNL1        0.0310
     15 C           2.4124    3.6185   38.5907 C.3     1  UNL1        0.0237
     16 C           3.0082    2.7461   37.5258 C.3     1  UNL1        0.0942
     17 N           4.4495    2.5133   37.8700 N.am    1  UNL1       -0.2695
     18 C           5.4247    1.6956   37.0760 C.2     1  UNL1        0.2493
     19 O           6.8415    1.5520   37.5471 O.2     1  UNL1       -0.2699
     20 N           7.2775    3.8199   39.1542 N.am    1  UNL1       -0.3275
     21 C           6.0663    3.2803   39.8556 C.2     1  UNL1        0.2375
     22 O           6.1771    2.7794   41.2652 O.2     1  UNL1       -0.2736
     23 H           8.1450    3.8452   39.6189 H       1  UNL1        0.1450
     24 H           7.2048    4.1487   38.2290 H       1  UNL1        0.1450
     25 C           1.6830   -0.1317   28.6849 C.ar    1  UNL1        0.0516
     26 C           0.1892   -0.0325   28.7785 C.ar    1  UNL1        0.0148
     27 C          -0.5773    0.7392   27.7457 C.ar    1  UNL1        0.0043
     28 C           0.1499    1.4117   26.6191 C.ar    1  UNL1        0.0361
     29 C           1.6436    1.3125   26.5255 C.ar    1  UNL1        0.0043
     30 C           2.4102    0.5407   27.5584 C.ar    1  UNL1        0.0148
     31 C          -0.6167    2.1834   25.5863 C.ar    1  UNL1        0.1680
     32 N          -0.0718    2.3213   24.1956 N.ar    1  UNL1       -0.1944
     33 C          -0.8384    3.0930   23.1628 C.ar    1  UNL1        0.2240
     34 N          -2.1500    3.7269   23.5207 N.ar    1  UNL1       -0.1807
     35 C          -2.6949    3.5891   24.9114 C.ar    1  UNL1        0.2240
     36 N          -1.9282    2.8173   25.9442 N.ar    1  UNL1       -0.1944
     37 N          -0.2935    3.2308   21.7721 N.pl3   1  UNL1       -0.2729
     38 C           0.2024    4.5615   21.2893 C.3     1  UNL1        0.1257
     39 C           0.7473    4.6994   19.8986 C.3     1  UNL1        0.1637
     40 O           0.7963    3.5064   18.9907 O.3     1  UNL1       -0.3501
     41 C           0.3004    2.1756   19.4734 C.3     1  UNL1        0.1637
     42 C          -0.2445    2.0377   20.8641 C.3     1  UNL1        0.1257
     43 N          -4.0064    4.2230   25.2693 N.pl3   1  UNL1       -0.2729
     44 C          -4.1622    4.9351   26.5802 C.3     1  UNL1        0.1257
     45 C          -5.4737    5.5690   26.9381 C.3     1  UNL1        0.1637
     46 O          -6.6294    5.4908   25.9851 O.3     1  UNL1       -0.3501
     47 C          -6.4736    4.7787   24.6742 C.3     1  UNL1        0.1637
     48 C          -5.1620    4.1447   24.3162 C.3     1  UNL1        0.1257
@<TRIPOS>BOND
     1    20    21   am
     2    21    22    2
     3    13    21    1
     4    13    14    1
     5    14    15    1
     6    15    16    1
     7    16    17    1
     8    17    18   am
     9    18    19    2
    10    18     7    1
    11     7     8   ar
    12     8     9   ar
    13     9    10   ar
    14    10     1    1
    15     1     2   am
    16     2     3    2
    17     2     4   am
    18     4    25    1
    19    25    26   ar
    20    26    27   ar
    21    27    28   ar
    22    28    31    1
    23    31    32   ar
    24    32    33   ar
    25    33    37    1
    26    37    38    1
    27    38    39    1
    28    39    40    1
    29    40    41    1
    30    41    42    1
    31    33    34   ar
    32    34    35   ar
    33    35    43    1
    34    43    44    1
    35    44    45    1
    36    45    46    1
    37    46    47    1
    38    47    48    1
    39    35    36   ar
    40    28    29   ar
    41    29    30   ar
    42    10    11   ar
    43    11    12   ar
    44    17    13    1
    45    12     7   ar
    46    30    25   ar
    47    36    31   ar
    48    42    37    1
    49    48    43    1
    50    20    23    1
    51    20    24    1
    52     1     5    1
    53     4     6    1
@<TRIPOS>MOLECULE
*****
 48 53 0 0 0
SMALL
GASTEIGER

@<TRIPOS>ATOM
      1 N          -2.9565    3.9859   26.3060 N.am    1  UNL1       -0.2681
      2 C          -1.7549    3.0881   26.3151 C.2     1  UNL1        0.3082
      3 O          -1.2848    2.4514   25.0409 O.2     1  UNL1       -0.2522
      4 N          -1.0234    2.8270   27.5984 N.am    1  UNL1       -0.2681
      5 H          -3.2650    4.4038   27.1423 H       1  UNL1        0.1564
      6 H          -1.3319    3.2449   28.4347 H       1  UNL1        0.1564
      7 C          -5.1509    4.7692   22.4562 C.ar    1  UNL1        0.0537
      8 C          -4.1618    5.7715   22.9730 C.ar    1  UNL1        0.0058
      9 C          -3.4304    5.5104   24.2563 C.ar    1  UNL1        0.0149
     10 C          -3.6880    4.2470   25.0227 C.ar    1  UNL1        0.0516
     11 C          -4.6770    3.2447   24.5059 C.ar    1  UNL1        0.0149
     12 C          -5.4085    3.5058   23.2227 C.ar    1  UNL1        0.0058
     13 C          -5.8388    4.9094   18.5031 C.3     1  UNL1        0.1518
     14 C          -4.8451    4.4485   17.4783 C.3     1  UNL1        0.0310
     15 C          -3.6258    3.9591   18.2021 C.3     1  UNL1        0.0237
     16 C          -3.8660    4.1175   19.6743 C.3     1  UNL1        0.0942
     17 N          -5.2337    4.7048   19.8603 N.am    1  UNL1       -0.2695
     18 C          -5.8824    5.0303   21.1729 C.2     1  UNL1        0.2493
     19 O          -7.2626    5.6169   21.2024 O.2     1  UNL1       -0.2699
     20 N          -8.4268    4.7059   18.6070 N.am    1  UNL1       -0.3275
     21 C          -7.1987    5.4754   18.2202 C.2     1  UNL1        0.2375
     22 O          -7.3307    6.8112   17.5506 O.2     1  UNL1       -0.2736
     23 H          -9.3194    5.0774   18.4214 H       1  UNL1        0.1450
     24 H          -8.3403    3.8292   19.0466 H       1  UNL1        0.1450
     25 C           0.1782    1.9292   27.6075 C.ar    1  UNL1        0.0516
     26 C           1.3640    2.2545   26.7484 C.ar    1  UNL1        0.0148
     27 C           2.5656    1.3567   26.7575 C.ar    1  UNL1        0.0043
     28 C           2.5814    0.1335   27.6257 C.ar    1  UNL1        0.0361
     29 C           1.3956   -0.1918   28.4848 C.ar    1  UNL1        0.0043
     30 C           0.1939    0.7061   28.4757 C.ar    1  UNL1        0.0148
     31 C           3.7830   -0.7643   27.6348 C.ar    1  UNL1        0.1680
     32 N           4.5686   -0.9531   28.8986 N.ar    1  UNL1       -0.1944
     33 C           5.7701   -1.8509   28.9076 C.ar    1  UNL1        0.2240
     34 N           6.1862   -2.5599   27.6529 N.ar    1  UNL1       -0.1807
     35 C           5.4005   -2.3711   26.3891 C.ar    1  UNL1        0.2240
     36 N           4.1989   -1.4732   26.3801 N.ar    1  UNL1       -0.1944
     37 N           6.5558   -2.0397   30.1714 N.pl3   1  UNL1       -0.2729
     38 C           6.5866   -3.3811   30.8420 C.3     1  UNL1        0.1257
     39 C           7.3722   -3.5700   32.1058 C.3     1  UNL1        0.1637
     40 O           8.1270   -2.4174   32.6990 O.3     1  UNL1       -0.3501
     41 C           8.0962   -1.0760   32.0284 C.3     1  UNL1        0.1637
     42 C           7.3106   -0.8871   30.7646 C.3     1  UNL1        0.1257
     43 N           5.8165   -3.0800   25.1344 N.pl3   1  UNL1       -0.2729
     44 C           5.1130   -2.7914   23.8414 C.3     1  UNL1        0.1257
     45 C           5.5289   -3.5003   22.5867 C.3     1  UNL1        0.1637
     46 O           6.6484   -4.4980   22.6249 O.3     1  UNL1       -0.3501
     47 C           7.3519   -4.7867   23.9178 C.3     1  UNL1        0.1637
     48 C           6.9360   -4.0777   25.1726 C.3     1  UNL1        0.1257
@<TRIPOS>BOND
     1    20    21   am
     2    21    22    2
     3    13    21    1
     4    13    14    1
     5    14    15    1
     6    15    16    1
     7    16    17    1
     8    17    18   am
     9    18    19    2
    10    18     7    1
    11     7     8   ar
    12     8     9   ar
    13     9    10   ar
    14    10     1    1
    15     1     2   am
    16     2     3    2
    17     2     4   am
    18     4    25    1
    19    25    26   ar
    20    26    27   ar
    21    27    28   ar
    22    28    31    1
    23    31    32   ar
    24    32    33   ar
    25    33    37    1
    26    37    38    1
    27    38    39    1
    28    39    40    1
    29    40    41    1
    30    41    42    1
    31    33    34   ar
    32    34    35   ar
    33    35    43    1
    34    43    44    1
    35    44    45    1
    36    45    46    1
    37    46    47    1
    38    47    48    1
    39    35    36   ar
    40    28    29   ar
    41    29    30   ar
    42    10    11   ar
    43    11    12   ar
    44    17    13    1
    45    12     7   ar
    46    30    25   ar
    47    36    31   ar
    48    42    37    1
    49    48    43    1
    50    20    23    1
    51    20    24    1
    52     1     5    1
    53     4     6    1
@<TRIPOS>MOLECULE
*****
 48 53 0 0 0
SMALL
GASTEIGER

@<TRIPOS>ATOM
      1 N           6.3612   -1.3707   31.7383 N.am    1  UNL1       -0.2681
      2 C           5.8272   -1.0408   30.3760 C.2     1  UNL1        0.3082
      3 O           4.7477   -0.0106   30.2228 O.2     1  UNL1       -0.2522
      4 N           6.3725   -1.7413   29.1668 N.am    1  UNL1       -0.2681
      5 H           7.0697   -2.0468   31.8389 H       1  UNL1        0.1564
      6 H           7.0810   -2.4174   29.2674 H       1  UNL1        0.1564
      7 C           4.7253    0.7306   35.3658 C.ar    1  UNL1        0.0537
      8 C           5.7123    1.4274   34.4769 C.ar    1  UNL1        0.0058
      9 C           6.2576    0.7270   33.2678 C.ar    1  UNL1        0.0149
     10 C           5.8159   -0.6702   32.9475 C.ar    1  UNL1        0.0516
     11 C           4.8288   -1.3671   33.8364 C.ar    1  UNL1        0.0149
     12 C           4.2835   -0.6667   35.0455 C.ar    1  UNL1        0.0058
     13 C           2.5450    3.3208   37.5239 C.3     1  UNL1        0.1518
     14 C           1.6054    4.3162   36.9105 C.3     1  UNL1        0.0310
     15 C           1.6553    4.1440   35.4212 C.3     1  UNL1        0.0237
     16 C           2.6258    3.0422   35.1143 C.3     1  UNL1        0.0942
     17 N           3.1757    2.5335   36.4138 N.am    1  UNL1       -0.2695
     18 C           4.1799    1.4310   36.5750 C.2     1  UNL1        0.2493
     19 O           4.6388    1.0288   37.9452 O.2     1  UNL1       -0.2699
     20 N           4.0833    3.6565   39.5907 N.am    1  UNL1       -0.3275
     21 C           2.8079    3.1439   38.9901 C.2     1  UNL1        0.2375
     22 O           1.7954    2.4543   39.8557 O.2     1  UNL1       -0.2736
     23 H           4.2557    3.5404   40.5530 H       1  UNL1        0.1450
     24 H           4.7479    4.1091   39.0226 H       1  UNL1        0.1450
     25 C           5.8385   -1.4114   27.8045 C.ar    1  UNL1        0.0516
     26 C           4.3924   -1.6529   27.4871 C.ar    1  UNL1        0.0148
     27 C           3.8584   -1.3231   26.1248 C.ar    1  UNL1        0.0043
     28 C           4.7703   -0.7518   25.0798 C.ar    1  UNL1        0.0361
     29 C           6.2164   -0.5103   25.3972 C.ar    1  UNL1        0.0043
     30 C           6.7504   -0.8402   26.7596 C.ar    1  UNL1        0.0148
     31 C           4.2363   -0.4219   23.7175 C.ar    1  UNL1        0.1680
     32 N           4.9550   -0.9053   22.4929 N.ar    1  UNL1       -0.1944
     33 C           4.4210   -0.5755   21.1306 C.ar    1  UNL1        0.2240
     34 N           3.1681    0.2377   20.9928 N.ar    1  UNL1       -0.1807
     35 C           2.4493    0.7211   22.2174 C.ar    1  UNL1        0.2240
     36 N           2.9834    0.3913   23.5798 N.ar    1  UNL1       -0.1944
     37 N           5.1397   -1.0589   19.9059 N.pl3   1  UNL1       -0.2729
     38 C           4.9378   -2.4648   19.4237 C.3     1  UNL1        0.1257
     39 C           5.6566   -2.9482   18.1991 C.3     1  UNL1        0.1637
     40 O           6.5773   -2.0257   17.4567 O.3     1  UNL1       -0.3501
     41 C           6.7793   -0.6197   17.9389 C.3     1  UNL1        0.1637
     42 C           6.0605   -0.1363   19.1635 C.3     1  UNL1        0.1257
     43 N           1.1965    1.5344   22.0797 N.pl3   1  UNL1       -0.2729
     44 C           0.6332    2.2517   23.2707 C.3     1  UNL1        0.1257
     45 C          -0.6196    3.0649   23.1330 C.3     1  UNL1        0.1637
     46 O          -1.3093    3.1609   21.8044 O.3     1  UNL1       -0.3501
     47 C          -0.7461    2.4436   20.6135 C.3     1  UNL1        0.1637
     48 C           0.5068    1.6303   20.7511 C.3     1  UNL1        0.1257
@<TRIPOS>BOND
     1    20    21   am
     2    21    22    2
     3    13    21    1
     4    13    14    1
     5    14    15    1
     6    15    16    1
     7    16    17    1
     8    17    18   am
     9    18    19    2
    10    18     7    1
    11     7     8   ar
    12     8     9   ar
    13     9    10   ar
    14    10     1    1
    15     1     2   am
    16     2     3    2
    17     2     4   am
    18     4    25    1
    19    25    26   ar
    20    26    27   ar
    21    27    28   ar
    22    28    31    1
    23    31    32   ar
    24    32    33   ar
    25    33    37    1
    26    37    38    1
    27    38    39    1
    28    39    40    1
    29    40    41    1
    30    41    42    1
    31    33    34   ar
    32    34    35   ar
    33    35    43    1
    34    43    44    1
    35    44    45    1
    36    45    46    1
    37    46    47    1
    38    47    48    1
    39    35    36   ar
    40    28    29   ar
    41    29    30   ar
    42    10    11   ar
    43    11    12   ar
    44    17    13    1
    45    12     7   ar
    46    30    25   ar
    47    36    31   ar
    48    42    37    1
    49    48    43    1
    50    20    23    1
    51    20    24    1
    52     1     5    1
    53     4     6    1
