@<TRIPOS>MOLECULE
*****
 32 35 0 0 0
SMALL
GASTEIGER

@<TRIPOS>ATOM
      1 C           6.9122   -5.2562   30.8372 C.2     1  UNL1        0.3031
      2 O           6.8207   -6.3163   31.8945 O.2     1  UNL1       -0.2649
      3 N           6.4443   -3.8616   31.1309 N.am    1  UNL1       -0.2699
      4 C           5.8848   -3.5271   32.4820 C.3     1  UNL1        0.0944
      5 C           5.4169   -2.1326   32.7757 C.3     1  UNL1        0.0283
      6 C           5.5085   -1.0725   31.7184 C.3     1  UNL1        0.0527
      7 C           6.0679   -1.4069   30.3674 C.3     1  UNL1        0.1343
      8 O           6.1594   -0.3468   29.3102 O.3     1  UNL1       -0.3824
      9 C           6.5358   -2.8015   30.0737 C.3     1  UNL1        0.1233
     10 H           6.5408   -0.7269   28.5034 H       1  UNL1        0.2104
     11 C           5.0405    0.3221   32.0122 C.ar    1  UNL1       -0.0170
     12 C           5.8835    1.2346   32.8528 C.ar    1  UNL1        0.0165
     13 C           5.4156    2.6291   33.1465 C.ar    1  UNL1        0.0985
     14 N           4.1046    3.1111   32.5996 N.ar    1  UNL1       -0.2439
     15 C           3.2616    2.1986   31.7590 C.ar    1  UNL1        0.0811
     16 C           1.9506    2.6806   31.2122 C.ar    1  UNL1        0.0214
     17 C           1.1076    1.7681   30.3716 C.ar    1  UNL1        0.0312
     18 C           1.5756    0.3735   30.0778 C.ar    1  UNL1        0.1402
     19 F           0.7326   -0.5390   29.2372 F       1  UNL1       -0.2042
     20 C           2.8865   -0.1085   30.6247 C.ar    1  UNL1        0.0308
     21 C           3.7296    0.8041   31.4653 C.ar    1  UNL1        0.0160
     22 O           8.9544   -5.5643   29.2611 O.2     1  UNL1       -0.2648
     23 C           7.4716   -5.5906   29.4863 C.2     1  UNL1        0.3034
     24 N           6.5483   -5.9513   28.3604 N.am    1  UNL1       -0.2766
     25 H           5.5751   -5.9685   28.5082 H       1  UNL1        0.1553
     26 C           7.1077   -6.2857   27.0095 C.ar    1  UNL1        0.0507
     27 C           7.1016   -5.2555   25.9192 C.ar    1  UNL1        0.0155
     28 C           7.6611   -5.5899   24.5682 C.ar    1  UNL1        0.0127
     29 C           8.2266   -6.9546   24.3075 C.ar    1  UNL1        0.0578
     30 CL          8.7861   -7.2890   22.9565 Cl      1  UNL1       -0.0822
     31 C           8.2327   -7.9848   25.3978 C.ar    1  UNL1        0.0127
     32 C           7.6733   -7.6503   26.7488 C.ar    1  UNL1        0.0155
@<TRIPOS>BOND
     1    22    23    2
     2    23    24   am
     3    24    26    1
     4    26    27   ar
     5    27    28   ar
     6    28    29   ar
     7    29    30    1
     8    29    31   ar
     9    31    32   ar
    10    23     1    1
    11     1     2    2
    12     1     3   am
    13     3     4    1
    14     4     5    1
    15     5     6    1
    16     6    11    1
    17    11    12   ar
    18    12    13   ar
    19    13    14   ar
    20    14    15   ar
    21    15    16   ar
    22    16    17   ar
    23    17    18   ar
    24    18    19    1
    25    18    20   ar
    26    20    21   ar
    27     6     7    1
    28     7     8    1
    29     7     9    1
    30    32    26   ar
    31     9     3    1
    32    21    11   ar
    33    21    15   ar
    34    24    25    1
    35     8    10    1
@<TRIPOS>MOLECULE
*****
 32 35 0 0 0
SMALL
GASTEIGER

@<TRIPOS>ATOM
      1 C           1.1257    3.5525   18.2325 C.2     1  UNL1        0.3031
      2 O           1.9712    4.6591   17.6752 O.2     1  UNL1       -0.2649
      3 N           1.7562    2.2455   18.6124 N.am    1  UNL1       -0.2699
      4 C           3.2322    2.0451   18.4350 C.3     1  UNL1        0.0944
      5 C           3.8626    0.7382   18.8149 C.3     1  UNL1        0.0283
      6 C           3.0172   -0.3684   19.3722 C.3     1  UNL1        0.0527
      7 C           1.5413   -0.1681   19.5497 C.3     1  UNL1        0.1343
      8 O           0.6958   -1.2747   20.1070 O.3     1  UNL1       -0.3824
      9 C           0.9107    1.1389   19.1697 C.3     1  UNL1        0.1233
     10 H          -0.2279   -0.9827   20.1558 H       1  UNL1        0.2104
     11 C           3.6477   -1.6754   19.7522 C.ar    1  UNL1       -0.0170
     12 C           3.9078   -2.7156   18.7032 C.ar    1  UNL1        0.0165
     13 C           4.5383   -4.0225   19.0832 C.ar    1  UNL1        0.0985
     14 N           4.9087   -4.2893   20.5120 N.ar    1  UNL1       -0.2439
     15 C           4.6485   -3.2491   21.5610 C.ar    1  UNL1        0.0811
     16 C           5.0189   -3.5158   22.9899 C.ar    1  UNL1        0.0214
     17 C           4.7587   -2.4757   24.0388 C.ar    1  UNL1        0.0312
     18 C           4.1282   -1.1687   23.6589 C.ar    1  UNL1        0.1402
     19 F           3.8681   -0.1285   24.7078 F       1  UNL1       -0.2042
     20 C           3.7579   -0.9019   22.2300 C.ar    1  UNL1        0.0308
     21 C           4.0180   -1.9422   21.1810 C.ar    1  UNL1        0.0160
     22 O          -1.2755    3.5859   17.2412 O.2     1  UNL1       -0.2648
     23 C          -0.3502    3.7528   18.4099 C.2     1  UNL1        0.3034
     24 N          -0.9008    4.1200   19.7561 N.am    1  UNL1       -0.2766
     25 H          -0.2934    4.2295   20.5231 H       1  UNL1        0.1553
     26 C          -2.3767    4.3203   19.9335 C.ar    1  UNL1        0.0507
     27 C          -3.2235    3.2108   20.4830 C.ar    1  UNL1        0.0155
     28 C          -4.6994    3.4111   20.6604 C.ar    1  UNL1        0.0127
     29 C          -5.3286    4.7210   20.2883 C.ar    1  UNL1        0.0578
     30 CL         -6.8045    4.9214   20.4657 Cl      1  UNL1       -0.0822
     31 C          -4.4818    5.8306   19.7388 C.ar    1  UNL1        0.0127
     32 C          -3.0058    5.6302   19.5614 C.ar    1  UNL1        0.0155
@<TRIPOS>BOND
     1    22    23    2
     2    23    24   am
     3    24    26    1
     4    26    27   ar
     5    27    28   ar
     6    28    29   ar
     7    29    30    1
     8    29    31   ar
     9    31    32   ar
    10    23     1    1
    11     1     2    2
    12     1     3   am
    13     3     4    1
    14     4     5    1
    15     5     6    1
    16     6    11    1
    17    11    12   ar
    18    12    13   ar
    19    13    14   ar
    20    14    15   ar
    21    15    16   ar
    22    16    17   ar
    23    17    18   ar
    24    18    19    1
    25    18    20   ar
    26    20    21   ar
    27     6     7    1
    28     7     8    1
    29     7     9    1
    30    32    26   ar
    31     9     3    1
    32    21    11   ar
    33    21    15   ar
    34    24    25    1
    35     8    10    1
@<TRIPOS>MOLECULE
*****
 32 35 0 0 0
SMALL
GASTEIGER

@<TRIPOS>ATOM
      1 C          -1.0220    2.9209   22.1759 C.2     1  UNL1        0.3031
      2 O          -0.9645    3.1405   23.6586 O.2     1  UNL1       -0.2649
      3 N          -0.0232    2.0202   21.5118 N.am    1  UNL1       -0.2699
      4 C           1.0334    1.3392   22.3304 C.3     1  UNL1        0.0944
      5 C           2.0323    0.4386   21.6663 C.3     1  UNL1        0.0283
      6 C           1.9747    0.2190   20.1836 C.3     1  UNL1        0.0527
      7 C           0.9183    0.8999   19.3650 C.3     1  UNL1        0.1343
      8 O           0.8607    0.6803   17.8823 O.3     1  UNL1       -0.3824
      9 C          -0.0807    1.8006   20.0291 C.3     1  UNL1        0.1233
     10 H           0.1248    1.1896   17.5083 H       1  UNL1        0.2104
     11 C           2.9737   -0.6817   19.5195 C.ar    1  UNL1       -0.0170
     12 C           2.8420   -2.1705   19.6465 C.ar    1  UNL1        0.0165
     13 C           3.8410   -3.0710   18.9825 C.ar    1  UNL1        0.0985
     14 N           4.9716   -2.4828   18.1914 N.ar    1  UNL1       -0.2439
     15 C           5.1032   -0.9941   18.0644 C.ar    1  UNL1        0.0811
     16 C           6.2338   -0.4059   17.2733 C.ar    1  UNL1        0.0214
     17 C           6.3655    1.0829   17.1463 C.ar    1  UNL1        0.0312
     18 C           5.3665    1.9836   17.8104 C.ar    1  UNL1        0.1402
     19 F           5.4982    3.4723   17.6834 F       1  UNL1       -0.2042
     20 C           4.2359    1.3954   18.6015 C.ar    1  UNL1        0.0308
     21 C           4.1043   -0.0935   18.7285 C.ar    1  UNL1        0.0160
     22 O          -1.9379    5.0542   21.0097 O.2     1  UNL1       -0.2648
     23 C          -2.0785    3.6018   21.3573 C.2     1  UNL1        0.3034
     24 N          -3.2756    2.8303   20.8861 N.am    1  UNL1       -0.2766
     25 H          -3.3679    1.8771   21.1142 H       1  UNL1        0.1553
     26 C          -4.3320    3.5113   20.0675 C.ar    1  UNL1        0.0507
     27 C          -5.6229    3.9294   20.7069 C.ar    1  UNL1        0.0155
     28 C          -6.6793    4.6104   19.8883 C.ar    1  UNL1        0.0127
     29 C          -6.4449    4.8732   18.4302 C.ar    1  UNL1        0.0578
     30 CL         -7.5014    5.5542   17.6115 Cl      1  UNL1       -0.0822
     31 C          -5.1541    4.4551   17.7907 C.ar    1  UNL1        0.0127
     32 C          -4.0976    3.7741   18.6095 C.ar    1  UNL1        0.0155
@<TRIPOS>BOND
     1    22    23    2
     2    23    24   am
     3    24    26    1
     4    26    27   ar
     5    27    28   ar
     6    28    29   ar
     7    29    30    1
     8    29    31   ar
     9    31    32   ar
    10    23     1    1
    11     1     2    2
    12     1     3   am
    13     3     4    1
    14     4     5    1
    15     5     6    1
    16     6    11    1
    17    11    12   ar
    18    12    13   ar
    19    13    14   ar
    20    14    15   ar
    21    15    16   ar
    22    16    17   ar
    23    17    18   ar
    24    18    19    1
    25    18    20   ar
    26    20    21   ar
    27     6     7    1
    28     7     8    1
    29     7     9    1
    30    32    26   ar
    31     9     3    1
    32    21    11   ar
    33    21    15   ar
    34    24    25    1
    35     8    10    1
@<TRIPOS>MOLECULE
*****
 32 35 0 0 0
SMALL
GASTEIGER

@<TRIPOS>ATOM
      1 C           0.5283    3.7992   23.2442 C.2     1  UNL1        0.3031
      2 O           1.3630    4.8199   23.9595 O.2     1  UNL1       -0.2649
      3 N           1.1732    2.8384   22.2898 N.am    1  UNL1       -0.2699
      4 C           2.6529    2.8983   22.0505 C.3     1  UNL1        0.0944
      5 C           3.2978    1.9376   21.0961 C.3     1  UNL1        0.0283
      6 C           2.4631    0.9169   20.3809 C.3     1  UNL1        0.0527
      7 C           0.9836    0.8570   20.6201 C.3     1  UNL1        0.1343
      8 O           0.1489   -0.1637   19.9048 O.3     1  UNL1       -0.3824
      9 C           0.3386    1.8178   21.5746 C.3     1  UNL1        0.1233
     10 H          -0.7788   -0.0666   20.1708 H       1  UNL1        0.2104
     11 C           3.1081   -0.0439   19.4264 C.ar    1  UNL1       -0.0170
     12 C           3.1221    0.2548   17.9565 C.ar    1  UNL1        0.0165
     13 C           3.7671   -0.7059   17.0021 C.ar    1  UNL1        0.0985
     14 N           4.3980   -1.9654   17.5176 N.ar    1  UNL1       -0.2439
     15 C           4.3840   -2.2641   18.9874 C.ar    1  UNL1        0.0811
     16 C           5.0150   -3.5235   19.5029 C.ar    1  UNL1        0.0214
     17 C           5.0010   -3.8222   20.9728 C.ar    1  UNL1        0.0312
     18 C           4.3560   -2.8614   21.9272 C.ar    1  UNL1        0.1402
     19 F           4.3420   -3.1601   23.3971 F       1  UNL1       -0.2042
     20 C           3.7250   -1.6020   21.4118 C.ar    1  UNL1        0.0308
     21 C           3.7391   -1.3033   19.9418 C.ar    1  UNL1        0.0160
     22 O          -1.5013    2.8540   24.5622 O.2     1  UNL1       -0.2648
     23 C          -0.9512    3.7392   23.4834 C.2     1  UNL1        0.3034
     24 N          -1.8808    4.5646   22.6439 N.am    1  UNL1       -0.2766
     25 H          -1.5198    5.1456   21.9358 H       1  UNL1        0.1553
     26 C          -3.3603    4.5047   22.8831 C.ar    1  UNL1        0.0507
     27 C          -3.9779    5.3296   23.9730 C.ar    1  UNL1        0.0155
     28 C          -5.4575    5.2697   24.2123 C.ar    1  UNL1        0.0127
     29 C          -6.3196    4.3847   23.3615 C.ar    1  UNL1        0.0578
     30 CL         -7.7991    4.3248   23.6007 Cl      1  UNL1       -0.0822
     31 C          -5.7020    3.5598   22.2715 C.ar    1  UNL1        0.0127
     32 C          -4.2223    3.6197   22.0323 C.ar    1  UNL1        0.0155
@<TRIPOS>BOND
     1    22    23    2
     2    23    24   am
     3    24    26    1
     4    26    27   ar
     5    27    28   ar
     6    28    29   ar
     7    29    30    1
     8    29    31   ar
     9    31    32   ar
    10    23     1    1
    11     1     2    2
    12     1     3   am
    13     3     4    1
    14     4     5    1
    15     5     6    1
    16     6    11    1
    17    11    12   ar
    18    12    13   ar
    19    13    14   ar
    20    14    15   ar
    21    15    16   ar
    22    16    17   ar
    23    17    18   ar
    24    18    19    1
    25    18    20   ar
    26    20    21   ar
    27     6     7    1
    28     7     8    1
    29     7     9    1
    30    32    26   ar
    31     9     3    1
    32    21    11   ar
    33    21    15   ar
    34    24    25    1
    35     8    10    1
@<TRIPOS>MOLECULE
*****
 32 35 0 0 0
SMALL
GASTEIGER

@<TRIPOS>ATOM
      1 C           1.2267    2.6970   24.3612 C.2     1  UNL1        0.3031
      2 O           2.1750    3.2636   25.3760 O.2     1  UNL1       -0.2649
      3 N           1.7585    1.9748   23.1589 N.am    1  UNL1       -0.2699
      4 C           3.2386    1.8190   22.9714 C.3     1  UNL1        0.0944
      5 C           3.7704    1.0968   21.7691 C.3     1  UNL1        0.0283
      6 C           2.8221    0.5302   20.7543 C.3     1  UNL1        0.0527
      7 C           1.3420    0.6859   20.9418 C.3     1  UNL1        0.1343
      8 O           0.3938    0.1193   19.9270 O.3     1  UNL1       -0.3824
      9 C           0.8102    1.4082   22.1441 C.3     1  UNL1        0.1233
     10 H          -0.5188    0.3062   20.1975 H       1  UNL1        0.2104
     11 C           3.3539   -0.1921   19.5520 C.ar    1  UNL1       -0.0170
     12 C           3.3484    0.4791   18.2106 C.ar    1  UNL1        0.0165
     13 C           3.8802   -0.2432   17.0084 C.ar    1  UNL1        0.0985
     14 N           4.4176   -1.6367   17.1475 N.ar    1  UNL1       -0.2439
     15 C           4.4231   -2.3079   18.4889 C.ar    1  UNL1        0.0811
     16 C           4.9605   -3.7014   18.6281 C.ar    1  UNL1        0.0214
     17 C           4.9660   -4.3726   19.9695 C.ar    1  UNL1        0.0312
     18 C           4.4342   -3.6503   21.1718 C.ar    1  UNL1        0.1402
     19 F           4.4397   -4.3215   22.5132 F       1  UNL1       -0.2042
     20 C           3.8968   -2.2568   21.0327 C.ar    1  UNL1        0.0308
     21 C           3.8913   -1.5856   19.6912 C.ar    1  UNL1        0.0160
     22 O          -0.9957    1.9222   25.4614 O.2     1  UNL1       -0.2648
     23 C          -0.2533    2.8527   24.5487 C.2     1  UNL1        0.3034
     24 N          -0.9911    3.9390   23.8234 N.am    1  UNL1       -0.2766
     25 H          -0.5038    4.5497   23.2244 H       1  UNL1        0.1553
     26 C          -2.4711    4.0947   24.0109 C.ar    1  UNL1        0.0507
     27 C          -3.4157    3.6243   22.9449 C.ar    1  UNL1        0.0155
     28 C          -4.8958    3.7800   23.1324 C.ar    1  UNL1        0.0127
     29 C          -5.4313    4.4061   24.3860 C.ar    1  UNL1        0.0578
     30 CL         -6.9113    4.5618   24.5735 Cl      1  UNL1       -0.0822
     31 C          -4.4866    4.8765   25.4520 C.ar    1  UNL1        0.0127
     32 C          -3.0065    4.7208   25.2645 C.ar    1  UNL1        0.0155
@<TRIPOS>BOND
     1    22    23    2
     2    23    24   am
     3    24    26    1
     4    26    27   ar
     5    27    28   ar
     6    28    29   ar
     7    29    30    1
     8    29    31   ar
     9    31    32   ar
    10    23     1    1
    11     1     2    2
    12     1     3   am
    13     3     4    1
    14     4     5    1
    15     5     6    1
    16     6    11    1
    17    11    12   ar
    18    12    13   ar
    19    13    14   ar
    20    14    15   ar
    21    15    16   ar
    22    16    17   ar
    23    17    18   ar
    24    18    19    1
    25    18    20   ar
    26    20    21   ar
    27     6     7    1
    28     7     8    1
    29     7     9    1
    30    32    26   ar
    31     9     3    1
    32    21    11   ar
    33    21    15   ar
    34    24    25    1
    35     8    10    1
@<TRIPOS>MOLECULE
*****
 32 35 0 0 0
SMALL
GASTEIGER

@<TRIPOS>ATOM
      1 C           7.5229   -4.7365   23.6676 C.2     1  UNL1        0.3031
      2 O           7.7577   -6.1195   23.1365 O.2     1  UNL1       -0.2649
      3 N           7.2011   -3.6155   22.7244 N.am    1  UNL1       -0.2699
      4 C           7.1141   -3.8774   21.2500 C.3     1  UNL1        0.0944
      5 C           6.7923   -2.7564   20.3068 C.3     1  UNL1        0.0283
      6 C           6.5575   -1.3734   20.8380 C.3     1  UNL1        0.0527
      7 C           6.6444   -1.1114   22.3123 C.3     1  UNL1        0.1343
      8 O           6.4096    0.2716   22.8435 O.3     1  UNL1       -0.3824
      9 C           6.9663   -2.2325   23.2556 C.3     1  UNL1        0.1233
     10 H           6.5029    0.2673   23.8090 H       1  UNL1        0.2104
     11 C           6.2356   -0.2523   19.8947 C.ar    1  UNL1       -0.0170
     12 C           7.3422    0.5588   19.2884 C.ar    1  UNL1        0.0165
     13 C           7.0204    1.6798   18.3452 C.ar    1  UNL1        0.0985
     14 N           5.5919    1.9897   18.0082 N.ar    1  UNL1       -0.2439
     15 C           4.4854    1.1787   18.6145 C.ar    1  UNL1        0.0811
     16 C           3.0569    1.4886   18.2776 C.ar    1  UNL1        0.0214
     17 C           1.9504    0.6776   18.8839 C.ar    1  UNL1        0.0312
     18 C           2.2722   -0.4435   19.8272 C.ar    1  UNL1        0.1402
     19 F           1.1656   -1.2545   20.4334 F       1  UNL1       -0.2042
     20 C           3.7006   -0.7534   20.1641 C.ar    1  UNL1        0.0308
     21 C           4.8072    0.0577   19.5577 C.ar    1  UNL1        0.0160
     22 O           8.8692   -3.9111   25.7306 O.2     1  UNL1       -0.2648
     23 C           7.6099   -4.4746   25.1420 C.2     1  UNL1        0.3034
     24 N           6.4374   -4.7761   26.0278 N.am    1  UNL1       -0.2766
     25 H           5.6109   -5.1459   25.6415 H       1  UNL1        0.1553
     26 C           6.5244   -4.5141   27.5021 C.ar    1  UNL1        0.0507
     27 C           6.7925   -5.6450   28.4503 C.ar    1  UNL1        0.0155
     28 C           6.8795   -5.3831   29.9247 C.ar    1  UNL1        0.0127
     29 C           6.6984   -3.9901   30.4509 C.ar    1  UNL1        0.0578
     30 CL          6.7854   -3.7281   31.9253 Cl      1  UNL1       -0.0822
     31 C           6.4303   -2.8591   29.5027 C.ar    1  UNL1        0.0127
     32 C           6.3433   -3.1212   28.0283 C.ar    1  UNL1        0.0155
@<TRIPOS>BOND
     1    22    23    2
     2    23    24   am
     3    24    26    1
     4    26    27   ar
     5    27    28   ar
     6    28    29   ar
     7    29    30    1
     8    29    31   ar
     9    31    32   ar
    10    23     1    1
    11     1     2    2
    12     1     3   am
    13     3     4    1
    14     4     5    1
    15     5     6    1
    16     6    11    1
    17    11    12   ar
    18    12    13   ar
    19    13    14   ar
    20    14    15   ar
    21    15    16   ar
    22    16    17   ar
    23    17    18   ar
    24    18    19    1
    25    18    20   ar
    26    20    21   ar
    27     6     7    1
    28     7     8    1
    29     7     9    1
    30    32    26   ar
    31     9     3    1
    32    21    11   ar
    33    21    15   ar
    34    24    25    1
    35     8    10    1
@<TRIPOS>MOLECULE
*****
 32 35 0 0 0
SMALL
GASTEIGER

@<TRIPOS>ATOM
      1 C           0.6888    1.5665   24.5945 C.2     1  UNL1        0.3031
      2 O          -0.6156    2.2584   24.3302 O.2     1  UNL1       -0.2649
      3 N           1.4229    0.8955   23.4716 N.am    1  UNL1       -0.2699
      4 C           0.8525    0.9164   22.0844 C.3     1  UNL1        0.0944
      5 C           1.5865    0.2454   20.9615 C.3     1  UNL1        0.0283
      6 C           2.8909   -0.4465   21.2257 C.3     1  UNL1        0.0527
      7 C           3.4613   -0.4674   22.6129 C.3     1  UNL1        0.1343
      8 O           4.7657   -1.1592   22.8771 O.3     1  UNL1       -0.3824
      9 C           2.7273    0.2037   23.7358 C.3     1  UNL1        0.1233
     10 H           4.9893   -1.0795   23.8176 H       1  UNL1        0.2104
     11 C           3.6250   -1.1175   20.1028 C.ar    1  UNL1       -0.0170
     12 C           3.5151   -2.6017   19.9160 C.ar    1  UNL1        0.0165
     13 C           4.2491   -3.2727   18.7931 C.ar    1  UNL1        0.0985
     14 N           5.0930   -2.4594   17.8569 N.ar    1  UNL1       -0.2439
     15 C           5.2029   -0.9752   18.0437 C.ar    1  UNL1        0.0811
     16 C           6.0468   -0.1619   17.1075 C.ar    1  UNL1        0.0214
     17 C           6.1566    1.3224   17.2943 C.ar    1  UNL1        0.0312
     18 C           5.4226    1.9934   18.4172 C.ar    1  UNL1        0.1402
     19 F           5.5325    3.4776   18.6040 F       1  UNL1       -0.2042
     20 C           4.5787    1.1801   19.3534 C.ar    1  UNL1        0.0308
     21 C           4.4689   -0.3042   19.1666 C.ar    1  UNL1        0.0160
     22 O           2.3890    2.4643   26.3419 O.2     1  UNL1       -0.2648
     23 C           1.2592    1.5457   25.9816 C.2     1  UNL1        0.3034
     24 N           0.6998    0.6062   27.0085 N.am    1  UNL1       -0.2766
     25 H          -0.0417    0.0033   26.7721 H       1  UNL1        0.1553
     26 C           1.2702    0.5853   28.3957 C.ar    1  UNL1        0.0507
     27 C           0.8984    1.6583   29.3757 C.ar    1  UNL1        0.0155
     28 C           1.4688    1.6374   30.7629 C.ar    1  UNL1        0.0127
     29 C           2.4111    0.5436   31.1700 C.ar    1  UNL1        0.0578
     30 CL          2.9814    0.5227   32.5571 Cl      1  UNL1       -0.0822
     31 C           2.7829   -0.5294   30.1899 C.ar    1  UNL1        0.0127
     32 C           2.2125   -0.5085   28.8027 C.ar    1  UNL1        0.0155
@<TRIPOS>BOND
     1    22    23    2
     2    23    24   am
     3    24    26    1
     4    26    27   ar
     5    27    28   ar
     6    28    29   ar
     7    29    30    1
     8    29    31   ar
     9    31    32   ar
    10    23     1    1
    11     1     2    2
    12     1     3   am
    13     3     4    1
    14     4     5    1
    15     5     6    1
    16     6    11    1
    17    11    12   ar
    18    12    13   ar
    19    13    14   ar
    20    14    15   ar
    21    15    16   ar
    22    16    17   ar
    23    17    18   ar
    24    18    19    1
    25    18    20   ar
    26    20    21   ar
    27     6     7    1
    28     7     8    1
    29     7     9    1
    30    32    26   ar
    31     9     3    1
    32    21    11   ar
    33    21    15   ar
    34    24    25    1
    35     8    10    1
@<TRIPOS>MOLECULE
*****
 32 35 0 0 0
SMALL
GASTEIGER

@<TRIPOS>ATOM
      1 C           6.9198   -5.1956   30.7662 C.2     1  UNL1        0.3031
      2 O           6.9400   -6.2999   31.7812 O.2     1  UNL1       -0.2649
      3 N           6.3649   -3.8509   31.1319 N.am    1  UNL1       -0.2699
      4 C           5.8301   -3.6103   32.5126 C.3     1  UNL1        0.0944
      5 C           5.2753   -2.2656   32.8782 C.3     1  UNL1        0.0283
      6 C           5.2551   -1.1613   31.8632 C.3     1  UNL1        0.0527
      7 C           5.7899   -1.4018   30.4826 C.3     1  UNL1        0.1343
      8 O           5.7697   -0.2976   29.4676 O.3     1  UNL1       -0.3824
      9 C           6.3448   -2.7466   30.1169 C.3     1  UNL1        0.1233
     10 H           6.1490   -0.6176   28.6341 H       1  UNL1        0.2104
     11 C           4.7002    0.1835   32.2289 C.ar    1  UNL1       -0.0170
     12 C           3.2697    0.5134   31.9212 C.ar    1  UNL1        0.0165
     13 C           2.7148    1.8582   32.2869 C.ar    1  UNL1        0.0985
     14 N           3.5905    2.8730   32.9602 N.ar    1  UNL1       -0.2439
     15 C           5.0210    2.5430   33.2679 C.ar    1  UNL1        0.0811
     16 C           5.8967    3.5578   33.9413 C.ar    1  UNL1        0.0214
     17 C           7.3272    3.2278   34.2490 C.ar    1  UNL1        0.0312
     18 C           7.8821    1.8830   33.8833 C.ar    1  UNL1        0.1402
     19 F           9.3126    1.5531   34.1910 F       1  UNL1       -0.2042
     20 C           7.0065    0.8682   33.2099 C.ar    1  UNL1        0.0308
     21 C           5.5759    1.1983   32.9022 C.ar    1  UNL1        0.0160
     22 O           8.8738   -5.0777   29.0580 O.2     1  UNL1       -0.2648
     23 C           7.4546   -5.4361   29.3856 C.2     1  UNL1        0.3034
     24 N           6.5701   -6.0351   28.3325 N.am    1  UNL1       -0.2766
     25 H           5.6386   -6.2703   28.5475 H       1  UNL1        0.1553
     26 C           7.1048   -6.2755   26.9519 C.ar    1  UNL1        0.0507
     27 C           7.6571   -7.6211   26.5853 C.ar    1  UNL1        0.0155
     28 C           8.1919   -7.8616   25.2047 C.ar    1  UNL1        0.0127
     29 C           8.1743   -6.7565   24.1905 C.ar    1  UNL1        0.0578
     30 CL          8.7091   -6.9970   22.8099 Cl      1  UNL1       -0.0822
     31 C           7.6220   -5.4109   24.5571 C.ar    1  UNL1        0.0127
     32 C           7.0873   -5.1704   25.9378 C.ar    1  UNL1        0.0155
@<TRIPOS>BOND
     1    22    23    2
     2    23    24   am
     3    24    26    1
     4    26    27   ar
     5    27    28   ar
     6    28    29   ar
     7    29    30    1
     8    29    31   ar
     9    31    32   ar
    10    23     1    1
    11     1     2    2
    12     1     3   am
    13     3     4    1
    14     4     5    1
    15     5     6    1
    16     6    11    1
    17    11    12   ar
    18    12    13   ar
    19    13    14   ar
    20    14    15   ar
    21    15    16   ar
    22    16    17   ar
    23    17    18   ar
    24    18    19    1
    25    18    20   ar
    26    20    21   ar
    27     6     7    1
    28     7     8    1
    29     7     9    1
    30    32    26   ar
    31     9     3    1
    32    21    11   ar
    33    21    15   ar
    34    24    25    1
    35     8    10    1
@<TRIPOS>MOLECULE
*****
 32 35 0 0 0
SMALL
GASTEIGER

@<TRIPOS>ATOM
      1 C           6.8727   -4.3102   23.7867 C.2     1  UNL1        0.3031
      2 O           7.5552   -5.4626   23.1113 O.2     1  UNL1       -0.2649
      3 N           5.9737   -3.4045   22.9984 N.am    1  UNL1       -0.2699
      4 C           5.7572   -3.6512   21.5347 C.3     1  UNL1        0.0944
      5 C           4.8582   -2.7454   20.7464 C.3     1  UNL1        0.0283
      6 C           4.1757   -1.5930   21.4218 C.3     1  UNL1        0.0527
      7 C           4.3922   -1.3463   22.8854 C.3     1  UNL1        0.1343
      8 O           3.7097   -0.1939   23.5608 O.3     1  UNL1       -0.3824
      9 C           5.2912   -2.2521   23.6738 C.3     1  UNL1        0.1233
     10 H           3.9552   -0.1774   24.4990 H       1  UNL1        0.2104
     11 C           3.2766   -0.6872   20.6335 C.ar    1  UNL1       -0.0170
     12 C           1.7978   -0.9365   20.6065 C.ar    1  UNL1        0.0165
     13 C           0.8988   -0.0307   19.8182 C.ar    1  UNL1        0.0985
     14 N           1.4788    1.1242   19.0568 N.ar    1  UNL1       -0.2439
     15 C           2.9576    1.3735   19.0837 C.ar    1  UNL1        0.0811
     16 C           3.5375    2.5284   18.3223 C.ar    1  UNL1        0.0214
     17 C           5.0164    2.7777   18.3492 C.ar    1  UNL1        0.0312
     18 C           5.9155    1.8719   19.1376 C.ar    1  UNL1        0.1402
     19 F           7.3943    2.1212   19.1645 F       1  UNL1       -0.2042
     20 C           5.3355    0.7169   19.8990 C.ar    1  UNL1        0.0308
     21 C           3.8566    0.4677   19.8721 C.ar    1  UNL1        0.0160
     22 O           8.2330   -3.2064   25.7053 O.2     1  UNL1       -0.2648
     23 C           7.0892   -4.0635   25.2503 C.2     1  UNL1        0.3034
     24 N           6.1619   -4.6740   26.2590 N.am    1  UNL1       -0.2766
     25 H           5.4111   -5.2365   25.9604 H       1  UNL1        0.1553
     26 C           6.3784   -4.4273   27.7226 C.ar    1  UNL1        0.0507
     27 C           6.7887   -5.5563   28.6209 C.ar    1  UNL1        0.0155
     28 C           7.0052   -5.3096   30.0845 C.ar    1  UNL1        0.0127
     29 C           6.8114   -3.9338   30.6499 C.ar    1  UNL1        0.0578
     30 CL          7.0279   -3.6871   32.1136 Cl      1  UNL1       -0.0822
     31 C           6.4011   -2.8047   29.7517 C.ar    1  UNL1        0.0127
     32 C           6.1846   -3.0515   28.2880 C.ar    1  UNL1        0.0155
@<TRIPOS>BOND
     1    22    23    2
     2    23    24   am
     3    24    26    1
     4    26    27   ar
     5    27    28   ar
     6    28    29   ar
     7    29    30    1
     8    29    31   ar
     9    31    32   ar
    10    23     1    1
    11     1     2    2
    12     1     3   am
    13     3     4    1
    14     4     5    1
    15     5     6    1
    16     6    11    1
    17    11    12   ar
    18    12    13   ar
    19    13    14   ar
    20    14    15   ar
    21    15    16   ar
    22    16    17   ar
    23    17    18   ar
    24    18    19    1
    25    18    20   ar
    26    20    21   ar
    27     6     7    1
    28     7     8    1
    29     7     9    1
    30    32    26   ar
    31     9     3    1
    32    21    11   ar
    33    21    15   ar
    34    24    25    1
    35     8    10    1
