@<TRIPOS>MOLECULE
*****
 42 45 0 0 0
SMALL
GASTEIGER

@<TRIPOS>ATOM
      1 C           2.3885    1.1214   19.8352 C.3     1  UNL1        0.0771
      2 C           2.8636    0.9496   18.4229 C.3     1  UNL1        0.0370
      3 C           3.5821   -0.3041   18.0206 C.3     1  UNL1        0.0742
      4 N           3.8254   -1.3861   19.0306 N.3     1  UNL1       -0.2649
      5 C           3.3502   -1.2144   20.4429 C.3     1  UNL1        0.0755
      6 C           2.6318    0.0394   20.8452 C.3     1  UNL1        0.0500
      7 N          -0.5313    3.6041   20.8653 N.am    1  UNL1       -0.2485
      8 C           0.1872    2.3504   20.4629 C.2     1  UNL1        0.3058
      9 O          -0.5771    1.0719   20.2858 O.2     1  UNL1       -0.2524
     10 N           1.6700    2.3752   20.2376 N.am    1  UNL1       -0.2901
     11 H          -0.0296    4.4432   20.9815 H       1  UNL1        0.1583
     12 H           2.1716    3.2143   20.3538 H       1  UNL1        0.1509
     13 C          -4.4080    3.7286   20.7198 C.ar    1  UNL1        0.0803
     14 S          -3.0671    3.8679   20.0621 S.2     1  UNL1       -0.0488
     15 C          -2.0140    3.5794   21.0906 C.ar    1  UNL1        0.1664
     16 N          -2.7042    3.2619   22.3840 N.ar    1  UNL1       -0.2282
     17 C          -4.1837    3.3541   22.1549 C.ar    1  UNL1        0.0701
     18 C          -5.2514    3.1139   23.1807 C.3     1  UNL1        0.0528
     19 C          -6.0807    3.1650   18.8135 C.3     1  UNL1        0.0779
     20 C          -5.7394    3.9287   20.0585 C.2     1  UNL1        0.1807
     21 O          -6.7294    4.8925   20.6423 O.2     1  UNL1       -0.2908
     22 C           4.5439   -2.6399   18.6282 C.3     1  UNL1        0.1586
     23 C           6.0434   -2.6731   18.6130 C.2     1  UNL1        0.2421
     24 O           6.7900   -2.2695   17.3762 O.2     1  UNL1       -0.2734
     25 N           6.7964   -3.1098   19.8346 N.am    1  UNL1       -0.2749
     26 C           8.2959   -3.1429   19.8194 C.3     1  UNL1        0.1149
     27 C           6.0498   -3.5134   21.0714 C.3     1  UNL1        0.1149
     28 C           2.1566    0.2112   22.2576 C.3     1  UNL1        0.0751
     29 N           2.9319    1.0722   23.2103 N.3     1  UNL1       -0.2726
     30 C           4.3113    1.5373   22.8481 C.3     1  UNL1        0.0721
     31 C           5.0867    2.3983   23.8008 C.3     1  UNL1        0.0174
     32 C           4.4826    2.7942   25.1155 C.3     1  UNL1        0.0031
     33 C           3.1033    2.3291   25.4776 C.3     1  UNL1        0.0204
     34 C           2.3280    1.4681   24.5249 C.3     1  UNL1        0.0724
     35 C           2.4992    2.7250   26.7923 C.3     1  UNL1        0.0277
     36 C           1.3759    1.9193   27.3745 C.ar    1  UNL1       -0.0220
     37 C          -0.0450    2.3503   27.1616 C.ar    1  UNL1       -0.0020
     38 C          -1.1684    1.5446   27.7437 C.ar    1  UNL1        0.0293
     39 C          -0.8707    0.3079   28.5389 C.ar    1  UNL1        0.1401
     40 F          -1.9941   -0.4978   29.1211 F       1  UNL1       -0.2042
     41 C           0.5501   -0.1230   28.7518 C.ar    1  UNL1        0.0293
     42 C           1.6735    0.6827   28.1696 C.ar    1  UNL1       -0.0020
@<TRIPOS>BOND
     1    19    20    1
     2    20    21    2
     3    20    13    1
     4    13    14   ar
     5    14    15   ar
     6    15     7    1
     7     7     8   am
     8     8     9    2
     9     8    10   am
    10     1    10    1
    11     1     2    1
    12     2     3    1
    13     3     4    1
    14     4    22    1
    15    22    23    1
    16    23    24    2
    17    23    25   am
    18    25    26    1
    19    25    27    1
    20     4     5    1
    21     5     6    1
    22     6    28    1
    23    28    29    1
    24    29    30    1
    25    30    31    1
    26    31    32    1
    27    32    33    1
    28    33    35    1
    29    35    36    1
    30    36    37   ar
    31    37    38   ar
    32    38    39   ar
    33    39    40    1
    34    39    41   ar
    35    41    42   ar
    36    33    34    1
    37    15    16   ar
    38    16    17   ar
    39    17    18    1
    40    17    13   ar
    41     6     1    1
    42    34    29    1
    43    42    36   ar
    44     7    11    1
    45    10    12    1
@<TRIPOS>MOLECULE
*****
 42 45 0 0 0
SMALL
GASTEIGER

@<TRIPOS>ATOM
      1 C           3.0354    0.5832   21.6610 C.3     1  UNL1        0.0771
      2 C           4.5073    0.3296   21.7990 C.3     1  UNL1        0.0370
      3 C           5.1744   -0.7026   20.9391 C.3     1  UNL1        0.0742
      4 N           4.3696   -1.4812   19.9411 N.3     1  UNL1       -0.2649
      5 C           2.8977   -1.2276   19.8030 C.3     1  UNL1        0.0755
      6 C           2.2306   -0.1954   20.6630 C.3     1  UNL1        0.0500
      7 N           1.2574    2.2938   24.7694 N.am    1  UNL1       -0.2485
      8 C           1.9245    1.2617   23.9094 C.2     1  UNL1        0.3058
      9 O           2.1479   -0.1243   24.4380 O.2     1  UNL1       -0.2524
     10 N           2.3683    1.6154   22.5209 N.am    1  UNL1       -0.2901
     11 H           1.1108    3.2035   24.4225 H       1  UNL1        0.1583
     12 H           2.2216    2.5250   22.1740 H       1  UNL1        0.1509
     13 C           0.6876    1.8106   28.5783 C.ar    1  UNL1        0.0803
     14 S           1.4537    2.4033   27.4329 S.2     1  UNL1       -0.0488
     15 C           0.8136    1.9401   26.1579 C.ar    1  UNL1        0.1664
     16 N          -0.3481    1.0611   26.5152 N.ar    1  UNL1       -0.2282
     17 C          -0.4260    0.9810   28.0110 C.ar    1  UNL1        0.0701
     18 C          -1.4396    0.2072   28.8009 C.3     1  UNL1        0.0528
     19 C           0.9079    3.3858   30.6325 C.3     1  UNL1        0.0779
     20 C           0.9832    2.0121   30.0350 C.2     1  UNL1        0.1807
     21 O           1.3540    0.8398   30.8941 O.2     1  UNL1       -0.2908
     22 C           5.0367   -2.5134   19.0811 C.3     1  UNL1        0.1586
     23 C           6.4592   -2.3212   18.6457 C.2     1  UNL1        0.2421
     24 O           6.7608   -1.6005   17.3653 O.2     1  UNL1       -0.2734
     25 N           7.5802   -2.8498   19.4908 N.am    1  UNL1       -0.2749
     26 C           9.0027   -2.6576   19.0555 C.3     1  UNL1        0.1149
     27 C           7.2786   -3.5706   20.7713 C.3     1  UNL1        0.1149
     28 C           0.7586    0.0582   20.5249 C.3     1  UNL1        0.0751
     29 N           0.2703    1.3791   20.0083 N.3     1  UNL1       -0.2726
     30 C           0.4893    1.7496   18.5713 C.3     1  UNL1        0.0721
     31 C           0.0010    3.0705   18.0547 C.3     1  UNL1        0.0174
     32 C          -0.7061    4.0208   18.9750 C.3     1  UNL1        0.0031
     33 C          -0.9250    3.6502   20.4119 C.3     1  UNL1        0.0204
     34 C          -0.4368    2.3293   20.9285 C.3     1  UNL1        0.0724
     35 C          -1.6322    4.6005   21.3322 C.3     1  UNL1        0.0277
     36 C          -3.0727    4.3727   21.6830 C.ar    1  UNL1       -0.0220
     37 C          -4.1524    4.7983   20.7326 C.ar    1  UNL1       -0.0020
     38 C          -5.5929    4.5705   21.0833 C.ar    1  UNL1        0.0293
     39 C          -5.9537    3.9171   22.3844 C.ar    1  UNL1        0.1401
     40 F          -7.3943    3.6893   22.7352 F       1  UNL1       -0.2042
     41 C          -4.8741    3.4915   23.3348 C.ar    1  UNL1        0.0293
     42 C          -3.4336    3.7193   22.9840 C.ar    1  UNL1       -0.0020
@<TRIPOS>BOND
     1    19    20    1
     2    20    21    2
     3    20    13    1
     4    13    14   ar
     5    14    15   ar
     6    15     7    1
     7     7     8   am
     8     8     9    2
     9     8    10   am
    10     1    10    1
    11     1     2    1
    12     2     3    1
    13     3     4    1
    14     4    22    1
    15    22    23    1
    16    23    24    2
    17    23    25   am
    18    25    26    1
    19    25    27    1
    20     4     5    1
    21     5     6    1
    22     6    28    1
    23    28    29    1
    24    29    30    1
    25    30    31    1
    26    31    32    1
    27    32    33    1
    28    33    35    1
    29    35    36    1
    30    36    37   ar
    31    37    38   ar
    32    38    39   ar
    33    39    40    1
    34    39    41   ar
    35    41    42   ar
    36    33    34    1
    37    15    16   ar
    38    16    17   ar
    39    17    18    1
    40    17    13   ar
    41     6     1    1
    42    34    29    1
    43    42    36   ar
    44     7    11    1
    45    10    12    1
@<TRIPOS>MOLECULE
*****
 42 45 0 0 0
SMALL
GASTEIGER

@<TRIPOS>ATOM
      1 C           2.5323    1.8977   19.2306 C.3     1  UNL1        0.0771
      2 C           2.5610    0.7286   18.2914 C.3     1  UNL1        0.0370
      3 C           3.5747   -0.3607   18.4806 C.3     1  UNL1        0.0742
      4 N           4.5597   -0.2808   19.6091 N.3     1  UNL1       -0.2649
      5 C           4.5310    0.8884   20.5482 C.3     1  UNL1        0.0755
      6 C           3.5173    1.9777   20.3590 C.3     1  UNL1        0.0500
      7 N          -0.8750    3.9237   19.4204 N.am    1  UNL1       -0.2485
      8 C           0.1387    2.8344   19.6095 C.2     1  UNL1        0.3058
      9 O          -0.2274    1.5924   20.3669 O.2     1  UNL1       -0.2524
     10 N           1.5185    2.9871   19.0414 N.am    1  UNL1       -0.2901
     11 H          -0.6348    4.7388   18.9233 H       1  UNL1        0.1583
     12 H           1.7588    3.8022   18.5443 H       1  UNL1        0.1509
     13 C          -4.6716    3.7661   20.2121 C.ar    1  UNL1        0.0803
     14 S          -3.5406    4.0535   19.2696 S.2     1  UNL1       -0.0488
     15 C          -2.2548    3.7710   19.9885 C.ar    1  UNL1        0.1664
     16 N          -2.5912    3.3090   21.3754 N.ar    1  UNL1       -0.2282
     17 C          -4.0848    3.3060   21.5136 C.ar    1  UNL1        0.0701
     18 C          -4.8561    2.9120   22.7382 C.3     1  UNL1        0.0528
     19 C          -6.7204    3.2314   18.7067 C.3     1  UNL1        0.0779
     20 C          -6.1328    3.9131   19.9067 C.2     1  UNL1        0.1807
     21 O          -7.0063    4.7417   20.8012 O.2     1  UNL1       -0.2908
     22 C           5.5735   -1.3701   19.7983 C.3     1  UNL1        0.1586
     23 C           5.4766   -2.6327   18.9943 C.2     1  UNL1        0.2421
     24 O           6.0235   -2.6767   17.5982 O.2     1  UNL1       -0.2734
     25 N           4.8327   -3.8513   19.5863 N.am    1  UNL1       -0.2749
     26 C           4.7358   -5.1139   18.7823 C.3     1  UNL1        0.1149
     27 C           4.2858   -3.8073   20.9824 C.3     1  UNL1        0.1149
     28 C           3.4886    3.1470   21.2982 C.3     1  UNL1        0.0751
     29 N           2.3387    3.3198   22.2457 N.3     1  UNL1       -0.2726
     30 C           1.6072    4.6280   22.3067 C.3     1  UNL1        0.0721
     31 C           0.4573    4.8008   23.2543 C.3     1  UNL1        0.0174
     32 C           0.0388    3.6654   24.1408 C.3     1  UNL1        0.0031
     33 C           0.7702    2.3573   24.0797 C.3     1  UNL1        0.0204
     34 C           1.9202    2.1845   23.1322 C.3     1  UNL1        0.0724
     35 C           0.3517    1.2219   24.9662 C.3     1  UNL1        0.0277
     36 C           0.4756    1.3484   26.4557 C.ar    1  UNL1       -0.0220
     37 C          -0.6419    0.8859   27.3432 C.ar    1  UNL1       -0.0020
     38 C          -0.5180    1.0124   28.8327 C.ar    1  UNL1        0.0293
     39 C           0.7233    1.6014   29.4348 C.ar    1  UNL1        0.1401
     40 F           0.8471    1.7279   30.9243 F       1  UNL1       -0.2042
     41 C           1.8406    2.0638   28.5473 C.ar    1  UNL1        0.0293
     42 C           1.7168    1.9373   27.0578 C.ar    1  UNL1       -0.0020
@<TRIPOS>BOND
     1    19    20    1
     2    20    21    2
     3    20    13    1
     4    13    14   ar
     5    14    15   ar
     6    15     7    1
     7     7     8   am
     8     8     9    2
     9     8    10   am
    10     1    10    1
    11     1     2    1
    12     2     3    1
    13     3     4    1
    14     4    22    1
    15    22    23    1
    16    23    24    2
    17    23    25   am
    18    25    26    1
    19    25    27    1
    20     4     5    1
    21     5     6    1
    22     6    28    1
    23    28    29    1
    24    29    30    1
    25    30    31    1
    26    31    32    1
    27    32    33    1
    28    33    35    1
    29    35    36    1
    30    36    37   ar
    31    37    38   ar
    32    38    39   ar
    33    39    40    1
    34    39    41   ar
    35    41    42   ar
    36    33    34    1
    37    15    16   ar
    38    16    17   ar
    39    17    18    1
    40    17    13   ar
    41     6     1    1
    42    34    29    1
    43    42    36   ar
    44     7    11    1
    45    10    12    1
@<TRIPOS>MOLECULE
*****
 42 45 0 0 0
SMALL
GASTEIGER

@<TRIPOS>ATOM
      1 C           3.4652    0.8000   18.5930 C.3     1  UNL1        0.0771
      2 C           3.3981   -0.2048   17.4814 C.3     1  UNL1        0.0370
      3 C           4.0789   -1.5332   17.6291 C.3     1  UNL1        0.0742
      4 N           4.8267   -1.8568   18.8885 N.3     1  UNL1       -0.2649
      5 C           4.8938   -0.8520   20.0001 C.3     1  UNL1        0.0755
      6 C           4.2131    0.4765   19.8524 C.3     1  UNL1        0.0500
      7 N           0.6193    3.5639   18.4848 N.am    1  UNL1       -0.2485
      8 C           1.3001    2.2355   18.6325 C.2     1  UNL1        0.3058
      9 O           0.4964    1.0140   18.9674 O.2     1  UNL1       -0.2524
     10 N           2.7845    2.1285   18.4453 N.am    1  UNL1       -0.2901
     11 H           1.1468    4.3656   18.2650 H       1  UNL1        0.1583
     12 H           3.3120    2.9302   18.2255 H       1  UNL1        0.1509
     13 C          -3.0596    3.7818   19.7028 C.ar    1  UNL1        0.0803
     14 S          -1.5924    3.6468   19.9837 S.2     1  UNL1       -0.0488
     15 C          -0.8651    3.6709   18.6720 C.ar    1  UNL1        0.1664
     16 N          -1.8829    3.8208   17.5805 N.ar    1  UNL1       -0.2282
     17 C          -3.2392    3.8894   18.2175 C.ar    1  UNL1        0.0701
     18 C          -4.5457    4.0391   17.4959 C.3     1  UNL1        0.0528
     19 C          -4.8209    5.1010   21.0839 C.3     1  UNL1        0.0779
     20 C          -4.1550    3.8051   20.7273 C.2     1  UNL1        0.1807
     21 O          -4.5844    2.5326   21.3953 O.2     1  UNL1       -0.2908
     22 C           5.5075   -3.1853   19.0362 C.3     1  UNL1        0.1586
     23 C           5.7832   -3.7389   20.4027 C.2     1  UNL1        0.2421
     24 O           4.6868   -4.4112   21.1748 O.2     1  UNL1       -0.2734
     25 N           7.1552   -3.6202   20.9973 N.am    1  UNL1       -0.2749
     26 C           7.4309   -4.1739   22.3638 C.3     1  UNL1        0.1149
     27 C           8.2515   -2.9479   20.2252 C.3     1  UNL1        0.1149
     28 C           4.2802    1.4814   20.9640 C.3     1  UNL1        0.0751
     29 N           3.2122    1.5073   22.0170 N.3     1  UNL1       -0.2726
     30 C           2.9977    0.3118   22.8974 C.3     1  UNL1        0.0721
     31 C           1.9298    0.3378   23.9504 C.3     1  UNL1        0.0174
     32 C           1.0763    1.5592   24.1230 C.3     1  UNL1        0.0031
     33 C           1.2907    2.7546   23.2427 C.3     1  UNL1        0.0204
     34 C           2.3587    2.7286   22.1897 C.3     1  UNL1        0.0724
     35 C           0.4372    3.9760   23.4153 C.3     1  UNL1        0.0277
     36 C          -0.7490    3.9385   24.3326 C.ar    1  UNL1       -0.0220
     37 C          -0.5817    4.2590   25.7885 C.ar    1  UNL1       -0.0020
     38 C          -1.7680    4.2215   26.7058 C.ar    1  UNL1        0.0293
     39 C          -3.1215    3.8635   26.1673 C.ar    1  UNL1        0.1401
     40 F          -4.3077    3.8259   27.0846 F       1  UNL1       -0.2042
     41 C          -3.2887    3.5430   24.7115 C.ar    1  UNL1        0.0293
     42 C          -2.1025    3.5805   23.7942 C.ar    1  UNL1       -0.0020
@<TRIPOS>BOND
     1    19    20    1
     2    20    21    2
     3    20    13    1
     4    13    14   ar
     5    14    15   ar
     6    15     7    1
     7     7     8   am
     8     8     9    2
     9     8    10   am
    10     1    10    1
    11     1     2    1
    12     2     3    1
    13     3     4    1
    14     4    22    1
    15    22    23    1
    16    23    24    2
    17    23    25   am
    18    25    26    1
    19    25    27    1
    20     4     5    1
    21     5     6    1
    22     6    28    1
    23    28    29    1
    24    29    30    1
    25    30    31    1
    26    31    32    1
    27    32    33    1
    28    33    35    1
    29    35    36    1
    30    36    37   ar
    31    37    38   ar
    32    38    39   ar
    33    39    40    1
    34    39    41   ar
    35    41    42   ar
    36    33    34    1
    37    15    16   ar
    38    16    17   ar
    39    17    18    1
    40    17    13   ar
    41     6     1    1
    42    34    29    1
    43    42    36   ar
    44     7    11    1
    45    10    12    1
@<TRIPOS>MOLECULE
*****
 42 45 0 0 0
SMALL
GASTEIGER

@<TRIPOS>ATOM
      1 C           0.8535    3.2641   18.9003 C.3     1  UNL1        0.0771
      2 C          -0.2147    3.2467   17.8474 C.3     1  UNL1        0.0370
      3 C          -1.5643    3.8328   18.1386 C.3     1  UNL1        0.0742
      4 N          -1.8458    4.4363   19.4826 N.3     1  UNL1       -0.2649
      5 C          -0.7777    4.4538   20.5355 C.3     1  UNL1        0.0755
      6 C           0.5720    3.8676   20.2444 C.3     1  UNL1        0.0500
      7 N           3.8563    0.6762   18.7105 N.am    1  UNL1       -0.2485
      8 C           2.5066    1.2623   19.0016 C.2     1  UNL1        0.3058
      9 O           1.4602    0.4328   19.6851 O.2     1  UNL1       -0.2524
     10 N           2.2033    2.6780   18.6092 N.am    1  UNL1       -0.2901
     11 H           4.5430    1.2206   18.2619 H       1  UNL1        0.1583
     12 H           2.8900    3.2224   18.1606 H       1  UNL1        0.1509
     13 C           4.9093   -2.6767   20.3581 C.ar    1  UNL1        0.0803
     14 S           4.7956   -1.1813   20.3875 S.2     1  UNL1       -0.0488
     15 C           4.1597   -0.7395   19.1029 C.ar    1  UNL1        0.1664
     16 N           3.8803   -1.9618   18.2796 N.ar    1  UNL1       -0.2282
     17 C           4.3436   -3.1591   19.0553 C.ar    1  UNL1        0.0701
     18 C           4.2565   -4.5879   18.6070 C.3     1  UNL1        0.0528
     19 C           4.8691   -3.5406   22.8080 C.3     1  UNL1        0.0779
     20 C           5.4873   -3.5385   21.4414 C.2     1  UNL1        0.1807
     21 O           6.6833   -4.3980   21.1580 O.2     1  UNL1       -0.2908
     22 C          -3.1956    5.0225   19.7737 C.3     1  UNL1        0.1586
     23 C          -4.2265    4.2083   20.4979 C.2     1  UNL1        0.2421
     24 O          -5.0574    3.2107   19.7468 O.2     1  UNL1       -0.2734
     25 N          -4.4264    4.3919   21.9732 N.am    1  UNL1       -0.2749
     26 C          -5.4573    3.5777   22.6973 C.3     1  UNL1        0.1149
     27 C          -3.5954    5.3895   22.7243 C.3     1  UNL1        0.1149
     28 C           1.6403    3.8850   21.2973 C.3     1  UNL1        0.0751
     29 N           1.6375    2.8527   22.3856 N.3     1  UNL1       -0.2726
     30 C           2.7465    1.8458   22.4670 C.3     1  UNL1        0.0721
     31 C           2.7438    0.8135   23.5552 C.3     1  UNL1        0.0174
     32 C           1.6321    0.7880   24.5620 C.3     1  UNL1        0.0031
     33 C           0.5232    1.7948   24.4806 C.3     1  UNL1        0.0204
     34 C           0.5260    2.8271   23.3924 C.3     1  UNL1        0.0724
     35 C          -0.5884    1.7693   25.4874 C.3     1  UNL1        0.0277
     36 C          -0.2721    1.7537   26.9536 C.ar    1  UNL1       -0.0220
     37 C           0.4583    2.9068   27.5756 C.ar    1  UNL1       -0.0020
     38 C           0.7746    2.8912   29.0418 C.ar    1  UNL1        0.0293
     39 C           0.3604    1.7224   29.8860 C.ar    1  UNL1        0.1401
     40 F           0.6767    1.7068   31.3522 F       1  UNL1       -0.2042
     41 C          -0.3699    0.5694   29.2640 C.ar    1  UNL1        0.0293
     42 C          -0.6862    0.5850   27.7978 C.ar    1  UNL1       -0.0020
@<TRIPOS>BOND
     1    19    20    1
     2    20    21    2
     3    20    13    1
     4    13    14   ar
     5    14    15   ar
     6    15     7    1
     7     7     8   am
     8     8     9    2
     9     8    10   am
    10     1    10    1
    11     1     2    1
    12     2     3    1
    13     3     4    1
    14     4    22    1
    15    22    23    1
    16    23    24    2
    17    23    25   am
    18    25    26    1
    19    25    27    1
    20     4     5    1
    21     5     6    1
    22     6    28    1
    23    28    29    1
    24    29    30    1
    25    30    31    1
    26    31    32    1
    27    32    33    1
    28    33    35    1
    29    35    36    1
    30    36    37   ar
    31    37    38   ar
    32    38    39   ar
    33    39    40    1
    34    39    41   ar
    35    41    42   ar
    36    33    34    1
    37    15    16   ar
    38    16    17   ar
    39    17    18    1
    40    17    13   ar
    41     6     1    1
    42    34    29    1
    43    42    36   ar
    44     7    11    1
    45    10    12    1
@<TRIPOS>MOLECULE
*****
 42 45 0 0 0
SMALL
GASTEIGER

@<TRIPOS>ATOM
      1 C           3.6640    0.8165   18.5148 C.3     1  UNL1        0.0771
      2 C           3.4142   -0.2838   17.5266 C.3     1  UNL1        0.0370
      3 C           4.0952   -1.6099   17.6927 C.3     1  UNL1        0.0742
      4 N           5.0261   -1.8356   18.8471 N.3     1  UNL1       -0.2649
      5 C           5.2759   -0.7352   19.8354 C.3     1  UNL1        0.0755
      6 C           4.5948    0.5909   19.6692 C.3     1  UNL1        0.0500
      7 N           0.8217    3.5837   18.3967 N.am    1  UNL1       -0.2485
      8 C           1.5027    2.2577   18.5628 C.2     1  UNL1        0.3058
      9 O           0.7036    1.0465   18.9429 O.2     1  UNL1       -0.2524
     10 N           2.9829    2.1427   18.3488 N.am    1  UNL1       -0.2901
     11 H           1.3462    4.3787   18.1472 H       1  UNL1        0.1583
     12 H           3.5074    2.9376   18.0993 H       1  UNL1        0.1509
     13 C          -2.8317    3.8417   19.6820 C.ar    1  UNL1        0.0803
     14 S          -1.3593    3.7114   19.9370 S.2     1  UNL1       -0.0488
     15 C          -0.6585    3.6987   18.6108 C.ar    1  UNL1        0.1664
     16 N          -1.6979    3.8211   17.5362 N.ar    1  UNL1       -0.2282
     17 C          -3.0410    3.9095   18.1983 C.ar    1  UNL1        0.0701
     18 C          -4.3615    4.0424   17.4993 C.3     1  UNL1        0.0528
     19 C          -4.4804    5.2157   21.1461 C.3     1  UNL1        0.0779
     20 C          -3.9062    3.8948   20.7274 C.2     1  UNL1        0.1807
     21 O          -4.4063    2.6271   21.3539 O.2     1  UNL1       -0.2908
     22 C           5.7071   -3.1618   19.0132 C.3     1  UNL1        0.1586
     23 C           5.9143   -3.7319   20.3850 C.2     1  UNL1        0.2421
     24 O           4.7700   -4.3757   21.1103 O.2     1  UNL1       -0.2734
     25 N           7.2658   -3.6582   21.0316 N.am    1  UNL1       -0.2749
     26 C           7.4730   -4.2283   22.4035 C.3     1  UNL1        0.1149
     27 C           8.4101   -3.0144   20.3063 C.3     1  UNL1        0.1149
     28 C           4.8446    1.6913   20.6575 C.3     1  UNL1        0.0751
     29 N           3.6913    2.3451   21.3594 N.3     1  UNL1       -0.2726
     30 C           3.5228    3.8344   21.2982 C.3     1  UNL1        0.0721
     31 C           2.3695    4.4881   22.0000 C.3     1  UNL1        0.0174
     32 C           1.3848    3.6525   22.7631 C.3     1  UNL1        0.0031
     33 C           1.5534    2.1633   22.8243 C.3     1  UNL1        0.0204
     34 C           2.7066    1.5096   22.1224 C.3     1  UNL1        0.0724
     35 C           0.5686    1.3278   23.5873 C.3     1  UNL1        0.0277
     36 C           0.4317    1.4980   25.0713 C.ar    1  UNL1       -0.0220
     37 C          -0.8381    2.0498   25.6489 C.ar    1  UNL1       -0.0020
     38 C          -0.9750    2.2200   27.1329 C.ar    1  UNL1        0.0293
     39 C           0.1577    1.8386   28.0393 C.ar    1  UNL1        0.1401
     40 F           0.0207    2.0088   29.5233 F       1  UNL1       -0.2042
     41 C           1.4273    1.2869   27.4617 C.ar    1  UNL1        0.0293
     42 C           1.5643    1.1166   25.9777 C.ar    1  UNL1       -0.0020
@<TRIPOS>BOND
     1    19    20    1
     2    20    21    2
     3    20    13    1
     4    13    14   ar
     5    14    15   ar
     6    15     7    1
     7     7     8   am
     8     8     9    2
     9     8    10   am
    10     1    10    1
    11     1     2    1
    12     2     3    1
    13     3     4    1
    14     4    22    1
    15    22    23    1
    16    23    24    2
    17    23    25   am
    18    25    26    1
    19    25    27    1
    20     4     5    1
    21     5     6    1
    22     6    28    1
    23    28    29    1
    24    29    30    1
    25    30    31    1
    26    31    32    1
    27    32    33    1
    28    33    35    1
    29    35    36    1
    30    36    37   ar
    31    37    38   ar
    32    38    39   ar
    33    39    40    1
    34    39    41   ar
    35    41    42   ar
    36    33    34    1
    37    15    16   ar
    38    16    17   ar
    39    17    18    1
    40    17    13   ar
    41     6     1    1
    42    34    29    1
    43    42    36   ar
    44     7    11    1
    45    10    12    1
@<TRIPOS>MOLECULE
*****
 42 45 0 0 0
SMALL
GASTEIGER

@<TRIPOS>ATOM
      1 C           5.5275   -3.1568   23.4400 C.3     1  UNL1        0.0771
      2 C           4.3026   -2.9943   22.5895 C.3     1  UNL1        0.0370
      3 C           4.4248   -2.9745   21.0947 C.3     1  UNL1        0.0742
      4 N           5.7718   -3.1172   20.4503 N.3     1  UNL1       -0.2649
      5 C           6.9966   -3.2797   21.3007 C.3     1  UNL1        0.0755
      6 C           6.8745   -3.2994   22.7956 C.3     1  UNL1        0.0500
      7 N           4.7668   -1.9897   27.1561 N.am    1  UNL1       -0.2485
      8 C           4.8889   -1.9700   25.6613 C.2     1  UNL1        0.3058
      9 O           4.4945   -0.7437   24.8926 O.2     1  UNL1       -0.2524
     10 N           5.4054   -3.1765   24.9349 N.am    1  UNL1       -0.2901
     11 H           5.0256   -2.7946   27.6606 H       1  UNL1        0.1583
     12 H           5.6642   -3.9814   25.4394 H       1  UNL1        0.1509
     13 C           2.7725    0.7650   29.0269 C.ar    1  UNL1        0.0803
     14 S           2.8415   -0.5731   28.3526 S.2     1  UNL1       -0.0488
     15 C           4.2503   -0.7832   27.8824 C.ar    1  UNL1        0.1664
     16 N           5.0520    0.4252   28.2661 N.ar    1  UNL1       -0.2282
     17 C           4.1387    1.3820   28.9734 C.ar    1  UNL1        0.0701
     18 C           4.5239    2.7208   29.5296 C.3     1  UNL1        0.0528
     19 C           0.8265    2.4841   28.9375 C.3     1  UNL1        0.0779
     20 C           1.5516    1.3785   29.6459 C.2     1  UNL1        0.1807
     21 O           1.0558    0.8863   30.9732 O.2     1  UNL1       -0.2908
     22 C           5.8939   -3.0974   18.9553 C.3     1  UNL1        0.1586
     23 C           6.4613   -1.8927   18.2651 C.2     1  UNL1        0.2421
     24 O           7.9445   -1.6697   18.2437 O.2     1  UNL1       -0.2734
     25 N           5.5456   -0.9108   17.5961 N.am    1  UNL1       -0.2749
     26 C           6.1131    0.2939   16.9058 C.3     1  UNL1        0.1149
     27 C           4.0624   -1.1338   17.6174 C.3     1  UNL1        0.1149
     28 C           8.0994   -3.4619   23.6461 C.3     1  UNL1        0.0751
     29 N           8.2677   -4.6892   24.4919 N.3     1  UNL1       -0.2726
     30 C           7.8870   -6.0338   23.9466 C.3     1  UNL1        0.0721
     31 C           8.0554   -7.2612   24.7924 C.3     1  UNL1        0.0174
     32 C           8.6045   -7.1439   26.1834 C.3     1  UNL1        0.0031
     33 C           8.9853   -5.7994   26.7285 C.3     1  UNL1        0.0204
     34 C           8.8169   -4.5720   25.8828 C.3     1  UNL1        0.0724
     35 C           9.5344   -5.6821   28.1195 C.3     1  UNL1        0.0277
     36 C           8.6536   -5.2046   29.2358 C.ar    1  UNL1       -0.0220
     37 C           8.5871   -3.7428   29.5657 C.ar    1  UNL1       -0.0020
     38 C           7.7062   -3.2652   30.6820 C.ar    1  UNL1        0.0293
     39 C           6.8919   -4.2495   31.4683 C.ar    1  UNL1        0.1401
     40 F           6.0111   -3.7719   32.5846 F       1  UNL1       -0.2042
     41 C           6.9584   -5.7112   31.1384 C.ar    1  UNL1        0.0293
     42 C           7.8393   -6.1887   30.0221 C.ar    1  UNL1       -0.0020
@<TRIPOS>BOND
     1    19    20    1
     2    20    21    2
     3    20    13    1
     4    13    14   ar
     5    14    15   ar
     6    15     7    1
     7     7     8   am
     8     8     9    2
     9     8    10   am
    10     1    10    1
    11     1     2    1
    12     2     3    1
    13     3     4    1
    14     4    22    1
    15    22    23    1
    16    23    24    2
    17    23    25   am
    18    25    26    1
    19    25    27    1
    20     4     5    1
    21     5     6    1
    22     6    28    1
    23    28    29    1
    24    29    30    1
    25    30    31    1
    26    31    32    1
    27    32    33    1
    28    33    35    1
    29    35    36    1
    30    36    37   ar
    31    37    38   ar
    32    38    39   ar
    33    39    40    1
    34    39    41   ar
    35    41    42   ar
    36    33    34    1
    37    15    16   ar
    38    16    17   ar
    39    17    18    1
    40    17    13   ar
    41     6     1    1
    42    34    29    1
    43    42    36   ar
    44     7    11    1
    45    10    12    1
@<TRIPOS>MOLECULE
*****
 42 45 0 0 0
SMALL
GASTEIGER

@<TRIPOS>ATOM
      1 C           4.6054    0.0891   28.3650 C.3     1  UNL1        0.0771
      2 C           5.5791   -1.0480   28.2718 C.3     1  UNL1        0.0370
      3 C           5.8583   -1.8970   29.4764 C.3     1  UNL1        0.0742
      4 N           5.1638   -1.6088   30.7743 N.3     1  UNL1       -0.2649
      5 C           4.1900   -0.4717   30.8676 C.3     1  UNL1        0.0755
      6 C           3.9108    0.3772   29.6629 C.3     1  UNL1        0.0500
      7 N           3.6907    1.1415   24.6494 N.am    1  UNL1       -0.2485
      8 C           3.9699    0.2926   25.8541 C.2     1  UNL1        0.3058
      9 O           3.8930   -1.2021   25.7525 O.2     1  UNL1       -0.2524
     10 N           4.3261    0.9382   27.1603 N.am    1  UNL1       -0.2901
     11 H           3.7412    2.1225   24.7161 H       1  UNL1        0.1583
     12 H           4.3766    1.9191   27.2270 H       1  UNL1        0.1509
     13 C           3.4888   -0.7519   21.2671 C.ar    1  UNL1        0.0803
     14 S           4.2617   -0.2951   22.4688 S.2     1  UNL1       -0.0488
     15 C           3.3345    0.4959   23.3431 C.ar    1  UNL1        0.1664
     16 N           1.9885    0.5280   22.6818 N.ar    1  UNL1       -0.2282
     17 C           2.0839   -0.2432   21.3988 C.ar    1  UNL1        0.0701
     18 C           0.9699   -0.4665   20.4194 C.3     1  UNL1        0.0528
     19 C           5.2344   -1.1066   19.3759 C.3     1  UNL1        0.0779
     20 C           4.0265   -1.5732   20.1329 C.2     1  UNL1        0.1807
     21 O           3.3562   -2.8609   19.7558 O.2     1  UNL1       -0.2908
     22 C           5.4430   -2.4579   31.9790 C.3     1  UNL1        0.1586
     23 C           4.9120   -2.0522   33.3219 C.2     1  UNL1        0.2421
     24 O           3.6728   -2.6998   33.8652 O.2     1  UNL1       -0.2734
     25 N           5.6200   -0.9990   34.1216 N.am    1  UNL1       -0.2749
     26 C           5.0889   -0.5934   35.4644 C.3     1  UNL1        0.1149
     27 C           6.8592   -0.3515   33.5783 C.3     1  UNL1        0.1149
     28 C           2.9370    1.5144   29.7562 C.3     1  UNL1        0.0751
     29 N           1.6276    1.4421   29.0281 N.3     1  UNL1       -0.2726
     30 C           0.7762    0.2118   29.1363 C.3     1  UNL1        0.0721
     31 C          -0.5333    0.1394   28.4083 C.3     1  UNL1        0.0174
     32 C          -0.9913    1.2974   27.5719 C.3     1  UNL1        0.0031
     33 C          -0.1400    2.5276   27.4636 C.3     1  UNL1        0.0204
     34 C           1.1695    2.5999   28.1917 C.3     1  UNL1        0.0724
     35 C          -0.5981    3.6855   26.6273 C.3     1  UNL1        0.0277
     36 C          -2.0259    3.7653   26.1747 C.ar    1  UNL1       -0.0220
     37 C          -2.3988    3.3294   24.7886 C.ar    1  UNL1       -0.0020
     38 C          -3.8267    3.4092   24.3360 C.ar    1  UNL1        0.0293
     39 C          -4.8816    3.9248   25.2695 C.ar    1  UNL1        0.1401
     40 F          -6.3095    4.0046   24.8168 F       1  UNL1       -0.2042
     41 C          -4.5087    4.3607   26.6554 C.ar    1  UNL1        0.0293
     42 C          -3.0809    4.2809   27.1080 C.ar    1  UNL1       -0.0020
@<TRIPOS>BOND
     1    19    20    1
     2    20    21    2
     3    20    13    1
     4    13    14   ar
     5    14    15   ar
     6    15     7    1
     7     7     8   am
     8     8     9    2
     9     8    10   am
    10     1    10    1
    11     1     2    1
    12     2     3    1
    13     3     4    1
    14     4    22    1
    15    22    23    1
    16    23    24    2
    17    23    25   am
    18    25    26    1
    19    25    27    1
    20     4     5    1
    21     5     6    1
    22     6    28    1
    23    28    29    1
    24    29    30    1
    25    30    31    1
    26    31    32    1
    27    32    33    1
    28    33    35    1
    29    35    36    1
    30    36    37   ar
    31    37    38   ar
    32    38    39   ar
    33    39    40    1
    34    39    41   ar
    35    41    42   ar
    36    33    34    1
    37    15    16   ar
    38    16    17   ar
    39    17    18    1
    40    17    13   ar
    41     6     1    1
    42    34    29    1
    43    42    36   ar
    44     7    11    1
    45    10    12    1
@<TRIPOS>MOLECULE
*****
 42 45 0 0 0
SMALL
GASTEIGER

@<TRIPOS>ATOM
      1 C           7.2560   -2.6285   31.5440 C.3     1  UNL1        0.0771
      2 C           7.1729   -4.0943   31.8514 C.3     1  UNL1        0.0370
      3 C           6.8498   -5.0721   30.7609 C.3     1  UNL1        0.0742
      4 N           6.6097   -4.5842   29.3629 N.3     1  UNL1       -0.2649
      5 C           6.6927   -3.1185   29.0555 C.3     1  UNL1        0.0755
      6 C           7.0158   -2.1406   30.1460 C.3     1  UNL1        0.0500
      7 N           6.7972   -0.0508   34.5265 N.am    1  UNL1       -0.2485
      8 C           6.4741   -1.0287   33.4360 C.2     1  UNL1        0.3058
      9 O           5.0459   -1.3849   33.1468 O.2     1  UNL1       -0.2524
     10 N           7.5791   -1.6505   32.6345 N.am    1  UNL1       -0.2901
     11 H           7.7345    0.1829   34.7162 H       1  UNL1        0.1583
     12 H           8.5165   -1.4168   32.8243 H       1  UNL1        0.1509
     13 C           4.2107    1.1397   37.1643 C.ar    1  UNL1        0.0803
     14 S           5.3969    0.3084   36.7749 S.2     1  UNL1       -0.0488
     15 C           5.6922    0.5710   35.3279 C.ar    1  UNL1        0.1664
     16 N           4.6883    1.5647   34.8230 N.ar    1  UNL1       -0.2282
     17 C           3.7727    1.9161   35.9580 C.ar    1  UNL1        0.0701
     18 C           2.6213    2.8756   35.8972 C.3     1  UNL1        0.0528
     19 C           2.1481    0.7553   38.6966 C.3     1  UNL1        0.0779
     20 C           3.5741    1.1863   38.5218 C.2     1  UNL1        0.1807
     21 O           4.3636    1.6640   39.7043 O.2     1  UNL1       -0.2908
     22 C           6.2865   -5.5622   28.2724 C.3     1  UNL1        0.1586
     23 C           7.1425   -5.6236   27.0422 C.2     1  UNL1        0.2421
     24 O           6.7879   -4.7999   25.8398 O.2     1  UNL1       -0.2734
     25 N           8.3532   -6.5088   27.0143 N.am    1  UNL1       -0.2749
     26 C           9.2092   -6.5702   25.7841 C.3     1  UNL1        0.1149
     27 C           8.7078   -7.3326   28.2167 C.3     1  UNL1        0.1149
     28 C           7.0988   -0.6747   29.8386 C.3     1  UNL1        0.0751
     29 N           5.9667    0.2354   30.2129 N.3     1  UNL1       -0.2726
     30 C           6.2528    1.6060   30.7511 C.3     1  UNL1        0.0721
     31 C           5.1207    2.5161   31.1254 C.3     1  UNL1        0.0174
     32 C           3.7025    2.0555   30.9616 C.3     1  UNL1        0.0031
     33 C           3.4165    0.6849   30.4234 C.3     1  UNL1        0.0204
     34 C           4.5486   -0.2252   30.0491 C.3     1  UNL1        0.0724
     35 C           1.9984    0.2243   30.2595 C.3     1  UNL1        0.0277
     36 C           1.2103    0.6379   29.0521 C.ar    1  UNL1       -0.0220
     37 C           1.9166    0.9476   27.7655 C.ar    1  UNL1       -0.0020
     38 C           1.1285    1.3612   26.5580 C.ar    1  UNL1        0.0293
     39 C          -0.3659    1.4651   26.6372 C.ar    1  UNL1        0.1401
     40 F          -1.1539    1.8787   25.4298 F       1  UNL1       -0.2042
     41 C          -1.0720    1.1555   27.9238 C.ar    1  UNL1        0.0293
     42 C          -0.2840    0.7419   29.1313 C.ar    1  UNL1       -0.0020
@<TRIPOS>BOND
     1    19    20    1
     2    20    21    2
     3    20    13    1
     4    13    14   ar
     5    14    15   ar
     6    15     7    1
     7     7     8   am
     8     8     9    2
     9     8    10   am
    10     1    10    1
    11     1     2    1
    12     2     3    1
    13     3     4    1
    14     4    22    1
    15    22    23    1
    16    23    24    2
    17    23    25   am
    18    25    26    1
    19    25    27    1
    20     4     5    1
    21     5     6    1
    22     6    28    1
    23    28    29    1
    24    29    30    1
    25    30    31    1
    26    31    32    1
    27    32    33    1
    28    33    35    1
    29    35    36    1
    30    36    37   ar
    31    37    38   ar
    32    38    39   ar
    33    39    40    1
    34    39    41   ar
    35    41    42   ar
    36    33    34    1
    37    15    16   ar
    38    16    17   ar
    39    17    18    1
    40    17    13   ar
    41     6     1    1
    42    34    29    1
    43    42    36   ar
    44     7    11    1
    45    10    12    1
