@<TRIPOS>MOLECULE
*****
 37 40 0 0 0
SMALL
GASTEIGER

@<TRIPOS>ATOM
      1 C          -9.8302  -19.5315   23.1721 C.2     1  UNL1        0.2661
      2 O         -10.6573  -20.7810   23.2381 O.2     1  UNL1       -0.2710
      3 N         -10.1816  -18.3531   24.0312 N.am    1  UNL1       -0.2714
      4 C         -11.3603  -18.4243   24.9562 C.3     1  UNL1        0.1153
      5 C          -3.7228  -19.3055   20.0259 C.ar    1  UNL1        0.0643
      6 C          -3.5087  -19.4357   21.5048 C.ar    1  UNL1        0.0189
      7 C          -4.6874  -19.5069   22.4298 C.ar    1  UNL1        0.0379
      8 C          -6.0801  -19.4480   21.8760 C.ar    1  UNL1        0.1351
      9 C          -6.2942  -19.3178   20.3971 C.ar    1  UNL1        0.0132
     10 C          -5.1155  -19.2466   19.4720 C.ar    1  UNL1        0.0146
     11 C          -7.6869  -19.2589   19.8431 C.3     1  UNL1        0.0337
     12 C          -8.8656  -19.3301   20.7681 C.3     1  UNL1        0.0579
     13 C          -8.6515  -19.4603   22.2471 C.3     1  UNL1        0.2415
     14 O          -7.2588  -19.5192   22.8010 O.3     1  UNL1       -0.4703
     15 N          -2.5441  -19.2343   19.1009 N.pl3   1  UNL1       -0.2188
     16 H          -2.4764  -19.8566   18.3410 H       1  UNL1        0.1734
     17 S          -1.4686  -18.2149   19.3336 S.O2    1  UNL1        0.0539
     18 O          -2.2691  -17.1974   18.5761 O.2     1  UNL1       -0.1545
     19 O          -0.6681  -19.2324   20.0911 O.2     1  UNL1       -0.1545
     20 C          -0.3931  -17.1955   19.5663 C.3     1  UNL1        0.1724
     21 C          -1.7418  -16.2289   21.5655 C.3     1  UNL1        0.0019
     22 C          -0.5270  -16.2062   20.6858 C.3     1  UNL1        0.0273
     23 C          -9.3545  -17.1036   23.9652 C.3     1  UNL1        0.1139
     24 C          -8.5471  -16.6749   25.1546 C.ar    1  UNL1       -0.0029
     25 C          -8.9985  -17.0386   26.5380 C.ar    1  UNL1       -0.0026
     26 C          -8.1912  -16.6099   27.7273 C.ar    1  UNL1       -0.0003
     27 C          -6.9325  -15.8174   27.5331 C.ar    1  UNL1       -0.0000
     28 C          -6.4812  -15.4536   26.1497 C.ar    1  UNL1       -0.0003
     29 C          -7.2885  -15.8823   24.9604 C.ar    1  UNL1       -0.0026
     30 C          -9.3346  -16.2827   22.7099 C.3     1  UNL1        0.0968
     31 N         -10.5603  -16.1986   21.8493 N.3     1  UNL1       -0.2689
     32 C         -11.9649  -16.4952   22.2840 C.3     1  UNL1        0.0748
     33 C         -12.8692  -16.2831   21.1062 C.3     1  UNL1        0.0480
     34 C         -12.0234  -15.8553   19.9435 C.3     1  UNL1        0.1278
     35 O         -12.5179  -15.5359   18.5638 O.3     1  UNL1       -0.3830
     36 C         -10.5964  -15.8032   20.4028 C.3     1  UNL1        0.1017
     37 H         -11.7681  -15.2862   18.0014 H       1  UNL1        0.2104
@<TRIPOS>BOND
     1    21    22    1
     2    22    20    1
     3    20    17    1
     4    17    18    2
     5    17    19    2
     6    17    15    1
     7    15     5    1
     8     5     6   ar
     9     6     7   ar
    10     7     8   ar
    11     8     9   ar
    12     9    10   ar
    13     9    11    1
    14    11    12    1
    15    12    13    1
    16    13     1    1
    17     1     2    2
    18     1     3   am
    19     3     4    1
    20     3    23    1
    21    23    30    1
    22    30    31    1
    23    31    32    1
    24    32    33    1
    25    33    34    1
    26    34    35    1
    27    34    36    1
    28    23    24    1
    29    24    25   ar
    30    25    26   ar
    31    26    27   ar
    32    27    28   ar
    33    28    29   ar
    34    13    14    1
    35    10     5   ar
    36    36    31    1
    37    29    24   ar
    38    14     8    1
    39    15    16    1
    40    35    37    1
@<TRIPOS>MOLECULE
*****
 37 40 0 0 0
SMALL
GASTEIGER

@<TRIPOS>ATOM
      1 C         -10.5858  -19.6832   23.1497 C.2     1  UNL1        0.2661
      2 O         -11.0985  -21.0433   23.5203 O.2     1  UNL1       -0.2710
      3 N         -11.2739  -18.4553   23.6683 N.am    1  UNL1       -0.2714
      4 C         -12.4747  -18.5875   24.5574 C.3     1  UNL1        0.1153
      5 C          -4.4045  -19.2985   20.1676 C.ar    1  UNL1        0.0643
      6 C          -4.2272  -19.5749   21.6312 C.ar    1  UNL1        0.0189
      7 C          -5.4280  -19.7071   22.5203 C.ar    1  UNL1        0.0379
      8 C          -6.8061  -19.5629   21.9459 C.ar    1  UNL1        0.1351
      9 C          -6.9834  -19.2866   20.4823 C.ar    1  UNL1        0.0132
     10 C          -5.7826  -19.1544   19.5932 C.ar    1  UNL1        0.0146
     11 C          -8.3615  -19.1424   19.9078 C.3     1  UNL1        0.0337
     12 C          -9.5623  -19.2746   20.7969 C.3     1  UNL1        0.0579
     13 C          -9.3850  -19.5510   22.2606 C.3     1  UNL1        0.2415
     14 O          -8.0069  -19.6951   22.8350 O.3     1  UNL1       -0.4703
     15 N          -3.2037  -19.1663   19.2785 N.pl3   1  UNL1       -0.2188
     16 H          -3.0967  -19.7641   18.5036 H       1  UNL1        0.1734
     17 S          -2.1659  -18.1232   19.5699 S.O2    1  UNL1        0.0539
     18 O          -1.2916  -19.1683   20.1971 O.2     1  UNL1       -0.1545
     19 O          -3.0401  -17.0782   18.9427 O.2     1  UNL1       -0.1545
     20 C          -1.1280  -17.0802   19.8613 C.3     1  UNL1        0.1724
     21 C          -2.3764  -16.4115   22.0395 C.3     1  UNL1        0.0019
     22 C          -1.1665  -16.3252   21.1569 C.3     1  UNL1        0.0273
     23 C         -10.7612  -17.0953   23.2977 C.3     1  UNL1        0.1139
     24 C         -10.9774  -16.5643   21.9115 C.ar    1  UNL1       -0.0029
     25 C         -12.2066  -16.9507   21.1435 C.ar    1  UNL1       -0.0026
     26 C         -12.4227  -16.4197   19.7574 C.ar    1  UNL1       -0.0003
     27 C         -11.4096  -15.5024   19.1393 C.ar    1  UNL1       -0.0000
     28 C         -10.1804  -15.1160   19.9072 C.ar    1  UNL1       -0.0003
     29 C          -9.9643  -15.6470   21.2933 C.ar    1  UNL1       -0.0026
     30 C         -10.0323  -16.2661   24.3132 C.3     1  UNL1        0.0968
     31 N          -8.5469  -16.0860   24.2077 N.3     1  UNL1       -0.2689
     32 C          -7.6686  -16.6246   23.1175 C.3     1  UNL1        0.0748
     33 C          -6.2579  -16.2071   23.4100 C.3     1  UNL1        0.0480
     34 C          -6.2643  -15.4105   24.6811 C.3     1  UNL1        0.1278
     35 O          -5.0663  -14.7965   25.3428 O.3     1  UNL1       -0.3830
     36 C          -7.6790  -15.3356   25.1741 C.3     1  UNL1        0.1017
     37 H          -5.3436  -14.3358   26.1502 H       1  UNL1        0.2104
@<TRIPOS>BOND
     1    21    22    1
     2    22    20    1
     3    20    17    1
     4    17    18    2
     5    17    19    2
     6    17    15    1
     7    15     5    1
     8     5     6   ar
     9     6     7   ar
    10     7     8   ar
    11     8     9   ar
    12     9    10   ar
    13     9    11    1
    14    11    12    1
    15    12    13    1
    16    13     1    1
    17     1     2    2
    18     1     3   am
    19     3     4    1
    20     3    23    1
    21    23    30    1
    22    30    31    1
    23    31    32    1
    24    32    33    1
    25    33    34    1
    26    34    35    1
    27    34    36    1
    28    23    24    1
    29    24    25   ar
    30    25    26   ar
    31    26    27   ar
    32    27    28   ar
    33    28    29   ar
    34    13    14    1
    35    10     5   ar
    36    36    31    1
    37    29    24   ar
    38    14     8    1
    39    15    16    1
    40    35    37    1
@<TRIPOS>MOLECULE
*****
 37 40 0 0 0
SMALL
GASTEIGER

@<TRIPOS>ATOM
      1 C           4.6151   -3.6061   20.7503 C.2     1  UNL1        0.2661
      2 O           4.1231   -5.0072   20.5386 O.2     1  UNL1       -0.2710
      3 N           5.1552   -2.8181   19.5938 N.am    1  UNL1       -0.2714
      4 C           5.2034   -3.4312   18.2257 C.3     1  UNL1        0.1153
      5 C           3.4518   -0.0478   26.5153 C.ar    1  UNL1        0.0643
      6 C           2.5295    0.4447   25.4398 C.ar    1  UNL1        0.0189
      7 C           2.5777   -0.1685   24.0717 C.ar    1  UNL1        0.0379
      8 C           3.5482   -1.2741   23.7791 C.ar    1  UNL1        0.1351
      9 C           4.4705   -1.7665   24.8546 C.ar    1  UNL1        0.0132
     10 C           4.4223   -1.1534   26.2227 C.ar    1  UNL1        0.0146
     11 C           5.4411   -2.8722   24.5620 C.3     1  UNL1        0.0337
     12 C           5.4893   -3.4854   23.1939 C.3     1  UNL1        0.0579
     13 C           4.5669   -2.9929   22.1184 C.3     1  UNL1        0.2415
     14 O           3.5964   -1.8873   22.4110 O.3     1  UNL1       -0.4703
     15 N           3.4036    0.5654   27.8834 N.pl3   1  UNL1       -0.2188
     16 H           4.2130    0.9719   28.2694 H       1  UNL1        0.1734
     17 S           2.1224    0.5592   28.6634 S.O2    1  UNL1        0.0539
     18 O           2.0531    2.0541   28.5613 O.2     1  UNL1       -0.1545
     19 O           2.1918   -0.9357   28.7654 O.2     1  UNL1       -0.1545
     20 C           0.8411    0.5530   29.4434 C.3     1  UNL1        0.1724
     21 C          -1.6522   -0.1102   29.1376 C.3     1  UNL1        0.0019
     22 C          -0.4697    0.7198   28.7337 C.3     1  UNL1        0.0273
     23 C           5.6472   -1.4170   19.8055 C.3     1  UNL1        0.1139
     24 C           6.8714   -1.1693   20.6363 C.ar    1  UNL1       -0.0029
     25 C           6.8367   -0.1527   21.7386 C.ar    1  UNL1       -0.0026
     26 C           8.0608    0.0949   22.5693 C.ar    1  UNL1       -0.0003
     27 C           9.3197   -0.6742   22.2977 C.ar    1  UNL1       -0.0000
     28 C           9.3544   -1.6909   21.1954 C.ar    1  UNL1       -0.0003
     29 C           8.1302   -1.9384   20.3647 C.ar    1  UNL1       -0.0026
     30 C           4.9150   -0.2634   19.1864 C.3     1  UNL1        0.0968
     31 N           3.6026    0.1853   19.7576 N.3     1  UNL1       -0.2689
     32 C           3.3749    1.4177   20.5819 C.3     1  UNL1        0.0748
     33 C           1.9190    1.4745   20.9384 C.3     1  UNL1        0.0480
     34 C           1.2468    0.2771   20.3345 C.3     1  UNL1        0.1278
     35 O          -0.2100   -0.0636   20.4416 O.3     1  UNL1       -0.3830
     36 C           2.2874   -0.5196   19.6047 C.3     1  UNL1        0.1017
     37 H          -0.3852   -0.8884   19.9621 H       1  UNL1        0.2104
@<TRIPOS>BOND
     1    21    22    1
     2    22    20    1
     3    20    17    1
     4    17    18    2
     5    17    19    2
     6    17    15    1
     7    15     5    1
     8     5     6   ar
     9     6     7   ar
    10     7     8   ar
    11     8     9   ar
    12     9    10   ar
    13     9    11    1
    14    11    12    1
    15    12    13    1
    16    13     1    1
    17     1     2    2
    18     1     3   am
    19     3     4    1
    20     3    23    1
    21    23    30    1
    22    30    31    1
    23    31    32    1
    24    32    33    1
    25    33    34    1
    26    34    35    1
    27    34    36    1
    28    23    24    1
    29    24    25   ar
    30    25    26   ar
    31    26    27   ar
    32    27    28   ar
    33    28    29   ar
    34    13    14    1
    35    10     5   ar
    36    36    31    1
    37    29    24   ar
    38    14     8    1
    39    15    16    1
    40    35    37    1
@<TRIPOS>MOLECULE
*****
 37 40 0 0 0
SMALL
GASTEIGER

@<TRIPOS>ATOM
      1 C           5.0602   -3.2583   21.3618 C.2     1  UNL1        0.2661
      2 O           4.6276   -4.6930   21.2954 O.2     1  UNL1       -0.2710
      3 N           6.4977   -2.8970   21.1314 N.am    1  UNL1       -0.2714
      4 C           7.5026   -3.9704   20.8345 C.3     1  UNL1        0.1153
      5 C           0.1278    1.5282   21.4661 C.ar    1  UNL1        0.0643
      6 C           0.2195    0.9476   20.0861 C.ar    1  UNL1        0.0189
      7 C           1.2243   -0.1258   19.7893 C.ar    1  UNL1        0.0379
      8 C           2.1375   -0.6187   20.8724 C.ar    1  UNL1        0.1351
      9 C           2.0458   -0.0381   22.2524 C.ar    1  UNL1        0.0132
     10 C           1.0410    1.0354   22.5493 C.ar    1  UNL1        0.0146
     11 C           2.9590   -0.5309   23.3357 C.3     1  UNL1        0.0337
     12 C           3.9638   -1.6043   23.0388 C.3     1  UNL1        0.0579
     13 C           4.0554   -2.1849   21.6587 C.3     1  UNL1        0.2415
     14 O           3.1423   -1.6921   20.5756 O.3     1  UNL1       -0.4703
     15 N          -0.8770    2.6016   21.7630 N.pl3   1  UNL1       -0.2188
     16 H          -1.2725    2.6706   22.6619 H       1  UNL1        0.1734
     17 S          -1.2791    3.5699   20.6903 S.O2    1  UNL1        0.0539
     18 O           0.0310    4.2839   20.8437 O.2     1  UNL1       -0.1545
     19 O          -2.5893    2.8558   20.5369 O.2     1  UNL1       -0.1545
     20 C          -1.6812    4.5382   19.6176 C.3     1  UNL1        0.1724
     21 C          -1.8984    4.0152   17.0819 C.3     1  UNL1        0.0019
     22 C          -2.5031    4.0694   18.4536 C.3     1  UNL1        0.0273
     23 C           6.9304   -1.4623   21.1978 C.3     1  UNL1        0.1139
     24 C           7.1524   -0.8067   22.5286 C.ar    1  UNL1       -0.0029
     25 C           6.8315    0.6471   22.7113 C.ar    1  UNL1       -0.0026
     26 C           7.0535    1.3026   24.0421 C.ar    1  UNL1       -0.0003
     27 C           7.5965    0.5043   25.1901 C.ar    1  UNL1       -0.0000
     28 C           7.9174   -0.9495   25.0074 C.ar    1  UNL1       -0.0003
     29 C           7.6954   -1.6050   23.6766 C.ar    1  UNL1       -0.0026
     30 C           7.1410   -0.6832   19.9335 C.3     1  UNL1        0.0968
     31 N           5.9967   -0.4624   18.9891 N.3     1  UNL1       -0.2689
     32 C           5.1116    0.7478   18.9439 C.3     1  UNL1        0.0748
     33 C           4.1045    0.5450   17.8510 C.3     1  UNL1        0.0480
     34 C           4.3671   -0.7906   17.2206 C.3     1  UNL1        0.1278
     35 O           3.5957   -1.3971   16.0861 O.3     1  UNL1       -0.3830
     36 C           5.5366   -1.4132   17.9240 C.3     1  UNL1        0.1017
     37 H           3.9691   -2.2656   15.8691 H       1  UNL1        0.2104
@<TRIPOS>BOND
     1    21    22    1
     2    22    20    1
     3    20    17    1
     4    17    18    2
     5    17    19    2
     6    17    15    1
     7    15     5    1
     8     5     6   ar
     9     6     7   ar
    10     7     8   ar
    11     8     9   ar
    12     9    10   ar
    13     9    11    1
    14    11    12    1
    15    12    13    1
    16    13     1    1
    17     1     2    2
    18     1     3   am
    19     3     4    1
    20     3    23    1
    21    23    30    1
    22    30    31    1
    23    31    32    1
    24    32    33    1
    25    33    34    1
    26    34    35    1
    27    34    36    1
    28    23    24    1
    29    24    25   ar
    30    25    26   ar
    31    26    27   ar
    32    27    28   ar
    33    28    29   ar
    34    13    14    1
    35    10     5   ar
    36    36    31    1
    37    29    24   ar
    38    14     8    1
    39    15    16    1
    40    35    37    1
@<TRIPOS>MOLECULE
*****
 37 40 0 0 0
SMALL
GASTEIGER

@<TRIPOS>ATOM
      1 C          -2.4968    3.2557   21.0386 C.2     1  UNL1        0.2661
      2 O          -3.7595    3.0336   20.2601 O.2     1  UNL1       -0.2710
      3 N          -2.5547    3.8906   22.3965 N.am    1  UNL1       -0.2714
      4 C          -3.8753    4.3034   22.9757 C.3     1  UNL1        0.1153
      5 C           3.3594    0.2574   19.0473 C.ar    1  UNL1        0.0643
      6 C           2.6123   -0.6770   19.9519 C.ar    1  UNL1        0.0189
      7 C           1.2916   -0.2643   20.5312 C.ar    1  UNL1        0.0379
      8 C           0.7181    1.0830   20.2057 C.ar    1  UNL1        0.1351
      9 C           1.4652    2.0174   19.3010 C.ar    1  UNL1        0.0132
     10 C           2.7859    1.6047   18.7218 C.ar    1  UNL1        0.0146
     11 C           0.8917    3.3648   18.9755 C.3     1  UNL1        0.0337
     12 C          -0.4290    3.7775   19.5547 C.3     1  UNL1        0.0579
     13 C          -1.1761    2.8430   20.4594 C.3     1  UNL1        0.2415
     14 O          -0.6026    1.4957   20.7849 O.3     1  UNL1       -0.4703
     15 N           4.6801   -0.1553   18.4681 N.pl3   1  UNL1       -0.2188
     16 H           5.3322    0.5289   18.1926 H       1  UNL1        0.1734
     17 S           5.0071   -1.6105   18.3085 S.O2    1  UNL1        0.0539
     18 O           4.2600   -1.6358   17.0081 O.2     1  UNL1       -0.1545
     19 O           5.7543   -1.5851   19.6089 O.2     1  UNL1       -0.1545
     20 C           5.3342   -3.0657   18.1489 C.3     1  UNL1        0.1724
     21 C           3.2986   -4.3557   19.1197 C.3     1  UNL1        0.0019
     22 C           4.7713   -4.0707   19.1097 C.3     1  UNL1        0.0273
     23 C          -1.2919    4.1127   23.1750 C.3     1  UNL1        0.1139
     24 C          -0.9080    3.1609   24.2689 C.ar    1  UNL1       -0.0029
     25 C          -1.4842    3.3267   25.6439 C.ar    1  UNL1       -0.0026
     26 C          -1.1003    2.3749   26.7377 C.ar    1  UNL1       -0.0003
     27 C          -0.1402    1.2572   26.4567 C.ar    1  UNL1       -0.0000
     28 C           0.4360    1.0914   25.0817 C.ar    1  UNL1       -0.0003
     29 C           0.0521    2.0432   23.9879 C.ar    1  UNL1       -0.0026
     30 C          -0.4131    5.2867   22.8596 C.3     1  UNL1        0.0968
     31 N           1.0597    5.2166   23.1359 N.3     1  UNL1       -0.2689
     32 C           1.7596    5.7825   24.3358 C.3     1  UNL1        0.0748
     33 C           3.2235    5.4840   24.2021 C.3     1  UNL1        0.0480
     34 C           3.4283    4.7336   22.9195 C.3     1  UNL1        0.1278
     35 O           4.7401    4.2359   22.3891 O.3     1  UNL1       -0.3830
     36 C           2.0909    4.5684   22.2605 C.3     1  UNL1        0.1017
     37 H           4.5962    3.7836   21.5432 H       1  UNL1        0.2104
@<TRIPOS>BOND
     1    21    22    1
     2    22    20    1
     3    20    17    1
     4    17    18    2
     5    17    19    2
     6    17    15    1
     7    15     5    1
     8     5     6   ar
     9     6     7   ar
    10     7     8   ar
    11     8     9   ar
    12     9    10   ar
    13     9    11    1
    14    11    12    1
    15    12    13    1
    16    13     1    1
    17     1     2    2
    18     1     3   am
    19     3     4    1
    20     3    23    1
    21    23    30    1
    22    30    31    1
    23    31    32    1
    24    32    33    1
    25    33    34    1
    26    34    35    1
    27    34    36    1
    28    23    24    1
    29    24    25   ar
    30    25    26   ar
    31    26    27   ar
    32    27    28   ar
    33    28    29   ar
    34    13    14    1
    35    10     5   ar
    36    36    31    1
    37    29    24   ar
    38    14     8    1
    39    15    16    1
    40    35    37    1
@<TRIPOS>MOLECULE
*****
 37 40 0 0 0
SMALL
GASTEIGER

@<TRIPOS>ATOM
      1 C           6.3399    0.0769   20.1905 C.2     1  UNL1        0.2661
      2 O           7.6291    0.7307   19.7900 O.2     1  UNL1       -0.2710
      3 N           5.7073   -0.9457   19.2937 N.am    1  UNL1       -0.2714
      4 C           6.3639   -1.3144   17.9964 C.3     1  UNL1        0.1153
      5 C           4.0615    0.8070   26.6346 C.ar    1  UNL1        0.0643
      6 C           5.0661   -0.3060   26.5921 C.ar    1  UNL1        0.0189
      7 C           5.7227   -0.6746   25.2948 C.ar    1  UNL1        0.0379
      8 C           5.3747    0.0698   24.0400 C.ar    1  UNL1        0.1351
      9 C           4.3701    1.1828   24.0824 C.ar    1  UNL1        0.0132
     10 C           3.7134    1.5514   25.3797 C.ar    1  UNL1        0.0146
     11 C           4.0220    1.9272   22.8275 C.3     1  UNL1        0.0337
     12 C           4.6786    1.5586   21.5302 C.3     1  UNL1        0.0579
     13 C           5.6833    0.4455   21.4878 C.3     1  UNL1        0.2415
     14 O           6.0313   -0.2989   22.7427 O.3     1  UNL1       -0.4703
     15 N           3.4049    1.1757   27.9319 N.pl3   1  UNL1       -0.2188
     16 H           3.9556    1.4250   28.7089 H       1  UNL1        0.1734
     17 S           1.9092    1.1643   28.0453 S.O2    1  UNL1        0.0539
     18 O           1.9292   -0.3311   28.1596 O.2     1  UNL1       -0.1545
     19 O           1.8892    2.6598   27.9310 O.2     1  UNL1       -0.1545
     20 C           0.4135    1.1530   28.1587 C.3     1  UNL1        0.1724
     21 C          -1.6487   -0.0442   29.1903 C.3     1  UNL1        0.0019
     22 C          -0.3004   -0.1110   28.5362 C.3     1  UNL1        0.0273
     23 C           4.4181   -1.5996   19.6942 C.3     1  UNL1        0.1139
     24 C           3.1297   -0.8371   19.6007 C.ar    1  UNL1       -0.0029
     25 C           2.1070   -0.9560   20.6916 C.ar    1  UNL1       -0.0026
     26 C           0.8186   -0.1936   20.5981 C.ar    1  UNL1       -0.0003
     27 C           0.5529    0.6877   19.4137 C.ar    1  UNL1       -0.0000
     28 C           1.5756    0.8066   18.3229 C.ar    1  UNL1       -0.0003
     29 C           2.8640    0.0442   18.4164 C.ar    1  UNL1       -0.0026
     30 C           4.4173   -3.0159   20.1882 C.3     1  UNL1        0.0968
     31 N           5.2891   -3.4075   21.3443 N.3     1  UNL1       -0.2689
     32 C           6.7480   -3.7491   21.2725 C.3     1  UNL1        0.0748
     33 C           7.2156   -4.0789   22.6590 C.3     1  UNL1        0.0480
     34 C           6.0458   -3.9412   23.5879 C.3     1  UNL1        0.1278
     35 O           6.0635   -4.1771   25.0691 O.3     1  UNL1       -0.3830
     36 C           4.8551   -3.5262   22.7753 C.3     1  UNL1        0.1017
     37 H           5.1779   -4.0197   25.4322 H       1  UNL1        0.2104
@<TRIPOS>BOND
     1    21    22    1
     2    22    20    1
     3    20    17    1
     4    17    18    2
     5    17    19    2
     6    17    15    1
     7    15     5    1
     8     5     6   ar
     9     6     7   ar
    10     7     8   ar
    11     8     9   ar
    12     9    10   ar
    13     9    11    1
    14    11    12    1
    15    12    13    1
    16    13     1    1
    17     1     2    2
    18     1     3   am
    19     3     4    1
    20     3    23    1
    21    23    30    1
    22    30    31    1
    23    31    32    1
    24    32    33    1
    25    33    34    1
    26    34    35    1
    27    34    36    1
    28    23    24    1
    29    24    25   ar
    30    25    26   ar
    31    26    27   ar
    32    27    28   ar
    33    28    29   ar
    34    13    14    1
    35    10     5   ar
    36    36    31    1
    37    29    24   ar
    38    14     8    1
    39    15    16    1
    40    35    37    1
@<TRIPOS>MOLECULE
*****
 37 40 0 0 0
SMALL
GASTEIGER

@<TRIPOS>ATOM
      1 C           4.3217   -3.1928   19.5798 C.2     1  UNL1        0.2661
      2 O           3.5271   -4.3144   18.9793 O.2     1  UNL1       -0.2710
      3 N           4.5659   -1.9404   18.7911 N.am    1  UNL1       -0.2714
      4 C           4.0155   -1.8097   17.4019 C.3     1  UNL1        0.1153
      5 C           7.8031   -4.4623   25.3693 C.ar    1  UNL1        0.0643
      6 C           8.5327   -5.0783   24.2125 C.ar    1  UNL1        0.0189
      7 C           7.9823   -4.9477   22.8233 C.ar    1  UNL1        0.0379
      8 C           6.7024   -4.2009   22.5908 C.ar    1  UNL1        0.1351
      9 C           5.9728   -3.5849   23.7476 C.ar    1  UNL1        0.0132
     10 C           6.5232   -3.7156   25.1368 C.ar    1  UNL1        0.0146
     11 C           4.6928   -2.8381   23.5151 C.3     1  UNL1        0.0337
     12 C           4.1424   -2.7074   22.1259 C.3     1  UNL1        0.0579
     13 C           4.8720   -3.3235   20.9691 C.3     1  UNL1        0.2415
     14 O           6.1520   -4.0702   21.2016 O.3     1  UNL1       -0.4703
     15 N           8.3535   -4.5930   26.7585 N.pl3   1  UNL1       -0.2188
     16 H           9.3183   -4.4797   26.9185 H       1  UNL1        0.1734
     17 S           7.4339   -4.8963   27.9041 S.O2    1  UNL1        0.0539
     18 O           7.3444   -6.3243   27.4541 O.2     1  UNL1       -0.1545
     19 O           7.5235   -3.4682   28.3541 O.2     1  UNL1       -0.1545
     20 C           6.5143   -5.1996   29.0497 C.3     1  UNL1        0.1724
     21 C           7.5488   -5.9319   31.3177 C.3     1  UNL1        0.0019
     22 C           6.9314   -4.8730   30.4530 C.3     1  UNL1        0.0273
     23 C           5.3604   -0.8188   19.3917 C.3     1  UNL1        0.1139
     24 C           6.7523   -1.0695   19.8916 C.ar    1  UNL1       -0.0029
     25 C           7.1496   -0.6138   21.2643 C.ar    1  UNL1       -0.0026
     26 C           8.5414   -0.8644   21.7642 C.ar    1  UNL1       -0.0003
     27 C           9.5360   -1.5707   20.8913 C.ar    1  UNL1       -0.0000
     28 C           9.1387   -2.0264   19.5185 C.ar    1  UNL1       -0.0003
     29 C           7.7469   -1.7758   19.0187 C.ar    1  UNL1       -0.0026
     30 C           4.7631    0.5534   19.4923 C.3     1  UNL1        0.0968
     31 N           3.2743    0.7291   19.4394 N.3     1  UNL1       -0.2689
     32 C           2.5248    1.6216   18.4950 C.3     1  UNL1        0.0748
     33 C           1.0610    1.4872   18.7935 C.3     1  UNL1        0.0480
     34 C           0.9057    0.5116   19.9224 C.3     1  UNL1        0.1278
     35 O          -0.3899    0.0804   20.5431 O.3     1  UNL1       -0.3830
     36 C           2.2737    0.0431   20.3216 C.3     1  UNL1        0.1017
     37 H          -0.2122   -0.5567   21.2527 H       1  UNL1        0.2104
@<TRIPOS>BOND
     1    21    22    1
     2    22    20    1
     3    20    17    1
     4    17    18    2
     5    17    19    2
     6    17    15    1
     7    15     5    1
     8     5     6   ar
     9     6     7   ar
    10     7     8   ar
    11     8     9   ar
    12     9    10   ar
    13     9    11    1
    14    11    12    1
    15    12    13    1
    16    13     1    1
    17     1     2    2
    18     1     3   am
    19     3     4    1
    20     3    23    1
    21    23    30    1
    22    30    31    1
    23    31    32    1
    24    32    33    1
    25    33    34    1
    26    34    35    1
    27    34    36    1
    28    23    24    1
    29    24    25   ar
    30    25    26   ar
    31    26    27   ar
    32    27    28   ar
    33    28    29   ar
    34    13    14    1
    35    10     5   ar
    36    36    31    1
    37    29    24   ar
    38    14     8    1
    39    15    16    1
    40    35    37    1
@<TRIPOS>MOLECULE
*****
 37 40 0 0 0
SMALL
GASTEIGER

@<TRIPOS>ATOM
      1 C           3.8515   -2.4630   19.6423 C.2     1  UNL1        0.2661
      2 O           3.3114   -3.8332   19.3584 O.2     1  UNL1       -0.2710
      3 N           5.3052   -2.2817   19.9649 N.am    1  UNL1       -0.2714
      4 C           6.2187   -3.4708   20.0036 C.3     1  UNL1        0.1153
      5 C          -0.4278    2.8004   20.7532 C.ar    1  UNL1        0.0643
      6 C          -0.1394    2.1184   22.0576 C.ar    1  UNL1        0.0189
      7 C           0.7742    0.9293   22.0963 C.ar    1  UNL1        0.0379
      8 C           1.3993    0.4222   20.8306 C.ar    1  UNL1        0.1351
      9 C           1.1108    1.1043   19.5262 C.ar    1  UNL1        0.0132
     10 C           0.1973    2.2934   19.4875 C.ar    1  UNL1        0.0146
     11 C           1.7359    0.5972   18.2604 C.3     1  UNL1        0.0337
     12 C           2.6495   -0.5919   18.2991 C.3     1  UNL1        0.0579
     13 C           2.9379   -1.2739   19.6036 C.3     1  UNL1        0.2415
     14 O           2.3129   -0.7668   20.8693 O.3     1  UNL1       -0.4703
     15 N          -1.3414    3.9895   20.7145 N.pl3   1  UNL1       -0.2188
     16 H          -1.1224    4.7956   21.2355 H       1  UNL1        0.1734
     17 S          -2.5885    3.9503   19.8821 S.O2    1  UNL1        0.0539
     18 O          -3.1130    2.8229   20.7209 O.2     1  UNL1       -0.1545
     19 O          -2.0640    5.0778   19.0433 O.2     1  UNL1       -0.1545
     20 C          -3.8358    3.9111   19.0496 C.3     1  UNL1        0.1724
     21 C          -6.3245    3.2016   18.8199 C.3     1  UNL1        0.0019
     22 C          -5.1484    3.5541   19.6816 C.3     1  UNL1        0.0273
     23 C           5.8453   -0.9115   20.2488 C.3     1  UNL1        0.1139
     24 C           5.9906    0.0830   19.1352 C.ar    1  UNL1       -0.0029
     25 C           6.6039   -0.3350   17.8317 C.ar    1  UNL1       -0.0026
     26 C           6.7492    0.6595   16.7182 C.ar    1  UNL1       -0.0003
     27 C           6.2812    2.0719   16.9082 C.ar    1  UNL1       -0.0000
     28 C           5.6679    2.4898   18.2117 C.ar    1  UNL1       -0.0003
     29 C           5.5226    1.4954   19.3252 C.ar    1  UNL1       -0.0026
     30 C           6.2400   -0.5356   21.6462 C.3     1  UNL1        0.0968
     31 N           5.1901   -0.3820   22.7065 N.3     1  UNL1       -0.2689
     32 C           4.5355   -1.4968   23.4672 C.3     1  UNL1        0.0748
     33 C           3.5513   -0.8903   24.4230 C.3     1  UNL1        0.0480
     34 C           3.5976    0.5993   24.2531 C.3     1  UNL1        0.1278
     35 O           2.7755    1.5992   25.0110 O.3     1  UNL1       -0.3830
     36 C           4.6105    0.9135   23.1922 C.3     1  UNL1        0.1017
     37 H           2.9974    2.4944   24.7106 H       1  UNL1        0.2104
@<TRIPOS>BOND
     1    21    22    1
     2    22    20    1
     3    20    17    1
     4    17    18    2
     5    17    19    2
     6    17    15    1
     7    15     5    1
     8     5     6   ar
     9     6     7   ar
    10     7     8   ar
    11     8     9   ar
    12     9    10   ar
    13     9    11    1
    14    11    12    1
    15    12    13    1
    16    13     1    1
    17     1     2    2
    18     1     3   am
    19     3     4    1
    20     3    23    1
    21    23    30    1
    22    30    31    1
    23    31    32    1
    24    32    33    1
    25    33    34    1
    26    34    35    1
    27    34    36    1
    28    23    24    1
    29    24    25   ar
    30    25    26   ar
    31    26    27   ar
    32    27    28   ar
    33    28    29   ar
    34    13    14    1
    35    10     5   ar
    36    36    31    1
    37    29    24   ar
    38    14     8    1
    39    15    16    1
    40    35    37    1
@<TRIPOS>MOLECULE
*****
 37 40 0 0 0
SMALL
GASTEIGER

@<TRIPOS>ATOM
      1 C         -11.6448   -5.5298   18.8174 C.2     1  UNL1        0.2661
      2 O         -10.2368   -5.4619   19.3301 O.2     1  UNL1       -0.2710
      3 N         -12.0630   -6.6575   17.9209 N.am    1  UNL1       -0.2714
      4 C         -11.0732   -7.7172   17.5372 C.3     1  UNL1        0.1153
      5 C         -15.5942    0.0343   19.6499 C.ar    1  UNL1        0.0643
      6 C         -14.5944    0.2998   18.5637 C.ar    1  UNL1        0.0189
      7 C         -13.6046   -0.7599   18.1799 C.ar    1  UNL1        0.0379
      8 C         -13.6145   -2.0851   18.8824 C.ar    1  UNL1        0.1351
      9 C         -14.6143   -2.3507   19.9686 C.ar    1  UNL1        0.0132
     10 C         -15.6041   -1.2910   20.3523 C.ar    1  UNL1        0.0146
     11 C         -14.6243   -3.6760   20.6711 C.3     1  UNL1        0.0337
     12 C         -13.6345   -4.7357   20.2874 C.3     1  UNL1        0.0579
     13 C         -12.6346   -4.4701   19.2011 C.3     1  UNL1        0.2415
     14 O         -12.6247   -3.1448   18.4987 O.3     1  UNL1       -0.4703
     15 N         -16.5840    1.0940   20.0336 N.pl3   1  UNL1       -0.2188
     16 H         -16.2764    2.0102   20.2209 H       1  UNL1        0.1734
     17 S         -18.0425    0.7577   20.1320 S.O2    1  UNL1        0.0539
     18 O         -17.9923    0.9739   21.6154 O.2     1  UNL1       -0.1545
     19 O         -18.0927    0.5414   18.6485 O.2     1  UNL1       -0.1545
     20 C         -19.5010    0.4214   20.2304 C.3     1  UNL1        0.1724
     21 C         -19.0630   -2.1274   20.4793 C.3     1  UNL1        0.0019
     22 C         -19.9566   -0.9976   20.0607 C.3     1  UNL1        0.0273
     23 C         -13.4710   -6.7254   17.4082 C.3     1  UNL1        0.1139
     24 C         -14.4564   -7.6607   18.0439 C.ar    1  UNL1       -0.0029
     25 C         -15.3680   -7.1666   19.1278 C.ar    1  UNL1       -0.0026
     26 C         -16.3533   -8.1019   19.7635 C.ar    1  UNL1       -0.0003
     27 C         -16.4271   -9.5315   19.3153 C.ar    1  UNL1       -0.0000
     28 C         -15.5156  -10.0257   18.2314 C.ar    1  UNL1       -0.0003
     29 C         -14.5303   -9.0903   17.5957 C.ar    1  UNL1       -0.0026
     30 C         -13.8937   -5.8579   16.2598 C.3     1  UNL1        0.0968
     31 N         -15.2095   -5.1391   16.3074 N.3     1  UNL1       -0.2689
     32 C         -16.5492   -5.7300   15.9822 C.3     1  UNL1        0.0748
     33 C         -17.5842   -4.6593   16.1624 C.3     1  UNL1        0.0480
     34 C         -16.8840   -3.4066   16.5990 C.3     1  UNL1        0.1278
     35 O         -17.5369   -2.0888   16.8941 O.3     1  UNL1       -0.3830
     36 C         -15.4163   -3.7031   16.6886 C.3     1  UNL1        0.1017
     37 H         -16.8608   -1.4444   17.1560 H       1  UNL1        0.2104
@<TRIPOS>BOND
     1    21    22    1
     2    22    20    1
     3    20    17    1
     4    17    18    2
     5    17    19    2
     6    17    15    1
     7    15     5    1
     8     5     6   ar
     9     6     7   ar
    10     7     8   ar
    11     8     9   ar
    12     9    10   ar
    13     9    11    1
    14    11    12    1
    15    12    13    1
    16    13     1    1
    17     1     2    2
    18     1     3   am
    19     3     4    1
    20     3    23    1
    21    23    30    1
    22    30    31    1
    23    31    32    1
    24    32    33    1
    25    33    34    1
    26    34    35    1
    27    34    36    1
    28    23    24    1
    29    24    25   ar
    30    25    26   ar
    31    26    27   ar
    32    27    28   ar
    33    28    29   ar
    34    13    14    1
    35    10     5   ar
    36    36    31    1
    37    29    24   ar
    38    14     8    1
    39    15    16    1
    40    35    37    1
