@<TRIPOS>MOLECULE
*****
 29 32 0 0 0
SMALL
GASTEIGER

@<TRIPOS>ATOM
      1 N         -10.3585  -17.2707   22.1976 N.3     1  UNL1       -0.2726
      2 C         -11.1471  -16.1863   21.5251 C.3     1  UNL1        0.0613
      3 C         -12.5733  -16.6411   21.4301 C.3     1  UNL1        0.0175
      4 C         -12.6661  -18.0067   22.0438 C.3     1  UNL1        0.0175
      5 C         -11.2973  -18.3958   22.5182 C.3     1  UNL1        0.0613
      6 C          -9.8385  -18.5169   22.8875 C.3     1  UNL1        0.0595
      7 C          -9.0234  -17.3170   22.5056 C.3     1  UNL1        0.1686
      8 C          -9.6776  -16.1517   21.8244 C.3     1  UNL1        0.0595
      9 C          -7.9055  -17.7477   21.4864 C.3     1  UNL1        0.0223
     10 C          -8.8891  -17.2361   22.4969 C.3     1  UNL1        0.0816
     11 C          -8.4031  -16.6900   23.8067 C.ar    1  UNL1        0.0114
     12 C          -9.0098  -17.1713   25.0914 C.ar    1  UNL1        0.0010
     13 C          -8.5239  -16.6250   26.4012 C.ar    1  UNL1        0.0305
     14 C          -7.4313  -15.5977   26.4264 C.ar    1  UNL1        0.1383
     15 CL         -6.9454  -15.0515   27.7362 Cl      1  UNL1       -0.0613
     16 N          -6.8246  -15.1164   25.1417 N.ar    1  UNL1       -0.2327
     17 C          -7.3105  -15.6625   23.8319 C.ar    1  UNL1        0.0968
     18 O          -7.5539  -17.2825   22.8049 O.3     1  UNL1       -0.4791
     19 C          -6.6578  -18.3696   22.2900 C.ar    1  UNL1        0.1385
     20 C          -7.2511  -19.5981   21.6665 C.ar    1  UNL1        0.0369
     21 C          -6.3552  -20.6852   21.1516 C.ar    1  UNL1        0.0033
     22 C          -4.8658  -20.5439   21.2600 C.ar    1  UNL1        0.0047
     23 C          -4.2725  -19.3154   21.8834 C.ar    1  UNL1        0.0561
     24 C          -5.1685  -18.2282   22.3984 C.ar    1  UNL1        0.0414
     25 C          -2.7831  -19.1740   21.9919 C.2     1  UNL1        0.2428
     26 N          -2.1911  -17.9777   22.6763 N.am    1  UNL1       -0.3253
     27 O          -1.8856  -20.2290   21.4158 O.2     1  UNL1       -0.2704
     28 H          -2.7801  -17.2853   23.0543 H       1  UNL1        0.1453
     29 H          -1.2135  -17.8849   22.7474 H       1  UNL1        0.1453
@<TRIPOS>BOND
     1    10     9    1
     2    10    11    1
     3    11    12   ar
     4    12    13   ar
     5    13    14   ar
     6    14    15    1
     7    14    16   ar
     8    16    17   ar
     9    10     1    1
    10     1     2    1
    11     2     3    1
    12     3     4    1
    13     5     4    1
    14     5     6    1
    15     6     7    1
    16     7    18    1
    17    18    19    1
    18    19    20   ar
    19    20    21   ar
    20    21    22   ar
    21    22    23   ar
    22    23    25    1
    23    25    26   am
    24    25    27    2
    25    23    24   ar
    26     7     8    1
    27    17    11   ar
    28     5     1    1
    29    24    19   ar
    30     8     2    1
    31    26    28    1
    32    26    29    1
@<TRIPOS>MOLECULE
*****
 29 32 0 0 0
SMALL
GASTEIGER

@<TRIPOS>ATOM
      1 N         -10.7743  -17.4231   21.6987 N.3     1  UNL1       -0.2726
      2 C         -12.2508  -17.6676   21.8002 C.3     1  UNL1        0.0613
      3 C         -12.9361  -16.7902   20.7950 C.3     1  UNL1        0.0175
      4 C         -11.8832  -16.0035   20.0722 C.3     1  UNL1        0.0175
      5 C         -10.5472  -16.3946   20.6307 C.3     1  UNL1        0.0613
      6 C          -9.3644  -16.9718   21.3704 C.3     1  UNL1        0.0595
      7 C          -9.7449  -17.9867   22.4074 C.3     1  UNL1        0.1686
      8 C         -11.1881  -18.3346   22.6223 C.3     1  UNL1        0.0595
      9 C          -9.0534  -19.3424   22.0224 C.3     1  UNL1        0.0223
     10 C          -9.7116  -18.0901   22.5208 C.3     1  UNL1        0.0816
     11 C          -9.3072  -17.5047   23.8413 C.ar    1  UNL1        0.0114
     12 C          -8.7706  -16.1055   23.9086 C.ar    1  UNL1        0.0010
     13 C          -8.3662  -15.5202   25.2292 C.ar    1  UNL1        0.0305
     14 C          -8.4983  -16.3339   26.4823 C.ar    1  UNL1        0.1383
     15 CL         -8.0938  -15.7485   27.8028 Cl      1  UNL1       -0.0613
     16 N          -9.0349  -17.7331   26.4149 N.ar    1  UNL1       -0.2327
     17 C          -9.4393  -18.3185   25.0944 C.ar    1  UNL1        0.0968
     18 O          -8.6821  -18.6536   23.2295 O.3     1  UNL1       -0.4791
     19 C          -7.3396  -18.9442   22.6267 C.ar    1  UNL1        0.1385
     20 C          -7.1688  -20.1157   21.7056 C.ar    1  UNL1        0.0369
     21 C          -5.8264  -20.4062   21.1028 C.ar    1  UNL1        0.0033
     22 C          -4.6548  -19.5253   21.4212 C.ar    1  UNL1        0.0047
     23 C          -4.8256  -18.3539   22.3423 C.ar    1  UNL1        0.0561
     24 C          -6.1681  -18.0633   22.9451 C.ar    1  UNL1        0.0414
     25 C          -3.6540  -17.4730   22.6606 C.2     1  UNL1        0.2428
     26 N          -2.2647  -18.0383   22.6455 N.am    1  UNL1       -0.3253
     27 O          -3.8717  -16.0268   22.9940 O.2     1  UNL1       -0.2704
     28 H          -2.1218  -18.9875   22.4267 H       1  UNL1        0.1453
     29 H          -1.4957  -17.4601   22.8545 H       1  UNL1        0.1453
@<TRIPOS>BOND
     1    10     9    1
     2    10    11    1
     3    11    12   ar
     4    12    13   ar
     5    13    14   ar
     6    14    15    1
     7    14    16   ar
     8    16    17   ar
     9    10     1    1
    10     1     2    1
    11     2     3    1
    12     3     4    1
    13     5     4    1
    14     5     6    1
    15     6     7    1
    16     7    18    1
    17    18    19    1
    18    19    20   ar
    19    20    21   ar
    20    21    22   ar
    21    22    23   ar
    22    23    25    1
    23    25    26   am
    24    25    27    2
    25    23    24   ar
    26     7     8    1
    27    17    11   ar
    28     5     1    1
    29    24    19   ar
    30     8     2    1
    31    26    28    1
    32    26    29    1
@<TRIPOS>MOLECULE
*****
 29 32 0 0 0
SMALL
GASTEIGER

@<TRIPOS>ATOM
      1 N          -8.4156  -16.8539   24.4793 N.3     1  UNL1       -0.2726
      2 C          -8.8276  -16.4838   25.8733 C.3     1  UNL1        0.0613
      3 C          -7.8054  -15.5329   26.4218 C.3     1  UNL1        0.0175
      4 C          -6.7616  -15.3154   25.3667 C.3     1  UNL1        0.0175
      5 C          -7.1387  -16.1318   24.1662 C.3     1  UNL1        0.0613
      6 C          -7.7553  -17.0362   23.1265 C.3     1  UNL1        0.0595
      7 C          -9.0272  -17.6891   23.5805 C.3     1  UNL1        0.1686
      8 C          -9.5634  -17.4129   24.9538 C.3     1  UNL1        0.0595
      9 C          -8.9133  -19.2619   23.6403 C.3     1  UNL1        0.0223
     10 C          -9.1513  -17.7831   23.5599 C.3     1  UNL1        0.0816
     11 C         -10.1250  -17.2334   22.5600 C.ar    1  UNL1        0.0114
     12 C         -11.5517  -17.6966   22.5695 C.ar    1  UNL1        0.0010
     13 C         -12.5254  -17.1469   21.5696 C.ar    1  UNL1        0.0305
     14 C         -12.0725  -16.1340   20.5602 C.ar    1  UNL1        0.1383
     15 CL        -13.0462  -15.5843   19.5604 Cl      1  UNL1       -0.0613
     16 N         -10.6457  -15.6708   20.5507 N.ar    1  UNL1       -0.2327
     17 C          -9.6720  -16.2205   21.5506 C.ar    1  UNL1        0.0968
     18 O          -9.7629  -18.6183   22.6609 O.3     1  UNL1       -0.4791
     19 C          -9.1087  -19.0986   21.3994 C.ar    1  UNL1        0.1385
     20 C          -9.9503  -19.5709   20.2510 C.ar    1  UNL1        0.0369
     21 C          -9.2961  -20.0512   18.9896 C.ar    1  UNL1        0.0033
     22 C          -7.8004  -20.0592   18.8765 C.ar    1  UNL1        0.0047
     23 C          -6.9589  -19.5870   20.0249 C.ar    1  UNL1        0.0561
     24 C          -7.6131  -19.1066   21.2864 C.ar    1  UNL1        0.0414
     25 C          -5.4632  -19.5950   19.9117 C.2     1  UNL1        0.2428
     26 N          -4.7399  -18.3675   19.4426 N.am    1  UNL1       -0.3253
     27 O          -4.6907  -20.8307   20.2677 O.2     1  UNL1       -0.2704
     28 H          -5.2468  -17.5565   19.2090 H       1  UNL1        0.1453
     29 H          -3.7582  -18.3728   19.3684 H       1  UNL1        0.1453
@<TRIPOS>BOND
     1    10     9    1
     2    10    11    1
     3    11    12   ar
     4    12    13   ar
     5    13    14   ar
     6    14    15    1
     7    14    16   ar
     8    16    17   ar
     9    10     1    1
    10     1     2    1
    11     2     3    1
    12     3     4    1
    13     5     4    1
    14     5     6    1
    15     6     7    1
    16     7    18    1
    17    18    19    1
    18    19    20   ar
    19    20    21   ar
    20    21    22   ar
    21    22    23   ar
    22    23    25    1
    23    25    26   am
    24    25    27    2
    25    23    24   ar
    26     7     8    1
    27    17    11   ar
    28     5     1    1
    29    24    19   ar
    30     8     2    1
    31    26    28    1
    32    26    29    1
@<TRIPOS>MOLECULE
*****
 29 32 0 0 0
SMALL
GASTEIGER

@<TRIPOS>ATOM
      1 N          -9.4712  -18.5978   20.5042 N.3     1  UNL1       -0.2726
      2 C         -10.2949  -18.8989   19.2872 C.3     1  UNL1        0.0613
      3 C          -9.6095  -19.9921   18.5224 C.3     1  UNL1        0.0175
      4 C          -8.3622  -20.3667   19.2666 C.3     1  UNL1        0.0175
      5 C          -8.2767  -19.5049   20.4914 C.3     1  UNL1        0.0613
      6 C          -8.4500  -18.5199   21.6222 C.3     1  UNL1        0.0595
      7 C          -9.6879  -17.6816   21.5007 C.3     1  UNL1        0.1686
      8 C         -10.6104  -17.8711   20.3332 C.3     1  UNL1        0.0595
      9 C          -9.0205  -16.2810   21.5903 C.3     1  UNL1        0.0223
     10 C          -9.7867  -17.5700   21.5501 C.3     1  UNL1        0.0816
     11 C         -10.8684  -17.8311   22.5560 C.ar    1  UNL1        0.0114
     12 C         -12.1612  -17.0739   22.4808 C.ar    1  UNL1        0.0010
     13 C         -13.2428  -17.3351   23.4867 C.ar    1  UNL1        0.0305
     14 C         -13.0319  -18.3534   24.5677 C.ar    1  UNL1        0.1383
     15 CL        -14.1136  -18.6145   25.5735 Cl      1  UNL1       -0.0613
     16 N         -11.7391  -19.1106   24.6428 N.ar    1  UNL1       -0.2327
     17 C         -10.6574  -18.8494   23.6370 C.ar    1  UNL1        0.0968
     18 O         -10.0034  -16.6537   22.5468 O.3     1  UNL1       -0.4791
     19 C          -8.9478  -16.2308   23.5250 C.ar    1  UNL1        0.1385
     20 C          -9.3345  -15.8209   24.9151 C.ar    1  UNL1        0.0369
     21 C          -8.2790  -15.3980   25.8933 C.ar    1  UNL1        0.0033
     22 C          -6.8367  -15.3849   25.4813 C.ar    1  UNL1        0.0047
     23 C          -6.4500  -15.7947   24.0912 C.ar    1  UNL1        0.0561
     24 C          -7.5056  -16.2177   23.1130 C.ar    1  UNL1        0.0414
     25 C          -5.0077  -15.7816   23.6793 C.2     1  UNL1        0.2428
     26 N          -4.1282  -16.9562   23.9902 N.am    1  UNL1       -0.3253
     27 O          -4.4450  -14.5937   22.9564 O.2     1  UNL1       -0.2704
     28 H          -4.4975  -17.7358   24.4646 H       1  UNL1        0.1453
     29 H          -3.1816  -16.9476   23.7198 H       1  UNL1        0.1453
@<TRIPOS>BOND
     1    10     9    1
     2    10    11    1
     3    11    12   ar
     4    12    13   ar
     5    13    14   ar
     6    14    15    1
     7    14    16   ar
     8    16    17   ar
     9    10     1    1
    10     1     2    1
    11     2     3    1
    12     3     4    1
    13     5     4    1
    14     5     6    1
    15     6     7    1
    16     7    18    1
    17    18    19    1
    18    19    20   ar
    19    20    21   ar
    20    21    22   ar
    21    22    23   ar
    22    23    25    1
    23    25    26   am
    24    25    27    2
    25    23    24   ar
    26     7     8    1
    27    17    11   ar
    28     5     1    1
    29    24    19   ar
    30     8     2    1
    31    26    28    1
    32    26    29    1
@<TRIPOS>MOLECULE
*****
 29 32 0 0 0
SMALL
GASTEIGER

@<TRIPOS>ATOM
      1 N         -10.9004  -17.4671   22.4197 N.3     1  UNL1       -0.2726
      2 C         -11.9239  -17.3679   21.3277 C.3     1  UNL1        0.0613
      3 C         -13.2434  -17.8102   21.8874 C.3     1  UNL1        0.0175
      4 C         -13.0354  -18.1828   23.3254 C.3     1  UNL1        0.0175
      5 C         -11.5873  -17.9708   23.6544 C.3     1  UNL1        0.0613
      6 C         -10.1087  -17.6693   23.6970 C.3     1  UNL1        0.0595
      7 C          -9.5614  -17.1745   22.3910 C.3     1  UNL1        0.1686
      8 C         -10.4690  -17.0238   21.2063 C.3     1  UNL1        0.0595
      9 C          -8.9699  -15.7427   22.6427 C.3     1  UNL1        0.0223
     10 C          -9.4455  -17.1231   22.2984 C.3     1  UNL1        0.0816
     11 C          -8.4661  -18.1594   21.8327 C.ar    1  UNL1        0.0114
     12 C          -8.1503  -19.3384   22.7047 C.ar    1  UNL1        0.0010
     13 C          -7.1708  -20.3747   22.2390 C.ar    1  UNL1        0.0305
     14 C          -6.5072  -20.2320   20.9014 C.ar    1  UNL1        0.1383
     15 CL         -5.5279  -21.2683   20.4358 Cl      1  UNL1       -0.0613
     16 N          -6.8230  -19.0530   20.0294 N.ar    1  UNL1       -0.2327
     17 C          -7.8024  -18.0167   20.4951 C.ar    1  UNL1        0.0968
     18 O          -8.1063  -16.8305   22.2697 O.3     1  UNL1       -0.4791
     19 C          -7.3409  -16.3724   23.4757 C.ar    1  UNL1        0.1385
     20 C          -5.8702  -16.0971   23.3705 C.ar    1  UNL1        0.0369
     21 C          -5.1048  -15.6391   24.5764 C.ar    1  UNL1        0.0033
     22 C          -5.8101  -15.4564   25.8876 C.ar    1  UNL1        0.0047
     23 C          -7.2808  -15.7317   25.9928 C.ar    1  UNL1        0.0561
     24 C          -8.0463  -16.1897   24.7868 C.ar    1  UNL1        0.0414
     25 C          -7.9862  -15.5490   27.3039 C.2     1  UNL1        0.2428
     26 N          -7.9222  -14.2284   28.0123 N.am    1  UNL1       -0.3253
     27 O          -8.7555  -16.6870   27.9067 O.2     1  UNL1       -0.2704
     28 H          -7.4173  -13.4815   27.6167 H       1  UNL1        0.1453
     29 H          -8.3851  -14.1084   28.8729 H       1  UNL1        0.1453
@<TRIPOS>BOND
     1    10     9    1
     2    10    11    1
     3    11    12   ar
     4    12    13   ar
     5    13    14   ar
     6    14    15    1
     7    14    16   ar
     8    16    17   ar
     9    10     1    1
    10     1     2    1
    11     2     3    1
    12     3     4    1
    13     5     4    1
    14     5     6    1
    15     6     7    1
    16     7    18    1
    17    18    19    1
    18    19    20   ar
    19    20    21   ar
    20    21    22   ar
    21    22    23   ar
    22    23    25    1
    23    25    26   am
    24    25    27    2
    25    23    24   ar
    26     7     8    1
    27    17    11   ar
    28     5     1    1
    29    24    19   ar
    30     8     2    1
    31    26    28    1
    32    26    29    1
@<TRIPOS>MOLECULE
*****
 29 32 0 0 0
SMALL
GASTEIGER

@<TRIPOS>ATOM
      1 N          -7.3961  -19.4641   21.8149 N.3     1  UNL1       -0.2726
      2 C          -6.3666  -20.5288   22.0527 C.3     1  UNL1        0.0613
      3 C          -5.3337  -20.4249   20.9700 C.3     1  UNL1        0.0175
      4 C          -5.7249  -19.2960   20.0630 C.3     1  UNL1        0.0175
      5 C          -6.9995  -18.7022   20.5852 C.3     1  UNL1        0.0613
      6 C          -8.2572  -18.3160   21.3256 C.3     1  UNL1        0.0595
      7 C          -8.5250  -19.1648   22.5330 C.3     1  UNL1        0.1686
      8 C          -7.5797  -20.2712   22.8965 C.3     1  UNL1        0.0595
      9 C          -9.8849  -19.9464   22.3839 C.3     1  UNL1        0.0223
     10 C          -8.6092  -19.2066   22.6587 C.3     1  UNL1        0.0816
     11 C          -8.5467  -18.2092   23.7774 C.ar    1  UNL1        0.0114
     12 C          -7.8265  -16.9079   23.5826 C.ar    1  UNL1        0.0010
     13 C          -7.7640  -15.9106   24.7014 C.ar    1  UNL1        0.0305
     14 C          -8.4217  -16.2144   26.0147 C.ar    1  UNL1        0.1383
     15 CL         -8.3592  -15.2171   27.1333 Cl      1  UNL1       -0.0613
     16 N          -9.1420  -17.5158   26.2094 N.ar    1  UNL1       -0.2327
     17 C          -9.2045  -18.5131   25.0908 C.ar    1  UNL1        0.0968
     18 O          -9.7382  -18.9073   23.3768 O.3     1  UNL1       -0.4791
     19 C         -10.9195  -18.1905   22.7929 C.ar    1  UNL1        0.1385
     20 C         -12.2752  -18.3483   23.4151 C.ar    1  UNL1        0.0369
     21 C         -13.4563  -17.6316   22.8312 C.ar    1  UNL1        0.0033
     22 C         -13.2819  -16.7570   21.6252 C.ar    1  UNL1        0.0047
     23 C         -11.9262  -16.5992   21.0030 C.ar    1  UNL1        0.0561
     24 C         -10.7450  -17.3159   21.5868 C.ar    1  UNL1        0.0414
     25 C         -11.7518  -15.7246   19.7969 C.2     1  UNL1        0.2428
     26 N         -12.9206  -15.4412   18.9005 N.am    1  UNL1       -0.3253
     27 O         -10.4084  -15.1332   19.4872 O.2     1  UNL1       -0.2704
     28 H         -13.8023  -15.8293   19.1037 H       1  UNL1        0.1453
     29 H         -12.8061  -14.8672   18.1089 H       1  UNL1        0.1453
@<TRIPOS>BOND
     1    10     9    1
     2    10    11    1
     3    11    12   ar
     4    12    13   ar
     5    13    14   ar
     6    14    15    1
     7    14    16   ar
     8    16    17   ar
     9    10     1    1
    10     1     2    1
    11     2     3    1
    12     3     4    1
    13     5     4    1
    14     5     6    1
    15     6     7    1
    16     7    18    1
    17    18    19    1
    18    19    20   ar
    19    20    21   ar
    20    21    22   ar
    21    22    23   ar
    22    23    25    1
    23    25    26   am
    24    25    27    2
    25    23    24   ar
    26     7     8    1
    27    17    11   ar
    28     5     1    1
    29    24    19   ar
    30     8     2    1
    31    26    28    1
    32    26    29    1
@<TRIPOS>MOLECULE
*****
 29 32 0 0 0
SMALL
GASTEIGER

@<TRIPOS>ATOM
      1 N         -12.3485   -1.8910   17.7840 N.3     1  UNL1       -0.2726
      2 C         -11.2354   -0.8959   17.9288 C.3     1  UNL1        0.0613
      3 C         -11.3701    0.1138   16.8278 C.3     1  UNL1        0.0175
      4 C         -12.5664   -0.2572   16.0025 C.3     1  UNL1        0.0175
      5 C         -13.1711   -1.4963   16.5934 C.3     1  UNL1        0.0613
      6 C         -13.5545   -2.7208   17.3888 C.3     1  UNL1        0.0595
      7 C         -12.6420   -2.9906   18.5483 C.3     1  UNL1        0.1686
      8 C         -11.4824   -2.0782   18.8184 C.3     1  UNL1        0.0595
      9 C         -13.4654   -2.9300   19.8871 C.3     1  UNL1        0.0223
     10 C         -12.5955   -3.0733   18.6735 C.3     1  UNL1        0.0816
     11 C         -11.9726   -4.3988   18.3494 C.ar    1  UNL1        0.0114
     12 C         -12.2943   -5.0819   17.0532 C.ar    1  UNL1        0.0010
     13 C         -11.6714   -6.4074   16.7293 C.ar    1  UNL1        0.0305
     14 C         -10.7268   -7.0499   17.7012 C.ar    1  UNL1        0.1383
     15 CL        -10.1039   -8.3753   17.3772 Cl      1  UNL1       -0.0613
     16 N         -10.4050   -6.3668   18.9974 N.ar    1  UNL1       -0.2327
     17 C         -11.0279   -5.0413   19.3215 C.ar    1  UNL1        0.0968
     18 O         -12.8890   -4.1730   19.4379 O.3     1  UNL1       -0.4791
     19 C         -14.2417   -4.8206   19.4660 C.ar    1  UNL1        0.1385
     20 C         -15.4747   -3.9768   19.5991 C.ar    1  UNL1        0.0369
     21 C         -16.8273   -4.6244   19.6273 C.ar    1  UNL1        0.0033
     22 C         -16.9470   -6.1159   19.5224 C.ar    1  UNL1        0.0047
     23 C         -15.7141   -6.9598   19.3893 C.ar    1  UNL1        0.0561
     24 C         -14.3614   -6.3121   19.3611 C.ar    1  UNL1        0.0414
     25 C         -15.8338   -8.4513   19.2844 C.2     1  UNL1        0.2428
     26 N         -14.6037   -9.2922   19.1122 N.am    1  UNL1       -0.3253
     27 O         -17.1837   -9.1020   19.3517 O.2     1  UNL1       -0.2704
     28 H         -13.7177   -8.8652   19.0680 H       1  UNL1        0.1453
     29 H         -14.6823  -10.2712   19.0433 H       1  UNL1        0.1453
@<TRIPOS>BOND
     1    10     9    1
     2    10    11    1
     3    11    12   ar
     4    12    13   ar
     5    13    14   ar
     6    14    15    1
     7    14    16   ar
     8    16    17   ar
     9    10     1    1
    10     1     2    1
    11     2     3    1
    12     3     4    1
    13     5     4    1
    14     5     6    1
    15     6     7    1
    16     7    18    1
    17    18    19    1
    18    19    20   ar
    19    20    21   ar
    20    21    22   ar
    21    22    23   ar
    22    23    25    1
    23    25    26   am
    24    25    27    2
    25    23    24   ar
    26     7     8    1
    27    17    11   ar
    28     5     1    1
    29    24    19   ar
    30     8     2    1
    31    26    28    1
    32    26    29    1
@<TRIPOS>MOLECULE
*****
 29 32 0 0 0
SMALL
GASTEIGER

@<TRIPOS>ATOM
      1 N         -11.5219   -5.1121   17.8104 N.3     1  UNL1       -0.2726
      2 C         -10.1651   -4.8601   18.3983 C.3     1  UNL1        0.0613
      3 C          -9.1869   -4.7311   17.2685 C.3     1  UNL1        0.0175
      4 C          -9.9392   -4.9034   15.9822 C.3     1  UNL1        0.0175
      5 C         -11.3823   -5.1389   16.3171 C.3     1  UNL1        0.0613
      6 C         -12.7409   -5.3501   16.9405 C.3     1  UNL1        0.0595
      7 C         -12.7259   -5.2967   18.4395 C.3     1  UNL1        0.1686
      8 C         -11.4380   -5.0517   19.1684 C.3     1  UNL1        0.0595
      9 C         -13.2597   -6.6866   18.9288 C.3     1  UNL1        0.0223
     10 C         -12.7948   -5.3037   18.5805 C.3     1  UNL1        0.0816
     11 C         -13.6027   -4.1123   19.0022 C.ar    1  UNL1        0.0114
     12 C         -14.0279   -3.0959   17.9842 C.ar    1  UNL1        0.0010
     13 C         -14.8358   -1.9045   18.4060 C.ar    1  UNL1        0.0305
     14 C         -15.2185   -1.7295   19.8457 C.ar    1  UNL1        0.1383
     15 CL        -16.0265   -0.5381   20.2674 Cl      1  UNL1       -0.0613
     16 N         -14.7933   -2.7459   20.8637 N.ar    1  UNL1       -0.2327
     17 C         -13.9854   -3.9372   20.4420 C.ar    1  UNL1        0.0968
     18 O         -13.9988   -5.4883   19.2096 O.3     1  UNL1       -0.4791
     19 C         -15.1104   -6.3108   18.6284 C.ar    1  UNL1        0.1385
     20 C         -16.1719   -5.6555   17.7954 C.ar    1  UNL1        0.0369
     21 C         -17.2834   -6.4780   17.2142 C.ar    1  UNL1        0.0033
     22 C         -17.3336   -7.9558   17.4660 C.ar    1  UNL1        0.0047
     23 C         -16.2721   -8.6111   18.2990 C.ar    1  UNL1        0.0561
     24 C         -15.1605   -7.7886   18.8802 C.ar    1  UNL1        0.0414
     25 C         -16.3223  -10.0890   18.5508 C.2     1  UNL1        0.2428
     26 N         -17.5185  -10.6951   19.2229 N.am    1  UNL1       -0.3253
     27 O         -15.1763  -10.9608   18.1304 O.2     1  UNL1       -0.2704
     28 H         -18.2707  -10.1230   19.4988 H       1  UNL1        0.1453
     29 H         -17.5514  -11.6651   19.3882 H       1  UNL1        0.1453
@<TRIPOS>BOND
     1    10     9    1
     2    10    11    1
     3    11    12   ar
     4    12    13   ar
     5    13    14   ar
     6    14    15    1
     7    14    16   ar
     8    16    17   ar
     9    10     1    1
    10     1     2    1
    11     2     3    1
    12     3     4    1
    13     5     4    1
    14     5     6    1
    15     6     7    1
    16     7    18    1
    17    18    19    1
    18    19    20   ar
    19    20    21   ar
    20    21    22   ar
    21    22    23   ar
    22    23    25    1
    23    25    26   am
    24    25    27    2
    25    23    24   ar
    26     7     8    1
    27    17    11   ar
    28     5     1    1
    29    24    19   ar
    30     8     2    1
    31    26    28    1
    32    26    29    1
@<TRIPOS>MOLECULE
*****
 29 32 0 0 0
SMALL
GASTEIGER

@<TRIPOS>ATOM
      1 N          -2.0723  -18.0269   21.2976 N.3     1  UNL1       -0.2726
      2 C          -1.1366  -19.0426   20.7121 C.3     1  UNL1        0.0613
      3 C          -0.0580  -18.3076   19.9731 C.3     1  UNL1        0.0175
      4 C          -0.3270  -16.8376   20.1018 C.3     1  UNL1        0.0175
      5 C          -1.5719  -16.6640   20.9204 C.3     1  UNL1        0.0613
      6 C          -2.8241  -16.7917   21.7540 C.3     1  UNL1        0.0595
      7 C          -3.2019  -18.2124   22.0520 C.3     1  UNL1        0.1686
      8 C          -2.3582  -19.3379   21.5310 C.3     1  UNL1        0.0595
      9 C          -3.2805  -18.0813   23.5970 C.3     1  UNL1        0.0223
     10 C          -3.2938  -18.3221   22.1166 C.3     1  UNL1        0.0816
     11 C          -4.5287  -18.8582   21.4550 C.ar    1  UNL1        0.0114
     12 C          -5.2639  -20.0152   22.0642 C.ar    1  UNL1        0.0010
     13 C          -6.4987  -20.5513   21.4025 C.ar    1  UNL1        0.0305
     14 C          -6.9984  -19.9305   20.1318 C.ar    1  UNL1        0.1383
     15 CL         -8.2333  -20.4666   19.4702 Cl      1  UNL1       -0.0613
     16 N          -6.2633  -18.7736   19.5226 N.ar    1  UNL1       -0.2327
     17 C          -5.0284  -18.2374   20.1842 C.ar    1  UNL1        0.0968
     18 O          -4.4235  -18.5076   22.8710 O.3     1  UNL1       -0.4791
     19 C          -5.2807  -17.3830   23.3714 C.ar    1  UNL1        0.1385
     20 C          -4.7207  -16.3893   24.3455 C.ar    1  UNL1        0.0369
     21 C          -5.5779  -15.2647   24.8459 C.ar    1  UNL1        0.0033
     22 C          -6.9951  -15.1338   24.3722 C.ar    1  UNL1        0.0047
     23 C          -7.5551  -16.1275   23.3981 C.ar    1  UNL1        0.0561
     24 C          -6.6979  -17.2521   22.8977 C.ar    1  UNL1        0.0414
     25 C          -8.9723  -15.9966   22.9245 C.2     1  UNL1        0.2428
     26 N          -9.2568  -15.5020   21.5372 N.am    1  UNL1       -0.3253
     27 O         -10.1051  -16.3602   23.8381 O.2     1  UNL1       -0.2704
     28 H          -8.5133  -15.2634   20.9375 H       1  UNL1        0.1453
     29 H         -10.1870  -15.4161   21.2263 H       1  UNL1        0.1453
@<TRIPOS>BOND
     1    10     9    1
     2    10    11    1
     3    11    12   ar
     4    12    13   ar
     5    13    14   ar
     6    14    15    1
     7    14    16   ar
     8    16    17   ar
     9    10     1    1
    10     1     2    1
    11     2     3    1
    12     3     4    1
    13     5     4    1
    14     5     6    1
    15     6     7    1
    16     7    18    1
    17    18    19    1
    18    19    20   ar
    19    20    21   ar
    20    21    22   ar
    21    22    23   ar
    22    23    25    1
    23    25    26   am
    24    25    27    2
    25    23    24   ar
    26     7     8    1
    27    17    11   ar
    28     5     1    1
    29    24    19   ar
    30     8     2    1
    31    26    28    1
    32    26    29    1
