@<TRIPOS>MOLECULE
*****
 34 37 0 0 0
SMALL
GASTEIGER

@<TRIPOS>ATOM
      1 C         -15.6780   -1.8921   19.3240 C.3     1  UNL1        0.0938
      2 C         -17.0382   -2.4898   19.5305 C.3     1  UNL1        0.0505
      3 C         -17.9480   -1.4087   20.0339 C.3     1  UNL1        0.1535
      4 N         -17.1501   -0.1428   20.1386 N.am    1  UNL1       -0.2676
      5 C         -17.6648    1.1882   20.6008 C.2     1  UNL1        0.2526
      6 O         -19.1000    1.3360   21.0108 O.2     1  UNL1       -0.2698
      7 C         -15.7472   -0.4416   19.6998 C.3     1  UNL1        0.1136
      8 C         -16.7441    2.3713   20.6531 C.ar    1  UNL1        0.0940
      9 C         -15.9508    2.9225   19.5057 C.ar    1  UNL1        0.1840
     10 O         -15.1715    4.1027   20.0055 O.2     1  UNL1       -0.4503
     11 C         -15.4833    4.2809   21.4619 C.ar    1  UNL1        0.1456
     12 C         -15.0077    5.2793   22.4753 C.ar    1  UNL1        0.0375
     13 C         -15.5040    5.2076   23.8889 C.ar    1  UNL1        0.0031
     14 C         -16.4760    4.1375   24.2892 C.ar    1  UNL1        0.0002
     15 C         -16.9515    3.1391   23.2758 C.ar    1  UNL1        0.0033
     16 C         -16.4552    3.2108   21.8622 C.ar    1  UNL1        0.0420
     17 C         -19.4006   -1.5658   20.3731 C.2     1  UNL1        0.2375
     18 N         -20.4467   -0.9367   19.5013 N.am    1  UNL1       -0.3275
     19 O         -19.8072   -2.3520   21.5841 O.2     1  UNL1       -0.2736
     20 H         -20.1799   -0.4206   18.7065 H       1  UNL1        0.1450
     21 H         -21.4001   -1.0398   19.7240 H       1  UNL1        0.1450
     22 C         -13.5077   -3.2364   19.8065 C.2     1  UNL1        0.2633
     23 O         -13.7692   -3.1298   21.2796 O.2     1  UNL1       -0.2685
     24 N         -14.4622   -2.6175   18.8287 N.am    1  UNL1       -0.2995
     25 H         -14.2905   -2.6875   17.8618 H       1  UNL1        0.1498
     26 C         -10.7236   -5.7306   18.7608 C.ar    1  UNL1        0.0802
     27 C         -12.0671   -5.4440   19.3631 C.ar    1  UNL1        0.0398
     28 C         -12.2918   -3.9619   19.3111 C.ar    1  UNL1        0.1322
     29 N         -11.0872   -3.3324   18.6766 N.ar    1  UNL1       -0.2468
     30 N         -10.1180   -4.4254   18.3365 N.ar    1  UNL1       -0.1736
     31 C         -10.5241   -7.9889   17.4920 C.3     1  UNL1        0.0068
     32 C         -10.0959   -7.0844   18.6094 C.3     1  UNL1        0.0476
     33 C         -10.8870   -1.8671   18.4262 C.3     1  UNL1        0.1277
     34 C         -11.2225   -1.2825   17.0862 C.3     1  UNL1        0.0284
@<TRIPOS>BOND
     1    31    32    1
     2    32    26    1
     3    26    27   ar
     4    27    28   ar
     5    28    22    1
     6    22    23    2
     7    22    24   am
     8     1    24    1
     9     1     2    1
    10     2     3    1
    11     3    17    1
    12    17    18   am
    13    17    19    2
    14     3     4    1
    15     4     5   am
    16     5     6    2
    17     5     8    1
    18     8     9   ar
    19     9    10   ar
    20    10    11   ar
    21    11    12   ar
    22    12    13   ar
    23    13    14   ar
    24    14    15   ar
    25    15    16   ar
    26     4     7    1
    27    28    29   ar
    28    29    33    1
    29    33    34    1
    30    29    30   ar
    31    30    26   ar
    32     7     1    1
    33    16     8   ar
    34    16    11   ar
    35    24    25    1
    36    18    20    1
    37    18    21    1
@<TRIPOS>MOLECULE
*****
 34 37 0 0 0
SMALL
GASTEIGER

@<TRIPOS>ATOM
      1 C           0.9453    1.3731   23.2930 C.3     1  UNL1        0.0938
      2 C           0.0494    2.5020   22.8773 C.3     1  UNL1        0.0505
      3 C          -0.7499    2.9242   24.0744 C.3     1  UNL1        0.1535
      4 N          -0.3479    2.0562   25.2298 N.am    1  UNL1       -0.2676
      5 C          -0.8973    2.1333   26.6235 C.2     1  UNL1        0.2526
      6 O          -1.9478    3.1496   26.9604 O.2     1  UNL1       -0.2698
      7 C           0.6998    1.0975   24.7468 C.3     1  UNL1        0.1136
      8 C          -0.3960    1.1942   27.6803 C.ar    1  UNL1        0.0940
      9 C          -1.1951    0.1192   28.3555 C.ar    1  UNL1        0.1840
     10 O          -0.3005   -0.5742   29.3398 O.2     1  UNL1       -0.4503
     11 C           1.0514    0.0722   29.2730 C.ar    1  UNL1        0.1456
     12 C           2.3285   -0.1933   30.0135 C.ar    1  UNL1        0.0375
     13 C           3.5467    0.6342   29.7284 C.ar    1  UNL1        0.0031
     14 C           3.4877    1.7272   28.7027 C.ar    1  UNL1        0.0002
     15 C           2.2106    1.9926   27.9621 C.ar    1  UNL1        0.0033
     16 C           0.9924    1.1651   28.2473 C.ar    1  UNL1        0.0420
     17 C          -1.7717    4.0218   24.1098 C.2     1  UNL1        0.2375
     18 N          -1.4505    5.3242   24.7811 N.am    1  UNL1       -0.3275
     19 O          -3.1147    3.8169   23.4740 O.2     1  UNL1       -0.2736
     20 H          -0.5690    5.4587   25.1984 H       1  UNL1        0.1450
     21 H          -2.1212    6.0445   24.8043 H       1  UNL1        0.1450
     22 C           1.4398    0.0028   21.1417 C.2     1  UNL1        0.2633
     23 O          -0.0076    0.0846   20.7569 O.2     1  UNL1       -0.2685
     24 N           1.9163    0.6471   22.4098 N.am    1  UNL1       -0.2995
     25 H           2.8663    0.5934   22.6624 H       1  UNL1        0.1498
     26 C           3.9931   -2.3653   19.4276 C.ar    1  UNL1        0.0802
     27 C           3.1239   -1.9995   20.5940 C.ar    1  UNL1        0.0398
     28 C           2.4109   -0.7232   20.2585 C.ar    1  UNL1        0.1322
     29 N           2.8395   -0.3002   18.8847 N.ar    1  UNL1       -0.2468
     30 N           3.8173   -1.3150   18.3711 N.ar    1  UNL1       -0.1736
     31 C           4.3046   -4.9003   18.9512 C.3     1  UNL1        0.0068
     32 C           4.8821   -3.5699   19.3340 C.3     1  UNL1        0.0476
     33 C           2.3722    0.9230   18.1529 C.3     1  UNL1        0.1277
     34 C           2.9062    2.2728   18.5307 C.3     1  UNL1        0.0284
@<TRIPOS>BOND
     1    31    32    1
     2    32    26    1
     3    26    27   ar
     4    27    28   ar
     5    28    22    1
     6    22    23    2
     7    22    24   am
     8     1    24    1
     9     1     2    1
    10     2     3    1
    11     3    17    1
    12    17    18   am
    13    17    19    2
    14     3     4    1
    15     4     5   am
    16     5     6    2
    17     5     8    1
    18     8     9   ar
    19     9    10   ar
    20    10    11   ar
    21    11    12   ar
    22    12    13   ar
    23    13    14   ar
    24    14    15   ar
    25    15    16   ar
    26     4     7    1
    27    28    29   ar
    28    29    33    1
    29    33    34    1
    30    29    30   ar
    31    30    26   ar
    32     7     1    1
    33    16     8   ar
    34    16    11   ar
    35    24    25    1
    36    18    20    1
    37    18    21    1
@<TRIPOS>MOLECULE
*****
 34 37 0 0 0
SMALL
GASTEIGER

@<TRIPOS>ATOM
      1 C          -5.0591  -16.1422   23.7818 C.3     1  UNL1        0.0938
      2 C          -4.8939  -15.7927   25.2311 C.3     1  UNL1        0.0505
      3 C          -6.2572  -15.7462   25.8550 C.3     1  UNL1        0.1535
      4 N          -7.2649  -16.0669   24.7912 N.am    1  UNL1       -0.2676
      5 C          -8.7522  -16.1315   24.9763 C.2     1  UNL1        0.2526
      6 O          -9.3526  -15.8611   26.3239 O.2     1  UNL1       -0.2698
      7 C          -6.5244  -16.3116   23.5099 C.3     1  UNL1        0.1136
      8 C          -9.6387  -16.4664   23.8136 C.ar    1  UNL1        0.0940
      9 C         -10.3065  -15.4806   22.9013 C.ar    1  UNL1        0.1840
     10 O         -11.0937  -16.2510   21.8830 O.2     1  UNL1       -0.4503
     11 C         -10.9124  -17.7128   22.1659 C.ar    1  UNL1        0.1456
     12 C         -11.4499  -18.9399   21.4912 C.ar    1  UNL1        0.0375
     13 C         -11.0882  -20.3002   22.0097 C.ar    1  UNL1        0.0031
     14 C         -10.1890  -20.4333   23.2029 C.ar    1  UNL1        0.0002
     15 C          -9.6514  -19.2063   23.8776 C.ar    1  UNL1        0.0033
     16 C         -10.0131  -17.8460   23.3591 C.ar    1  UNL1        0.0420
     17 C          -6.5597  -15.4338   27.2906 C.2     1  UNL1        0.2375
     18 N          -6.5427  -14.0120   27.7684 N.am    1  UNL1       -0.3275
     19 O          -6.8791  -16.5431   28.2483 O.2     1  UNL1       -0.2736
     20 H          -6.3331  -13.2839   27.1398 H       1  UNL1        0.1450
     21 H          -6.7413  -13.8069   28.7106 H       1  UNL1        0.1450
     22 C          -3.5370  -17.6630   22.3255 C.2     1  UNL1        0.2633
     23 O          -4.2270  -18.8773   22.8724 O.2     1  UNL1       -0.2685
     24 N          -3.9530  -16.2954   22.7803 N.am    1  UNL1       -0.2995
     25 H          -3.5002  -15.4983   22.4213 H       1  UNL1        0.1498
     26 C          -0.2723  -17.6556   20.2263 C.ar    1  UNL1        0.0802
     27 C          -1.0418  -17.2651   21.4532 C.ar    1  UNL1        0.0398
     28 C          -2.4309  -17.8161   21.3239 C.ar    1  UNL1        0.1322
     29 N          -2.5199  -18.5470   20.0171 N.ar    1  UNL1       -0.2468
     30 N          -1.1858  -18.4479   19.3388 N.ar    1  UNL1       -0.1736
     31 C           2.2305  -17.6766   20.9231 C.3     1  UNL1        0.0068
     32 C           1.1594  -17.3138   19.9377 C.3     1  UNL1        0.0476
     33 C          -3.7305  -19.2532   19.4825 C.3     1  UNL1        0.1277
     34 C          -4.0495  -20.6457   19.9400 C.3     1  UNL1        0.0284
@<TRIPOS>BOND
     1    31    32    1
     2    32    26    1
     3    26    27   ar
     4    27    28   ar
     5    28    22    1
     6    22    23    2
     7    22    24   am
     8     1    24    1
     9     1     2    1
    10     2     3    1
    11     3    17    1
    12    17    18   am
    13    17    19    2
    14     3     4    1
    15     4     5   am
    16     5     6    2
    17     5     8    1
    18     8     9   ar
    19     9    10   ar
    20    10    11   ar
    21    11    12   ar
    22    12    13   ar
    23    13    14   ar
    24    14    15   ar
    25    15    16   ar
    26     4     7    1
    27    28    29   ar
    28    29    33    1
    29    33    34    1
    30    29    30   ar
    31    30    26   ar
    32     7     1    1
    33    16     8   ar
    34    16    11   ar
    35    24    25    1
    36    18    20    1
    37    18    21    1
@<TRIPOS>MOLECULE
*****
 34 37 0 0 0
SMALL
GASTEIGER

@<TRIPOS>ATOM
      1 C           1.7640    0.6041   24.1593 C.3     1  UNL1        0.0938
      2 C           0.7193    1.5293   23.6093 C.3     1  UNL1        0.0505
      3 C           1.0296    1.7705   22.1617 C.3     1  UNL1        0.1535
      4 N           2.2660    0.9943   21.8171 N.am    1  UNL1       -0.2676
      5 C           2.9317    0.9473   20.4736 C.2     1  UNL1        0.2526
      6 O           2.3599    1.7251   19.3257 O.2     1  UNL1       -0.2698
      7 C           2.7199    0.2734   23.0517 C.3     1  UNL1        0.1136
      8 C           4.1693    0.1225   20.2783 C.ar    1  UNL1        0.0940
      9 C           5.5820    0.6011   20.4367 C.ar    1  UNL1        0.1840
     10 O           6.4971   -0.5514   20.1466 O.2     1  UNL1       -0.4503
     11 C           5.6500   -1.7423   19.8089 C.ar    1  UNL1        0.1456
     12 C           6.0029   -3.1522   19.4378 C.ar    1  UNL1        0.0375
     13 C           4.9170   -4.1456   19.1480 C.ar    1  UNL1        0.0031
     14 C           3.4783   -3.7291   19.2294 C.ar    1  UNL1        0.0002
     15 C           3.1254   -2.3193   19.6005 C.ar    1  UNL1        0.0033
     16 C           4.2113   -1.3259   19.8903 C.ar    1  UNL1        0.0420
     17 C           0.2418    2.6360   21.2234 C.2     1  UNL1        0.2375
     18 N           0.7800    3.9722   20.8049 N.am    1  UNL1       -0.3275
     19 O          -1.0842    2.1653   20.7036 O.2     1  UNL1       -0.2736
     20 H           1.6503    4.2811   21.1461 H       1  UNL1        0.1450
     21 H           0.2629    4.5402   20.1891 H       1  UNL1        0.1450
     22 C           2.1732    1.0410   26.6875 C.2     1  UNL1        0.2633
     23 O           2.4314    2.4893   26.3954 O.2     1  UNL1       -0.2685
     24 N           1.8395    0.0983   25.5694 N.am    1  UNL1       -0.2995
     25 H           1.6700   -0.8524   25.7611 H       1  UNL1        0.1498
     26 C           3.1098   -0.3036   30.2061 C.ar    1  UNL1        0.0802
     27 C           3.4985    0.1403   28.8271 C.ar    1  UNL1        0.0398
     28 C           2.2487    0.5351   28.0976 C.ar    1  UNL1        0.1322
     29 N           1.0875    0.3351   29.0258 N.ar    1  UNL1       -0.2468
     30 N           1.6196   -0.1832   30.3289 N.ar    1  UNL1       -0.1736
     31 C           3.7882   -0.4351   32.7105 C.3     1  UNL1        0.0068
     32 C           4.0466   -0.7836   31.2747 C.3     1  UNL1        0.0476
     33 C          -0.3530    0.6059   28.7069 C.3     1  UNL1        0.1277
     34 C          -1.3531   -0.5112   28.7482 C.3     1  UNL1        0.0284
@<TRIPOS>BOND
     1    31    32    1
     2    32    26    1
     3    26    27   ar
     4    27    28   ar
     5    28    22    1
     6    22    23    2
     7    22    24   am
     8     1    24    1
     9     1     2    1
    10     2     3    1
    11     3    17    1
    12    17    18   am
    13    17    19    2
    14     3     4    1
    15     4     5   am
    16     5     6    2
    17     5     8    1
    18     8     9   ar
    19     9    10   ar
    20    10    11   ar
    21    11    12   ar
    22    12    13   ar
    23    13    14   ar
    24    14    15   ar
    25    15    16   ar
    26     4     7    1
    27    28    29   ar
    28    29    33    1
    29    33    34    1
    30    29    30   ar
    31    30    26   ar
    32     7     1    1
    33    16     8   ar
    34    16    11   ar
    35    24    25    1
    36    18    20    1
    37    18    21    1
@<TRIPOS>MOLECULE
*****
 34 37 0 0 0
SMALL
GASTEIGER

@<TRIPOS>ATOM
      1 C           0.2003    1.8915   25.0910 C.3     1  UNL1        0.0938
      2 C          -0.4222    2.7848   24.0593 C.3     1  UNL1        0.0505
      3 C           0.1291    2.3990   22.7187 C.3     1  UNL1        0.1535
      4 N           1.0923    1.2672   22.9219 N.am    1  UNL1       -0.2676
      5 C           1.8743    0.5713   21.8474 C.2     1  UNL1        0.2526
      6 O           1.7261    0.9970   20.4168 O.2     1  UNL1       -0.2698
      7 C           1.1363    0.9536   24.3880 C.3     1  UNL1        0.1136
      8 C           2.8043   -0.5504   22.2037 C.ar    1  UNL1        0.0940
      9 C           3.4634   -0.7601   23.5347 C.ar    1  UNL1        0.1840
     10 O           4.3050   -1.9985   23.4452 O.2     1  UNL1       -0.4503
     11 C           4.1660   -2.5542   22.0588 C.ar    1  UNL1        0.1456
     12 C           4.7642   -3.7595   21.3960 C.ar    1  UNL1        0.0375
     13 C           4.4348   -4.0698   19.9659 C.ar    1  UNL1        0.0031
     14 C           3.5074   -3.1747   19.1987 C.ar    1  UNL1        0.0002
     15 C           2.9092   -1.9694   19.8615 C.ar    1  UNL1        0.0033
     16 C           3.2385   -1.6592   21.2916 C.ar    1  UNL1        0.0420
     17 C          -0.2213    3.0335   21.4055 C.2     1  UNL1        0.2375
     18 N          -1.1858    2.3551   20.4783 N.am    1  UNL1       -0.3275
     19 O           0.3928    4.3465   21.0194 O.2     1  UNL1       -0.2736
     20 H          -1.5889    1.4934   20.7317 H       1  UNL1        0.1450
     21 H          -1.4158    2.7716   19.6164 H       1  UNL1        0.1450
     22 C           1.0142    2.3612   27.5132 C.2     1  UNL1        0.2633
     23 O           2.3613    2.7551   26.9842 O.2     1  UNL1       -0.2685
     24 N          -0.0664    1.9294   26.5666 N.am    1  UNL1       -0.2995
     25 H          -0.9506    1.6708   26.9138 H       1  UNL1        0.1498
     26 C           0.5415    3.1786   31.2780 C.ar    1  UNL1        0.0802
     27 C           0.9217    3.5884   29.8861 C.ar    1  UNL1        0.0398
     28 C           0.7474    2.3991   28.9888 C.ar    1  UNL1        0.1322
     29 N           0.2595    1.2542   29.8262 N.ar    1  UNL1       -0.2468
     30 N           0.1323    1.7359   31.2409 N.ar    1  UNL1       -0.1736
     31 C          -0.6418    4.8686   32.8571 C.3     1  UNL1        0.0068
     32 C           0.5662    4.0571   32.4935 C.3     1  UNL1        0.0476
     33 C          -0.0472   -0.1295   29.3349 C.3     1  UNL1        0.1277
     34 C          -1.4444   -0.4861   28.9218 C.3     1  UNL1        0.0284
@<TRIPOS>BOND
     1    31    32    1
     2    32    26    1
     3    26    27   ar
     4    27    28   ar
     5    28    22    1
     6    22    23    2
     7    22    24   am
     8     1    24    1
     9     1     2    1
    10     2     3    1
    11     3    17    1
    12    17    18   am
    13    17    19    2
    14     3     4    1
    15     4     5   am
    16     5     6    2
    17     5     8    1
    18     8     9   ar
    19     9    10   ar
    20    10    11   ar
    21    11    12   ar
    22    12    13   ar
    23    13    14   ar
    24    14    15   ar
    25    15    16   ar
    26     4     7    1
    27    28    29   ar
    28    29    33    1
    29    33    34    1
    30    29    30   ar
    31    30    26   ar
    32     7     1    1
    33    16     8   ar
    34    16    11   ar
    35    24    25    1
    36    18    20    1
    37    18    21    1
@<TRIPOS>MOLECULE
*****
 34 37 0 0 0
SMALL
GASTEIGER

@<TRIPOS>ATOM
      1 C           6.4471   -4.3311   27.7442 C.3     1  UNL1        0.0938
      2 C           6.8884   -5.4345   28.6594 C.3     1  UNL1        0.0505
      3 C           7.0570   -4.8573   30.0336 C.3     1  UNL1        0.1535
      4 N           6.7199   -3.3972   29.9676 N.am    1  UNL1       -0.2676
      5 C           6.7538   -2.4316   31.1152 C.2     1  UNL1        0.2526
      6 O           7.1530   -2.9045   32.4815 O.2     1  UNL1       -0.2698
      7 C           6.3429   -3.0720   28.5526 C.3     1  UNL1        0.1136
      8 C           6.3886   -0.9934   30.8962 C.ar    1  UNL1        0.0940
      9 C           7.3496    0.1525   30.7803 C.ar    1  UNL1        0.1840
     10 O           6.5531    1.4056   30.5672 O.2     1  UNL1       -0.4503
     11 C           5.0999    1.0342   30.5514 C.ar    1  UNL1        0.1456
     12 C           3.8561    1.8545   30.3782 C.ar    1  UNL1        0.0375
     13 C           2.5106    1.1921   30.4083 C.ar    1  UNL1        0.0031
     14 C           2.4090   -0.2906   30.6116 C.ar    1  UNL1        0.0002
     15 C           3.6527   -1.1109   30.7849 C.ar    1  UNL1        0.0033
     16 C           4.9982   -0.4485   30.7548 C.ar    1  UNL1        0.0420
     17 C           7.4872   -5.6083   31.2587 C.2     1  UNL1        0.2375
     18 N           6.5353   -5.7817   32.4050 N.am    1  UNL1       -0.3275
     19 O           8.8693   -6.1859   31.3376 O.2     1  UNL1       -0.2736
     20 H           5.6282   -5.4026   32.3532 H       1  UNL1        0.1450
     21 H           6.8177   -6.2746   33.2090 H       1  UNL1        0.1450
     22 C           7.1169   -3.8949   25.2721 C.2     1  UNL1        0.2633
     23 O           8.3602   -3.1937   25.7327 O.2     1  UNL1       -0.2685
     24 N           6.1602   -4.4636   26.2779 N.am    1  UNL1       -0.2995
     25 H           5.3441   -4.9239   25.9755 H       1  UNL1        0.1498
     26 C           5.7815   -3.7982   21.6289 C.ar    1  UNL1        0.0802
     27 C           5.6792   -3.4044   23.0725 C.ar    1  UNL1        0.0398
     28 C           6.8299   -4.0274   23.8057 C.ar    1  UNL1        0.1322
     29 N           7.6435   -4.8064   22.8151 N.ar    1  UNL1       -0.2468
     30 N           6.9956   -4.6648   21.4698 N.ar    1  UNL1       -0.1736
     31 C           4.5785   -1.9438   20.2637 C.3     1  UNL1        0.0068
     32 C           4.8359   -3.3962   20.5361 C.3     1  UNL1        0.0476
     33 C           8.8868   -5.5895   23.1169 C.3     1  UNL1        0.1277
     34 C           8.7816   -6.9821   23.6641 C.3     1  UNL1        0.0284
@<TRIPOS>BOND
     1    31    32    1
     2    32    26    1
     3    26    27   ar
     4    27    28   ar
     5    28    22    1
     6    22    23    2
     7    22    24   am
     8     1    24    1
     9     1     2    1
    10     2     3    1
    11     3    17    1
    12    17    18   am
    13    17    19    2
    14     3     4    1
    15     4     5   am
    16     5     6    2
    17     5     8    1
    18     8     9   ar
    19     9    10   ar
    20    10    11   ar
    21    11    12   ar
    22    12    13   ar
    23    13    14   ar
    24    14    15   ar
    25    15    16   ar
    26     4     7    1
    27    28    29   ar
    28    29    33    1
    29    33    34    1
    30    29    30   ar
    31    30    26   ar
    32     7     1    1
    33    16     8   ar
    34    16    11   ar
    35    24    25    1
    36    18    20    1
    37    18    21    1
@<TRIPOS>MOLECULE
*****
 34 37 0 0 0
SMALL
GASTEIGER

@<TRIPOS>ATOM
      1 C           3.9889   -1.7191   24.8402 C.3     1  UNL1        0.0938
      2 C           5.1948   -2.3472   24.2067 C.3     1  UNL1        0.0505
      3 C           5.1211   -2.1045   22.7283 C.3     1  UNL1        0.1535
      4 N           3.8696   -1.3265   22.4481 N.am    1  UNL1       -0.2676
      5 C           3.4003   -0.8672   21.0994 C.2     1  UNL1        0.2526
      6 O           4.2099   -1.1816   19.8766 O.2     1  UNL1       -0.2698
      7 C           3.1699   -1.0883   23.7534 C.3     1  UNL1        0.1136
      8 C           2.1212   -0.0937   20.9738 C.ar    1  UNL1        0.0940
      9 C           0.8501   -0.5873   20.3488 C.ar    1  UNL1        0.1840
     10 O          -0.1679    0.5106   20.4399 O.2     1  UNL1       -0.4503
     11 C           0.4741    1.6827   21.1210 C.ar    1  UNL1        0.1456
     12 C          -0.0468    3.0418   21.4834 C.ar    1  UNL1        0.0375
     13 C           0.8470    4.0275   22.1758 C.ar    1  UNL1        0.0031
     14 C           2.2618    3.6540   22.5058 C.ar    1  UNL1        0.0002
     15 C           2.7827    2.2949   22.1434 C.ar    1  UNL1        0.0033
     16 C           1.8889    1.3092   21.4510 C.ar    1  UNL1        0.0420
     17 C           6.1229   -2.5599   21.7091 C.2     1  UNL1        0.2375
     18 N           7.0206   -1.5608   21.0412 N.am    1  UNL1       -0.3275
     19 O           6.2271   -4.0144   21.3576 O.2     1  UNL1       -0.2736
     20 H           6.9522   -0.6061   21.2719 H       1  UNL1        0.1450
     21 H           7.6781   -1.8597   20.3722 H       1  UNL1        0.1450
     22 C           3.3634   -0.4306   27.0078 C.2     1  UNL1        0.2633
     23 O           3.3962    0.8626   26.2486 O.2     1  UNL1       -0.2685
     24 N           3.6598   -1.7215   26.3036 N.am    1  UNL1       -0.2995
     25 H           3.6383   -2.5703   26.8020 H       1  UNL1        0.1498
     26 C           3.2417   -0.6013   30.8836 C.ar    1  UNL1        0.0802
     27 C           3.9960   -0.7006   29.5909 C.ar    1  UNL1        0.0398
     28 C           3.0343   -0.4330   28.4713 C.ar    1  UNL1        0.1322
     29 N           1.6857   -0.1683   29.0720 N.ar    1  UNL1       -0.2468
     30 N           1.8137   -0.2722   30.5629 N.ar    1  UNL1       -0.1736
     31 C           5.2969   -0.7096   32.4693 C.3     1  UNL1        0.0068
     32 C           3.8147   -0.7967   32.2560 C.3     1  UNL1        0.0476
     33 C           0.4293    0.1454   28.3148 C.3     1  UNL1        0.1277
     34 C          -0.8911   -0.3683   28.8072 C.3     1  UNL1        0.0284
@<TRIPOS>BOND
     1    31    32    1
     2    32    26    1
     3    26    27   ar
     4    27    28   ar
     5    28    22    1
     6    22    23    2
     7    22    24   am
     8     1    24    1
     9     1     2    1
    10     2     3    1
    11     3    17    1
    12    17    18   am
    13    17    19    2
    14     3     4    1
    15     4     5   am
    16     5     6    2
    17     5     8    1
    18     8     9   ar
    19     9    10   ar
    20    10    11   ar
    21    11    12   ar
    22    12    13   ar
    23    13    14   ar
    24    14    15   ar
    25    15    16   ar
    26     4     7    1
    27    28    29   ar
    28    29    33    1
    29    33    34    1
    30    29    30   ar
    31    30    26   ar
    32     7     1    1
    33    16     8   ar
    34    16    11   ar
    35    24    25    1
    36    18    20    1
    37    18    21    1
@<TRIPOS>MOLECULE
*****
 34 37 0 0 0
SMALL
GASTEIGER

@<TRIPOS>ATOM
      1 C           0.3597    1.4365   21.6012 C.3     1  UNL1        0.0938
      2 C           0.5060    1.6196   23.0827 C.3     1  UNL1        0.0505
      3 C           1.8770    1.1536   23.4742 C.3     1  UNL1        0.1535
      4 N           2.5780    0.6826   22.2345 N.am    1  UNL1       -0.2676
      5 C           3.9721    0.1332   22.1647 C.2     1  UNL1        0.2526
      6 O           4.7957    0.0170   23.4128 O.2     1  UNL1       -0.2698
      7 C           1.6402    0.8575   21.0769 C.3     1  UNL1        0.1136
      8 C           4.5423   -0.3000   20.8467 C.ar    1  UNL1        0.0940
      9 C           5.2182    0.5875   19.8440 C.ar    1  UNL1        0.1840
     10 O           5.6304   -0.2608   18.6776 O.2     1  UNL1       -0.4503
     11 C           5.2093   -1.6726   18.9594 C.ar    1  UNL1        0.1456
     12 C           5.3513   -2.9392   18.1686 C.ar    1  UNL1        0.0375
     13 C           4.8209   -4.2301   18.7183 C.ar    1  UNL1        0.0031
     14 C           4.1484   -4.2543   20.0589 C.ar    1  UNL1        0.0002
     15 C           4.0064   -2.9877   20.8498 C.ar    1  UNL1        0.0033
     16 C           4.5368   -1.6969   20.3000 C.ar    1  UNL1        0.0420
     17 C           2.4469    1.1579   24.8616 C.2     1  UNL1        0.2375
     18 N           2.6273   -0.1340   25.6024 N.am    1  UNL1       -0.3275
     19 O           2.8366    2.4540   25.5084 O.2     1  UNL1       -0.2736
     20 H           2.3715   -0.9847   25.1779 H       1  UNL1        0.1450
     21 H           3.0013   -0.1312   26.5131 H       1  UNL1        0.1450
     22 C          -1.3263    3.1944   20.6969 C.2     1  UNL1        0.2633
     23 O          -0.5847    4.2784   21.4214 O.2     1  UNL1       -0.2685
     24 N          -0.8541    1.7734   20.7868 N.am    1  UNL1       -0.2995
     25 H          -1.3408    1.0620   20.3113 H       1  UNL1        0.1498
     26 C          -3.9705    4.1972   18.0384 C.ar    1  UNL1        0.0802
     27 C          -2.5458    3.9682   18.4476 C.ar    1  UNL1        0.0398
     28 C          -2.5401    3.5312   19.8825 C.ar    1  UNL1        0.1322
     29 N          -3.9614    3.4903   20.3602 N.ar    1  UNL1       -0.2468
     30 N          -4.8455    3.9018   19.2205 N.ar    1  UNL1       -0.1736
     31 C          -5.1265    5.9668   16.5277 C.3     1  UNL1        0.0068
     32 C          -4.4383    4.6433   16.6848 C.3     1  UNL1        0.0476
     33 C          -4.4184    3.1053   21.7360 C.3     1  UNL1        0.1277
     34 C          -5.6246    3.7637   22.3373 C.3     1  UNL1        0.0284
@<TRIPOS>BOND
     1    31    32    1
     2    32    26    1
     3    26    27   ar
     4    27    28   ar
     5    28    22    1
     6    22    23    2
     7    22    24   am
     8     1    24    1
     9     1     2    1
    10     2     3    1
    11     3    17    1
    12    17    18   am
    13    17    19    2
    14     3     4    1
    15     4     5   am
    16     5     6    2
    17     5     8    1
    18     8     9   ar
    19     9    10   ar
    20    10    11   ar
    21    11    12   ar
    22    12    13   ar
    23    13    14   ar
    24    14    15   ar
    25    15    16   ar
    26     4     7    1
    27    28    29   ar
    28    29    33    1
    29    33    34    1
    30    29    30   ar
    31    30    26   ar
    32     7     1    1
    33    16     8   ar
    34    16    11   ar
    35    24    25    1
    36    18    20    1
    37    18    21    1
@<TRIPOS>MOLECULE
*****
 34 37 0 0 0
SMALL
GASTEIGER

@<TRIPOS>ATOM
      1 C         -13.8589   -0.5088   18.1127 C.3     1  UNL1        0.0938
      2 C         -13.2175    0.4972   17.2035 C.3     1  UNL1        0.0505
      3 C         -13.7935    1.8447   17.5236 C.3     1  UNL1        0.1535
      4 N         -14.7908    1.6715   18.6306 N.am    1  UNL1       -0.2676
      5 C         -15.6048    2.7616   19.2626 C.2     1  UNL1        0.2526
      6 O         -15.4563    4.1777   18.7912 O.2     1  UNL1       -0.2698
      7 C         -14.8312    0.2169   18.9946 C.3     1  UNL1        0.1136
      8 C         -16.5672    2.4353   20.3659 C.ar    1  UNL1        0.0940
      9 C         -17.5740    1.3234   20.3575 C.ar    1  UNL1        0.1840
     10 O         -18.3207    1.3646   21.6578 O.2     1  UNL1       -0.4503
     11 C         -17.7754    2.5019   22.4698 C.ar    1  UNL1        0.1456
     12 C         -18.1257    3.0204   23.8330 C.ar    1  UNL1        0.0375
     13 C         -17.3922    4.2006   24.3977 C.ar    1  UNL1        0.0031
     14 C         -16.3084    4.8623   23.5993 C.ar    1  UNL1        0.0002
     15 C         -15.9581    4.3438   22.2361 C.ar    1  UNL1        0.0033
     16 C         -16.6916    3.1636   21.6713 C.ar    1  UNL1        0.0420
     17 C         -13.4351    3.1383   16.8542 C.2     1  UNL1        0.2375
     18 N         -14.4384    3.8357   15.9841 N.am    1  UNL1       -0.3275
     19 O         -12.0734    3.7346   17.0550 O.2     1  UNL1       -0.2736
     20 H         -15.3321    3.4444   15.8523 H       1  UNL1        0.1450
     21 H         -14.2031    4.6848   15.5448 H       1  UNL1        0.1450
     22 C         -12.3016   -2.4924   18.7374 C.2     1  UNL1        0.2633
     23 O         -11.3074   -1.5297   19.3159 O.2     1  UNL1       -0.2685
     24 N         -13.5774   -1.9820   18.1358 N.am    1  UNL1       -0.2995
     25 H         -14.2299   -2.6138   17.7561 H       1  UNL1        0.1498
     26 C         -10.9653   -6.1201   18.3922 C.ar    1  UNL1        0.0802
     27 C         -10.8486   -4.6496   18.1206 C.ar    1  UNL1        0.0398
     28 C         -12.0201   -3.9656   18.7605 C.ar    1  UNL1        0.1322
     29 N         -12.8609   -5.0134   19.4277 N.ar    1  UNL1       -0.2468
     30 N         -12.2091   -6.3450   19.2001 N.ar    1  UNL1       -0.1736
     31 C          -9.2421   -7.9842   18.9453 C.3     1  UNL1        0.0068
     32 C         -10.0066   -7.1798   17.9361 C.3     1  UNL1        0.0476
     33 C         -14.1307   -4.7720   20.1889 C.3     1  UNL1        0.1277
     34 C         -15.4158   -5.3856   19.7176 C.3     1  UNL1        0.0284
@<TRIPOS>BOND
     1    31    32    1
     2    32    26    1
     3    26    27   ar
     4    27    28   ar
     5    28    22    1
     6    22    23    2
     7    22    24   am
     8     1    24    1
     9     1     2    1
    10     2     3    1
    11     3    17    1
    12    17    18   am
    13    17    19    2
    14     3     4    1
    15     4     5   am
    16     5     6    2
    17     5     8    1
    18     8     9   ar
    19     9    10   ar
    20    10    11   ar
    21    11    12   ar
    22    12    13   ar
    23    13    14   ar
    24    14    15   ar
    25    15    16   ar
    26     4     7    1
    27    28    29   ar
    28    29    33    1
    29    33    34    1
    30    29    30   ar
    31    30    26   ar
    32     7     1    1
    33    16     8   ar
    34    16    11   ar
    35    24    25    1
    36    18    20    1
    37    18    21    1
