@<TRIPOS>MOLECULE
*****
 28 30 0 0 0
SMALL
GASTEIGER

@<TRIPOS>ATOM
      1 O          -7.6972  -19.8563   22.4810 O.2     1  UNL1       -0.2732
      2 C          -7.4507  -18.7839   21.4615 C.2     1  UNL1        0.2430
      3 N          -7.8459  -17.3666   21.7532 N.am    1  UNL1       -0.2972
      4 H          -7.6841  -16.6628   21.0841 H       1  UNL1        0.1500
      5 C          -6.8089  -19.1288   20.1503 C.3     1  UNL1        0.1756
      6 N          -5.4705  -18.5517   19.7956 N.am    1  UNL1       -0.2967
      7 C          -4.2709  -18.8656   20.6397 C.2     1  UNL1        0.2223
      8 O          -4.4096  -19.7566   21.8384 O.2     1  UNL1       -0.2751
      9 H          -5.3794  -17.9669   19.0089 H       1  UNL1        0.1499
     10 C          -2.9325  -18.2885   20.2850 C.3     1  UNL1        0.0765
     11 C          -2.1096  -17.3763   21.1456 C.3     1  UNL1        0.0091
     12 C          -0.8506  -17.0464   20.4000 C.3     1  UNL1        0.0005
     13 C          -0.8954  -17.7547   19.0785 C.3     1  UNL1        0.0005
     14 C          -2.1821  -18.5224   19.0074 C.3     1  UNL1        0.0091
     15 C          -8.4877  -17.0217   23.0643 C.3     1  UNL1        0.1169
     16 C          -9.9441  -17.3054   23.2841 C.ar    1  UNL1       -0.0003
     17 C         -10.3616  -18.4227   24.1936 C.ar    1  UNL1       -0.0015
     18 C         -11.8181  -18.7064   24.4133 C.ar    1  UNL1        0.0111
     19 C         -12.8570  -17.8728   23.7236 C.ar    1  UNL1        0.0577
     20 CL        -14.3134  -18.1565   23.9434 Cl      1  UNL1       -0.0822
     21 C         -12.4394  -16.7554   22.8141 C.ar    1  UNL1        0.0111
     22 C         -10.9830  -16.4717   22.5944 C.ar    1  UNL1       -0.0015
     23 C          -7.6730  -16.3930   24.1558 C.ar    1  UNL1       -0.0003
     24 C          -6.2258  -16.0747   23.9230 C.ar    1  UNL1       -0.0024
     25 C          -5.4112  -15.4461   25.0143 C.ar    1  UNL1       -0.0003
     26 C          -6.0438  -15.1357   26.3385 C.ar    1  UNL1       -0.0000
     27 C          -7.4910  -15.4539   26.5713 C.ar    1  UNL1       -0.0003
     28 C          -8.3056  -16.0826   25.4799 C.ar    1  UNL1       -0.0024
@<TRIPOS>BOND
     1     1     2    2
     2     2     5    1
     3     5     6    1
     4     6     7   am
     5     7     8    2
     6     7    10    1
     7    10    11    1
     8    11    12    1
     9    12    13    1
    10    13    14    1
    11     2     3   am
    12     3    15    1
    13    15    23    1
    14    23    24   ar
    15    24    25   ar
    16    25    26   ar
    17    26    27   ar
    18    27    28   ar
    19    15    16    1
    20    16    17   ar
    21    17    18   ar
    22    18    19   ar
    23    19    20    1
    24    19    21   ar
    25    21    22   ar
    26    14    10    1
    27    28    23   ar
    28    22    16   ar
    29     6     9    1
    30     3     4    1
@<TRIPOS>MOLECULE
*****
 28 30 0 0 0
SMALL
GASTEIGER

@<TRIPOS>ATOM
      1 O          -7.6895  -20.0599   22.4012 O.2     1  UNL1       -0.2732
      2 C          -7.1192  -19.1418   21.3610 C.2     1  UNL1        0.2430
      3 N          -7.5218  -17.6971   21.3338 N.am    1  UNL1       -0.2972
      4 H          -7.1475  -17.0946   20.6511 H       1  UNL1        0.1500
      5 C          -6.1463  -19.6685   20.3480 C.3     1  UNL1        0.1756
      6 N          -4.8794  -18.9173   20.0636 N.am    1  UNL1       -0.2967
      7 C          -3.7711  -18.9063   21.0743 C.2     1  UNL1        0.2223
      8 O          -3.9297  -19.6465   22.3694 O.2     1  UNL1       -0.2751
      9 H          -4.7754  -18.4315   19.2137 H       1  UNL1        0.1499
     10 C          -2.5042  -18.1552   20.7900 C.3     1  UNL1        0.0765
     11 C          -2.1529  -16.7915   21.3066 C.3     1  UNL1        0.0091
     12 C          -0.7978  -16.4294   20.7750 C.3     1  UNL1        0.0005
     13 C          -0.3116  -17.5693   19.9299 C.3     1  UNL1        0.0005
     14 C          -1.3663  -18.6359   19.9391 C.3     1  UNL1        0.0091
     15 C          -8.4947  -17.1704   22.3468 C.3     1  UNL1        0.1169
     16 C          -7.9945  -16.5957   23.6389 C.ar    1  UNL1       -0.0003
     17 C          -8.8917  -16.5589   24.8405 C.ar    1  UNL1       -0.0015
     18 C          -8.3915  -15.9842   26.1326 C.ar    1  UNL1        0.0111
     19 C          -6.9943  -15.4463   26.2232 C.ar    1  UNL1        0.0577
     20 CL         -6.4941  -14.8716   27.5153 Cl      1  UNL1       -0.0822
     21 C          -6.0971  -15.4831   25.0216 C.ar    1  UNL1        0.0111
     22 C          -6.5972  -16.0578   23.7295 C.ar    1  UNL1       -0.0015
     23 C          -9.9677  -17.2185   22.0676 C.ar    1  UNL1       -0.0003
     24 C         -10.8060  -18.3177   22.6499 C.ar    1  UNL1       -0.0024
     25 C         -12.2789  -18.3657   22.3707 C.ar    1  UNL1       -0.0003
     26 C         -12.9137  -17.3144   21.5092 C.ar    1  UNL1       -0.0000
     27 C         -12.0754  -16.2153   20.9270 C.ar    1  UNL1       -0.0003
     28 C         -10.6024  -16.1673   21.2062 C.ar    1  UNL1       -0.0024
@<TRIPOS>BOND
     1     1     2    2
     2     2     5    1
     3     5     6    1
     4     6     7   am
     5     7     8    2
     6     7    10    1
     7    10    11    1
     8    11    12    1
     9    12    13    1
    10    13    14    1
    11     2     3   am
    12     3    15    1
    13    15    23    1
    14    23    24   ar
    15    24    25   ar
    16    25    26   ar
    17    26    27   ar
    18    27    28   ar
    19    15    16    1
    20    16    17   ar
    21    17    18   ar
    22    18    19   ar
    23    19    20    1
    24    19    21   ar
    25    21    22   ar
    26    14    10    1
    27    28    23   ar
    28    22    16   ar
    29     6     9    1
    30     3     4    1
@<TRIPOS>MOLECULE
*****
 28 30 0 0 0
SMALL
GASTEIGER

@<TRIPOS>ATOM
      1 O          -8.1094  -17.0072   21.3058 O.2     1  UNL1       -0.2732
      2 C          -7.8997  -18.4163   21.7757 C.2     1  UNL1        0.2430
      3 N          -8.4787  -18.8643   23.0849 N.am    1  UNL1       -0.2972
      4 H          -8.3411  -19.7891   23.3932 H       1  UNL1        0.1500
      5 C          -7.1112  -19.3773   20.9362 C.3     1  UNL1        0.1756
      6 N          -5.8171  -18.9429   20.3144 N.am    1  UNL1       -0.2967
      7 C          -4.5307  -19.1058   21.0685 C.2     1  UNL1        0.2223
      8 O          -4.5384  -19.7031   22.4444 O.2     1  UNL1       -0.2751
      9 H          -5.8120  -18.5508   19.4113 H       1  UNL1        0.1499
     10 C          -3.2366  -18.6714   20.4467 C.3     1  UNL1        0.0765
     11 C          -1.8764  -18.7903   21.0676 C.3     1  UNL1        0.0091
     12 C          -0.8746  -18.2342   20.0995 C.3     1  UNL1        0.0005
     13 C          -1.6159  -17.7716   18.8802 C.3     1  UNL1        0.0005
     14 C          -3.0756  -18.0418   19.0948 C.3     1  UNL1        0.0091
     15 C          -9.2672  -17.9033   23.9243 C.3     1  UNL1        0.1169
     16 C          -8.5665  -17.0280   24.9206 C.ar    1  UNL1       -0.0003
     17 C          -7.4984  -16.0787   24.4645 C.ar    1  UNL1       -0.0015
     18 C          -6.7976  -15.2033   25.4609 C.ar    1  UNL1        0.0111
     19 C          -7.1650  -15.2772   26.9133 C.ar    1  UNL1        0.0577
     20 CL         -6.4643  -14.4018   27.9096 Cl      1  UNL1       -0.0822
     21 C          -8.2331  -16.2264   27.3694 C.ar    1  UNL1        0.0111
     22 C          -8.9339  -17.1018   26.3731 C.ar    1  UNL1       -0.0015
     23 C         -10.7566  -17.8177   23.7674 C.ar    1  UNL1       -0.0003
     24 C         -11.3528  -16.8592   22.7797 C.ar    1  UNL1       -0.0024
     25 C         -12.8421  -16.7736   22.6229 C.ar    1  UNL1       -0.0003
     26 C         -13.7352  -17.6466   23.4537 C.ar    1  UNL1       -0.0000
     27 C         -13.1389  -18.6052   24.4414 C.ar    1  UNL1       -0.0003
     28 C         -11.6496  -18.6908   24.5983 C.ar    1  UNL1       -0.0024
@<TRIPOS>BOND
     1     1     2    2
     2     2     5    1
     3     5     6    1
     4     6     7   am
     5     7     8    2
     6     7    10    1
     7    10    11    1
     8    11    12    1
     9    12    13    1
    10    13    14    1
    11     2     3   am
    12     3    15    1
    13    15    23    1
    14    23    24   ar
    15    24    25   ar
    16    25    26   ar
    17    26    27   ar
    18    27    28   ar
    19    15    16    1
    20    16    17   ar
    21    17    18   ar
    22    18    19   ar
    23    19    20    1
    24    19    21   ar
    25    21    22   ar
    26    14    10    1
    27    28    23   ar
    28    22    16   ar
    29     6     9    1
    30     3     4    1
@<TRIPOS>MOLECULE
*****
 28 30 0 0 0
SMALL
GASTEIGER

@<TRIPOS>ATOM
      1 O          -8.0207  -15.8469   21.9287 O.2     1  UNL1       -0.2732
      2 C          -7.4815  -16.8147   22.9400 C.2     1  UNL1        0.2430
      3 N          -8.1649  -18.1324   23.1559 N.am    1  UNL1       -0.2972
      4 H          -7.8109  -18.7676   23.8196 H       1  UNL1        0.1500
      5 C          -6.2589  -16.4647   23.7355 C.3     1  UNL1        0.1756
      6 N          -4.9173  -16.4161   23.0663 N.am    1  UNL1       -0.2967
      7 C          -4.3137  -17.6690   22.5042 C.2     1  UNL1        0.2223
      8 O          -5.0518  -18.9705   22.6113 O.2     1  UNL1       -0.2751
      9 H          -4.4329  -15.5619   22.9961 H       1  UNL1        0.1499
     10 C          -2.9722  -17.6205   21.8351 C.3     1  UNL1        0.0765
     11 C          -2.1431  -16.3909   21.6101 C.3     1  UNL1        0.0091
     12 C          -0.8826  -16.8035   20.9094 C.3     1  UNL1        0.0005
     13 C          -0.9327  -18.2882   20.7013 C.3     1  UNL1        0.0005
     14 C          -2.2241  -18.7931   21.2734 C.3     1  UNL1        0.0091
     15 C          -9.3875  -18.4824   22.3604 C.3     1  UNL1        0.1169
     16 C          -9.2478  -19.1615   21.0303 C.ar    1  UNL1       -0.0003
     17 C          -7.8853  -19.4838   20.4921 C.ar    1  UNL1       -0.0015
     18 C          -7.7457  -20.1629   19.1619 C.ar    1  UNL1        0.0111
     19 C          -8.9685  -20.5197   18.3699 C.ar    1  UNL1        0.0577
     20 CL         -8.8289  -21.1987   17.0398 Cl      1  UNL1       -0.0822
     21 C         -10.3311  -20.1973   18.9081 C.ar    1  UNL1        0.0111
     22 C         -10.4707  -19.5183   20.2382 C.ar    1  UNL1       -0.0015
     23 C         -10.7498  -18.1533   22.8952 C.ar    1  UNL1       -0.0003
     24 C         -11.3465  -18.9858   23.9910 C.ar    1  UNL1       -0.0024
     25 C         -12.7088  -18.6567   24.5257 C.ar    1  UNL1       -0.0003
     26 C         -13.4742  -17.4951   23.9646 C.ar    1  UNL1       -0.0000
     27 C         -12.8775  -16.6627   22.8688 C.ar    1  UNL1       -0.0003
     28 C         -11.5152  -16.9918   22.3341 C.ar    1  UNL1       -0.0024
@<TRIPOS>BOND
     1     1     2    2
     2     2     5    1
     3     5     6    1
     4     6     7   am
     5     7     8    2
     6     7    10    1
     7    10    11    1
     8    11    12    1
     9    12    13    1
    10    13    14    1
    11     2     3   am
    12     3    15    1
    13    15    23    1
    14    23    24   ar
    15    24    25   ar
    16    25    26   ar
    17    26    27   ar
    18    27    28   ar
    19    15    16    1
    20    16    17   ar
    21    17    18   ar
    22    18    19   ar
    23    19    20    1
    24    19    21   ar
    25    21    22   ar
    26    14    10    1
    27    28    23   ar
    28    22    16   ar
    29     6     9    1
    30     3     4    1
@<TRIPOS>MOLECULE
*****
 28 30 0 0 0
SMALL
GASTEIGER

@<TRIPOS>ATOM
      1 O          -8.0098  -15.9467   21.9594 O.2     1  UNL1       -0.2732
      2 C          -7.3947  -16.8758   22.9636 C.2     1  UNL1        0.2430
      3 N          -7.9977  -18.2284   23.2019 N.am    1  UNL1       -0.2972
      4 H          -7.5939  -18.8382   23.8609 H       1  UNL1        0.1500
      5 C          -6.1765  -16.4523   23.7295 C.3     1  UNL1        0.1756
      6 N          -4.8436  -16.3900   23.0440 N.am    1  UNL1       -0.2967
      7 C          -4.2146  -17.6436   22.5121 C.2     1  UNL1        0.2223
      8 O          -4.9183  -18.9594   22.6657 O.2     1  UNL1       -0.2751
      9 H          -4.3818  -15.5265   22.9433 H       1  UNL1        0.1499
     10 C          -2.8818  -17.5814   21.8267 C.3     1  UNL1        0.0765
     11 C          -2.0793  -16.3403   21.5703 C.3     1  UNL1        0.0091
     12 C          -0.8191  -16.7412   20.8624 C.3     1  UNL1        0.0005
     13 C          -0.8428  -18.2301   20.6813 C.3     1  UNL1        0.0005
     14 C          -2.1176  -18.7493   21.2773 C.3     1  UNL1        0.0091
     15 C          -9.2159  -18.6519   22.4359 C.3     1  UNL1        0.1169
     16 C         -10.5763  -18.5075   23.0510 C.ar    1  UNL1       -0.0003
     17 C         -10.9082  -19.2390   24.3178 C.ar    1  UNL1       -0.0015
     18 C         -12.2687  -19.0945   24.9329 C.ar    1  UNL1        0.0111
     19 C         -13.2972  -18.2186   24.2812 C.ar    1  UNL1        0.0577
     20 CL        -14.6576  -18.0741   24.8962 Cl      1  UNL1       -0.0822
     21 C         -12.9654  -17.4871   23.0144 C.ar    1  UNL1        0.0111
     22 C         -11.6050  -17.6315   22.3993 C.ar    1  UNL1       -0.0015
     23 C          -9.0736  -19.2199   21.0549 C.ar    1  UNL1       -0.0003
     24 C         -10.2956  -19.5590   20.2538 C.ar    1  UNL1       -0.0024
     25 C         -10.1533  -20.1269   18.8729 C.ar    1  UNL1       -0.0003
     26 C          -8.7890  -20.3558   18.2929 C.ar    1  UNL1       -0.0000
     27 C          -7.5670  -20.0167   19.0940 C.ar    1  UNL1       -0.0003
     28 C          -7.7093  -19.4488   20.4750 C.ar    1  UNL1       -0.0024
@<TRIPOS>BOND
     1     1     2    2
     2     2     5    1
     3     5     6    1
     4     6     7   am
     5     7     8    2
     6     7    10    1
     7    10    11    1
     8    11    12    1
     9    12    13    1
    10    13    14    1
    11     2     3   am
    12     3    15    1
    13    15    23    1
    14    23    24   ar
    15    24    25   ar
    16    25    26   ar
    17    26    27   ar
    18    27    28   ar
    19    15    16    1
    20    16    17   ar
    21    17    18   ar
    22    18    19   ar
    23    19    20    1
    24    19    21   ar
    25    21    22   ar
    26    14    10    1
    27    28    23   ar
    28    22    16   ar
    29     6     9    1
    30     3     4    1
@<TRIPOS>MOLECULE
*****
 28 30 0 0 0
SMALL
GASTEIGER

@<TRIPOS>ATOM
      1 O          -7.4352  -17.1025   21.1911 O.2     1  UNL1       -0.2732
      2 C          -7.2880  -18.5305   21.6262 C.2     1  UNL1        0.2430
      3 N          -6.0875  -18.9526   22.4202 N.am    1  UNL1       -0.2972
      4 H          -5.9908  -19.8898   22.7057 H       1  UNL1        0.1500
      5 C          -8.3413  -19.5363   21.2672 C.3     1  UNL1        0.1756
      6 N          -9.7603  -19.3252   21.7055 N.am    1  UNL1       -0.2967
      7 C         -10.0484  -18.6930   23.0349 C.2     1  UNL1        0.2223
      8 O          -8.9176  -18.2719   23.9260 O.2     1  UNL1       -0.2751
      9 H         -10.5025  -19.6016   21.1207 H       1  UNL1        0.1499
     10 C         -11.4673  -18.4819   23.4733 C.3     1  UNL1        0.0765
     11 C         -12.0543  -18.8966   24.7899 C.3     1  UNL1        0.0091
     12 C         -13.4981  -18.4901   24.8023 C.3     1  UNL1        0.0005
     13 C         -13.8034  -17.8241   23.4933 C.3     1  UNL1        0.0005
     14 C         -12.5483  -17.8191   22.6720 C.3     1  UNL1        0.0091
     15 C          -5.0341  -17.9468   22.7792 C.3     1  UNL1        0.1169
     16 C          -3.7366  -17.9187   22.0272 C.ar    1  UNL1       -0.0003
     17 C          -2.8829  -16.6856   22.0502 C.ar    1  UNL1       -0.0015
     18 C          -1.5853  -16.6575   21.2981 C.ar    1  UNL1        0.0111
     19 C          -1.1415  -17.8625   20.5230 C.ar    1  UNL1        0.0577
     20 CL          0.1560  -17.8344   19.7710 Cl      1  UNL1       -0.0822
     21 C          -1.9953  -19.0957   20.4999 C.ar    1  UNL1        0.0111
     22 C          -3.2928  -19.1238   21.2520 C.ar    1  UNL1       -0.0015
     23 C          -5.2784  -16.9691   23.8903 C.ar    1  UNL1       -0.0003
     24 C          -4.4765  -17.0553   25.1550 C.ar    1  UNL1       -0.0024
     25 C          -4.7207  -16.0777   26.2660 C.ar    1  UNL1       -0.0003
     26 C          -5.7669  -15.0137   26.1124 C.ar    1  UNL1       -0.0000
     27 C          -6.5688  -14.9275   24.8477 C.ar    1  UNL1       -0.0003
     28 C          -6.3245  -15.9052   23.7367 C.ar    1  UNL1       -0.0024
@<TRIPOS>BOND
     1     1     2    2
     2     2     5    1
     3     5     6    1
     4     6     7   am
     5     7     8    2
     6     7    10    1
     7    10    11    1
     8    11    12    1
     9    12    13    1
    10    13    14    1
    11     2     3   am
    12     3    15    1
    13    15    23    1
    14    23    24   ar
    15    24    25   ar
    16    25    26   ar
    17    26    27   ar
    18    27    28   ar
    19    15    16    1
    20    16    17   ar
    21    17    18   ar
    22    18    19   ar
    23    19    20    1
    24    19    21   ar
    25    21    22   ar
    26    14    10    1
    27    28    23   ar
    28    22    16   ar
    29     6     9    1
    30     3     4    1
