@<TRIPOS>MOLECULE
*****
 41 45 0 0 0
SMALL
GASTEIGER

@<TRIPOS>ATOM
      1 C           5.5603    0.4893   27.6673 C.3     1  UNL1        0.0972
      2 C           4.8276   -0.0548   28.8577 C.3     1  UNL1        0.0431
      3 C           5.0733   -1.5332   28.9172 C.3     1  UNL1        0.0968
      4 N           5.9579   -1.9029   27.7636 N.am    1  UNL1       -0.2623
      5 C           6.4544   -3.2807   27.4394 C.2     1  UNL1        0.3073
      6 O           6.0681   -4.4409   28.3082 O.2     1  UNL1       -0.2523
      7 N           7.3372   -3.4984   26.2464 N.am    1  UNL1       -0.2626
      8 C           7.9076   -4.8118   25.7995 C.3     1  UNL1        0.0964
      9 C           8.7275   -4.5661   24.5677 C.3     1  UNL1        0.0390
     10 C           8.6639   -3.1008   24.2533 C.3     1  UNL1        0.0758
     11 C           7.8046   -2.4409   25.2907 C.3     1  UNL1        0.1106
     12 C           6.2589   -0.6528   26.9910 C.3     1  UNL1        0.1147
     13 C           6.3136    2.9453   28.0556 C.3     1  UNL1        0.1152
     14 N           5.5893    1.9239   27.2298 N.am    1  UNL1       -0.2738
     15 C           4.8938    2.3370   25.9666 C.2     1  UNL1        0.2551
     16 O           4.9228    3.7715   25.5291 O.2     1  UNL1       -0.2694
     17 C           4.1695    1.3156   25.1408 C.ar    1  UNL1        0.0830
     18 C           2.7046    1.0010   25.2132 C.ar    1  UNL1        0.0115
     19 C           2.4125   -0.0796   24.2147 C.ar    1  UNL1        0.0071
     20 C           3.6969   -0.4329   23.5252 C.ar    1  UNL1        0.0296
     21 S           4.7827    0.4293   24.0975 S.2     1  UNL1       -0.0824
     22 C           3.8659   -1.4670   22.4517 C.ar    1  UNL1        0.0060
     23 C           4.6987   -2.6874   22.7104 C.ar    1  UNL1        0.0004
     24 C           4.8676   -3.7214   21.6370 C.ar    1  UNL1        0.0039
     25 C           4.2037   -3.5350   20.3049 C.ar    1  UNL1        0.0714
     26 C           3.3708   -2.3146   20.0462 C.ar    1  UNL1        0.0039
     27 C           3.2019   -1.2806   21.1197 C.ar    1  UNL1        0.0004
     28 C           4.3726   -4.5691   19.2315 C.3     1  UNL1        0.4186
     29 F           4.5416   -5.6032   18.1581 F       1  UNL1       -0.1659
     30 F           2.9506   -4.3575   18.8037 F       1  UNL1       -0.1659
     31 F           5.7946   -4.7808   19.6593 F       1  UNL1       -0.1659
     32 N           9.3407   -2.4156   23.1033 N.3     1  UNL1       -0.2982
     33 H          10.0763   -3.0430   22.7783 H       1  UNL1        0.1232
     34 C           8.5462   -2.0171   21.8949 C.3     1  UNL1        0.0540
     35 C           8.5492   -2.8890   20.6744 C.3     1  UNL1        0.0157
     36 C           7.7548   -2.4906   19.4661 C.3     1  UNL1        0.0014
     37 C           6.9574   -1.2202   19.4782 C.3     1  UNL1        0.0001
     38 C           6.0518   -0.1198   19.0100 C.3     1  UNL1        0.0000
     39 C           6.6459   -1.7100   18.0951 C.3     1  UNL1        0.0000
     40 C           6.9545   -0.3482   20.6987 C.3     1  UNL1        0.0014
     41 C           7.7489   -0.7466   21.9070 C.3     1  UNL1        0.0157
@<TRIPOS>BOND
     1    13    14    1
     2    14    15   am
     3    15    16    2
     4    15    17    1
     5    17    18   ar
     6    18    19   ar
     7    19    20   ar
     8    20    22    1
     9    22    23   ar
    10    23    24   ar
    11    24    25   ar
    12    25    28    1
    13    28    29    1
    14    28    30    1
    15    28    31    1
    16    25    26   ar
    17    26    27   ar
    18    20    21   ar
    19     1    14    1
    20     1     2    1
    21     2     3    1
    22     3     4    1
    23     4     5   am
    24     5     6    2
    25     5     7   am
    26     7     8    1
    27     8     9    1
    28     9    10    1
    29    10    32    1
    30    32    34    1
    31    34    35    1
    32    35    36    1
    33    36    37    1
    34    37    38    1
    35    37    39    1
    36    37    40    1
    37    40    41    1
    38    10    11    1
    39     4    12    1
    40    21    17   ar
    41    12     1    1
    42    27    22   ar
    43    11     7    1
    44    41    34    1
    45    32    33    1
@<TRIPOS>MOLECULE
*****
 41 45 0 0 0
SMALL
GASTEIGER

@<TRIPOS>ATOM
      1 C           2.6710    2.8139   25.8061 C.3     1  UNL1        0.0972
      2 C           1.6650    2.5021   26.8742 C.3     1  UNL1        0.0431
      3 C           1.9889    1.1493   27.4352 C.3     1  UNL1        0.0968
      4 N           3.1951    0.6250   26.7139 N.am    1  UNL1       -0.2623
      5 C           3.8625   -0.6962   26.9568 C.2     1  UNL1        0.3073
      6 O           3.3250   -1.6268   28.0033 O.2     1  UNL1       -0.2523
      7 N           5.0674   -1.0867   26.1533 N.am    1  UNL1       -0.2626
      8 C           5.8364   -2.3681   26.2832 C.3     1  UNL1        0.0964
      9 C           6.9591   -2.3378   25.2890 C.3     1  UNL1        0.0390
     10 C           6.8841   -1.0377   24.5446 C.3     1  UNL1        0.0758
     11 C           5.7150   -0.2645   25.0788 C.3     1  UNL1        0.1106
     12 C           3.6167    1.6539   25.7070 C.3     1  UNL1        0.1147
     13 C           3.0890    5.3717   25.6229 C.3     1  UNL1        0.1152
     14 N           2.7223    4.0662   24.9818 N.am    1  UNL1       -0.2738
     15 C           2.4070    4.0128   23.5163 C.2     1  UNL1        0.2551
     16 O           2.4583    5.2649   22.6919 O.2     1  UNL1       -0.2694
     17 C           2.0403    2.7072   22.8751 C.ar    1  UNL1        0.0830
     18 C           0.6482    2.2160   22.6087 C.ar    1  UNL1        0.0115
     19 C           0.7489    0.8689   21.9567 C.ar    1  UNL1        0.0071
     20 C           2.2031    0.5275   21.8201 C.ar    1  UNL1        0.0296
     21 S           3.0012    1.6637   22.3877 S.2     1  UNL1       -0.0824
     22 C           2.7613   -0.7294   21.2210 C.ar    1  UNL1        0.0060
     23 C           2.4686   -1.0726   19.7905 C.ar    1  UNL1        0.0004
     24 C           3.0268   -2.3294   19.1915 C.ar    1  UNL1        0.0039
     25 C           3.8776   -3.2430   20.0231 C.ar    1  UNL1        0.0714
     26 C           4.1702   -2.8998   21.4536 C.ar    1  UNL1        0.0039
     27 C           3.6120   -1.6430   22.0526 C.ar    1  UNL1        0.0004
     28 C           4.4357   -4.4999   19.4240 C.3     1  UNL1        0.4186
     29 F           4.9939   -5.7567   18.8250 F       1  UNL1       -0.1659
     30 F           3.1633   -4.6985   18.6550 F       1  UNL1       -0.1659
     31 F           5.7082   -4.3013   20.1930 F       1  UNL1       -0.1659
     32 N           7.8148   -0.5895   23.4569 N.3     1  UNL1       -0.2982
     33 H           8.6497   -1.1715   23.5254 H       1  UNL1        0.1232
     34 C           7.3716   -0.6349   22.0246 C.3     1  UNL1        0.0540
     35 C           7.7811   -1.7817   21.1488 C.3     1  UNL1        0.0157
     36 C           7.3379   -1.8271   19.7165 C.3     1  UNL1        0.0014
     37 C           6.4852   -0.7257   19.1600 C.3     1  UNL1        0.0001
     38 C           5.6772    0.0739   18.1812 C.3     1  UNL1        0.0000
     39 C           6.6141   -1.5949   17.9443 C.3     1  UNL1        0.0000
     40 C           6.0756    0.4212   20.0358 C.3     1  UNL1        0.0014
     41 C           6.5188    0.4665   21.4681 C.3     1  UNL1        0.0157
@<TRIPOS>BOND
     1    13    14    1
     2    14    15   am
     3    15    16    2
     4    15    17    1
     5    17    18   ar
     6    18    19   ar
     7    19    20   ar
     8    20    22    1
     9    22    23   ar
    10    23    24   ar
    11    24    25   ar
    12    25    28    1
    13    28    29    1
    14    28    30    1
    15    28    31    1
    16    25    26   ar
    17    26    27   ar
    18    20    21   ar
    19     1    14    1
    20     1     2    1
    21     2     3    1
    22     3     4    1
    23     4     5   am
    24     5     6    2
    25     5     7   am
    26     7     8    1
    27     8     9    1
    28     9    10    1
    29    10    32    1
    30    32    34    1
    31    34    35    1
    32    35    36    1
    33    36    37    1
    34    37    38    1
    35    37    39    1
    36    37    40    1
    37    40    41    1
    38    10    11    1
    39     4    12    1
    40    21    17   ar
    41    12     1    1
    42    27    22   ar
    43    11     7    1
    44    41    34    1
    45    32    33    1
@<TRIPOS>MOLECULE
*****
 41 45 0 0 0
SMALL
GASTEIGER

@<TRIPOS>ATOM
      1 C           4.8085   -0.1156   18.3450 C.3     1  UNL1        0.0972
      2 C           4.4294   -1.3099   17.5204 C.3     1  UNL1        0.0431
      3 C           4.3338   -2.4939   18.4363 C.3     1  UNL1        0.0968
      4 N           4.6537   -2.0314   19.8268 N.am    1  UNL1       -0.2623
      5 C           4.6763   -2.8884   21.0577 C.2     1  UNL1        0.3073
      6 O           4.3594   -4.3511   20.9592 O.2     1  UNL1       -0.2523
      7 N           5.0159   -2.2824   22.3873 N.am    1  UNL1       -0.2626
      8 C           5.0780   -3.0098   23.6977 C.3     1  UNL1        0.0964
      9 C           5.4535   -2.0198   24.7601 C.3     1  UNL1        0.0390
     10 C           5.6234   -0.6805   24.1063 C.3     1  UNL1        0.0758
     11 C           5.3530   -0.8428   22.6399 C.3     1  UNL1        0.1106
     12 C           4.9471   -0.5614   19.7704 C.3     1  UNL1        0.1147
     13 C           6.2041    1.5985   16.9796 C.3     1  UNL1        0.1152
     14 N           5.0130    1.2798   17.8337 N.am    1  UNL1       -0.2738
     15 C           4.0264    2.3563   18.1767 C.2     1  UNL1        0.2551
     16 O           4.2308    3.7516   17.6655 O.2     1  UNL1       -0.2694
     17 C           2.8353    2.0376   19.0309 C.ar    1  UNL1        0.0830
     18 C           1.5342    1.4652   18.5515 C.ar    1  UNL1        0.0115
     19 C           0.6309    1.3091   19.7387 C.ar    1  UNL1        0.0071
     20 C           1.3736    1.7849   20.9520 C.ar    1  UNL1        0.0296
     21 S           2.7360    2.2351   20.5145 S.2     1  UNL1       -0.0824
     22 C           0.8466    1.8067   22.3562 C.ar    1  UNL1        0.0060
     23 C           1.3672    0.8293   23.3680 C.ar    1  UNL1        0.0004
     24 C           0.8401    0.8512   24.7721 C.ar    1  UNL1        0.0039
     25 C          -0.2076    1.8504   25.1645 C.ar    1  UNL1        0.0714
     26 C          -0.7282    2.8278   24.1528 C.ar    1  UNL1        0.0039
     27 C          -0.2011    2.8059   22.7486 C.ar    1  UNL1        0.0004
     28 C          -0.7346    1.8722   26.5687 C.3     1  UNL1        0.4186
     29 F          -1.2616    1.8940   27.9729 F       1  UNL1       -0.1659
     30 F          -1.9153    2.6774   26.1131 F       1  UNL1       -0.1659
     31 F           0.4460    1.0670   27.0244 F       1  UNL1       -0.1659
     32 N           5.9981    0.5969   24.7977 N.3     1  UNL1       -0.2982
     33 H           6.7737    0.9998   24.2719 H       1  UNL1        0.1232
     34 C           4.9790    1.6845   24.9677 C.3     1  UNL1        0.0540
     35 C           4.6680    2.6060   23.8259 C.3     1  UNL1        0.0157
     36 C           3.6490    3.6935   23.9958 C.3     1  UNL1        0.0014
     37 C           2.9410    3.8594   25.3077 C.3     1  UNL1        0.0001
     38 C           2.0129    4.4121   26.3486 C.3     1  UNL1        0.0000
     39 C           2.3077    4.9730   24.5273 C.3     1  UNL1        0.0000
     40 C           3.2519    2.9378   26.4497 C.3     1  UNL1        0.0014
     41 C           4.2709    1.8504   26.2796 C.3     1  UNL1        0.0157
@<TRIPOS>BOND
     1    13    14    1
     2    14    15   am
     3    15    16    2
     4    15    17    1
     5    17    18   ar
     6    18    19   ar
     7    19    20   ar
     8    20    22    1
     9    22    23   ar
    10    23    24   ar
    11    24    25   ar
    12    25    28    1
    13    28    29    1
    14    28    30    1
    15    28    31    1
    16    25    26   ar
    17    26    27   ar
    18    20    21   ar
    19     1    14    1
    20     1     2    1
    21     2     3    1
    22     3     4    1
    23     4     5   am
    24     5     6    2
    25     5     7   am
    26     7     8    1
    27     8     9    1
    28     9    10    1
    29    10    32    1
    30    32    34    1
    31    34    35    1
    32    35    36    1
    33    36    37    1
    34    37    38    1
    35    37    39    1
    36    37    40    1
    37    40    41    1
    38    10    11    1
    39     4    12    1
    40    21    17   ar
    41    12     1    1
    42    27    22   ar
    43    11     7    1
    44    41    34    1
    45    32    33    1
@<TRIPOS>MOLECULE
*****
 41 45 0 0 0
SMALL
GASTEIGER

@<TRIPOS>ATOM
      1 C           1.8469    4.4591   20.9586 C.3     1  UNL1        0.0972
      2 C           2.1670    5.5538   21.9329 C.3     1  UNL1        0.0431
      3 C           3.6561    5.7315   21.9576 C.3     1  UNL1        0.0968
      4 N           4.2564    4.7467   20.9985 N.am    1  UNL1       -0.2623
      5 C           5.7183    4.5779   20.7078 C.2     1  UNL1        0.3073
      6 O           6.7264    5.4414   21.4063 O.2     1  UNL1       -0.2523
      7 N           6.1719    3.5454   19.7186 N.am    1  UNL1       -0.2626
      8 C           7.5923    3.2631   19.3277 C.3     1  UNL1        0.0964
      9 C           7.5832    2.1573   18.3143 C.3     1  UNL1        0.0390
     10 C           6.1570    1.7562   18.0788 C.3     1  UNL1        0.0758
     11 C           5.2849    2.6141   18.9468 C.3     1  UNL1        0.1106
     12 C           3.1381    3.9603   20.3810 C.3     1  UNL1        0.1147
     13 C          -0.4791    4.8229   19.8596 C.3     1  UNL1        0.1152
     14 N           0.4759    3.9523   20.6210 N.am    1  UNL1       -0.2738
     15 C           0.0602    2.5748   21.0450 C.2     1  UNL1        0.2551
     16 O          -1.3107    2.0680   20.7075 O.2     1  UNL1       -0.2694
     17 C           1.0152    1.7042   21.8065 C.ar    1  UNL1        0.0830
     18 C           1.0900    1.5724   23.2988 C.ar    1  UNL1        0.0115
     19 C           2.1842    0.5993   23.6240 C.ar    1  UNL1        0.0071
     20 C           2.7857    0.1296   22.3326 C.ar    1  UNL1        0.0296
     21 S           2.0632    0.8125   21.2094 S.2     1  UNL1       -0.0824
     22 C           3.9119   -0.8508   22.1896 C.ar    1  UNL1        0.0060
     23 C           3.7537   -2.2539   22.6957 C.ar    1  UNL1        0.0004
     24 C           4.8799   -3.2343   22.5527 C.ar    1  UNL1        0.0039
     25 C           6.1644   -2.8115   21.9035 C.ar    1  UNL1        0.0714
     26 C           6.3226   -1.4084   21.3974 C.ar    1  UNL1        0.0039
     27 C           5.1964   -0.4281   21.5404 C.ar    1  UNL1        0.0004
     28 C           7.2906   -3.7920   21.7605 C.3     1  UNL1        0.4186
     29 F           8.4168   -4.7724   21.6175 F       1  UNL1       -0.1659
     30 F           7.9165   -2.9201   20.7126 F       1  UNL1       -0.1659
     31 F           6.6647   -4.6638   22.8083 F       1  UNL1       -0.1659
     32 N           5.6859    0.6852   17.1402 N.3     1  UNL1       -0.2982
     33 H           6.4530    0.5022   16.4934 H       1  UNL1        0.1232
     34 C           5.2471   -0.6442   17.6789 C.3     1  UNL1        0.0540
     35 C           6.2033   -1.7997   17.6944 C.3     1  UNL1        0.0157
     36 C           5.7646   -3.1291   18.2330 C.3     1  UNL1        0.0014
     37 C           4.3696   -3.3030   18.7561 C.3     1  UNL1        0.0001
     38 C           3.1608   -3.9572   19.3571 C.3     1  UNL1        0.0000
     39 C           4.9061   -4.6858   18.9803 C.3     1  UNL1        0.0000
     40 C           3.4133   -2.1475   18.7406 C.3     1  UNL1        0.0014
     41 C           3.8520   -0.8181   18.2019 C.3     1  UNL1        0.0157
@<TRIPOS>BOND
     1    13    14    1
     2    14    15   am
     3    15    16    2
     4    15    17    1
     5    17    18   ar
     6    18    19   ar
     7    19    20   ar
     8    20    22    1
     9    22    23   ar
    10    23    24   ar
    11    24    25   ar
    12    25    28    1
    13    28    29    1
    14    28    30    1
    15    28    31    1
    16    25    26   ar
    17    26    27   ar
    18    20    21   ar
    19     1    14    1
    20     1     2    1
    21     2     3    1
    22     3     4    1
    23     4     5   am
    24     5     6    2
    25     5     7   am
    26     7     8    1
    27     8     9    1
    28     9    10    1
    29    10    32    1
    30    32    34    1
    31    34    35    1
    32    35    36    1
    33    36    37    1
    34    37    38    1
    35    37    39    1
    36    37    40    1
    37    40    41    1
    38    10    11    1
    39     4    12    1
    40    21    17   ar
    41    12     1    1
    42    27    22   ar
    43    11     7    1
    44    41    34    1
    45    32    33    1
@<TRIPOS>MOLECULE
*****
 41 45 0 0 0
SMALL
GASTEIGER

@<TRIPOS>ATOM
      1 C          -1.5158    4.8506   23.3627 C.3     1  UNL1        0.0972
      2 C          -1.3408    6.3400   23.3973 C.3     1  UNL1        0.0431
      3 C           0.0687    6.6314   23.8193 C.3     1  UNL1        0.0968
      4 N           0.7649    5.3222   24.0455 N.am    1  UNL1       -0.2623
      5 C           2.1902    5.1446   24.4781 C.2     1  UNL1        0.3073
      6 O           3.0544    6.3457   24.7243 O.2     1  UNL1       -0.2523
      7 N           2.7512    3.7660   24.6644 N.am    1  UNL1       -0.2626
      8 C           4.1504    3.4338   25.0909 C.3     1  UNL1        0.0964
      9 C           4.2756    1.9401   25.1470 C.3     1  UNL1        0.0390
     10 C           2.9537    1.3491   24.7551 C.3     1  UNL1        0.0758
     11 C           2.0117    2.4776   24.4568 C.3     1  UNL1        0.1106
     12 C          -0.2145    4.2215   23.7633 C.3     1  UNL1        0.1147
     13 C          -3.9219    4.0688   23.9540 C.3     1  UNL1        0.1152
     14 N          -2.7718    4.1188   22.9924 N.am    1  UNL1       -0.2738
     15 C          -2.8777    3.4371   21.6605 C.2     1  UNL1        0.2551
     16 O          -4.1336    2.7053   21.2901 O.2     1  UNL1       -0.2694
     17 C          -1.7276    3.4872   20.6988 C.ar    1  UNL1        0.0830
     18 C          -1.4496    4.5830   19.7129 C.ar    1  UNL1        0.0115
     19 C          -0.2038    4.2233   18.9590 C.ar    1  UNL1        0.0071
     20 C           0.2883    2.9051   19.4789 C.ar    1  UNL1        0.0296
     21 S          -0.6535    2.4502   20.5541 S.2     1  UNL1       -0.0824
     22 C           1.5080    2.1708   19.0064 C.ar    1  UNL1        0.0060
     23 C           1.3684    0.8296   18.3495 C.ar    1  UNL1        0.0004
     24 C           2.5881    0.0953   17.8771 C.ar    1  UNL1        0.0039
     25 C           3.9473    0.7022   18.0617 C.ar    1  UNL1        0.0714
     26 C           4.0869    2.0434   18.7186 C.ar    1  UNL1        0.0039
     27 C           2.8672    2.7777   19.1910 C.ar    1  UNL1        0.0004
     28 C           5.1670   -0.0321   17.5893 C.3     1  UNL1        0.4186
     29 F           6.3867   -0.7664   17.1169 F       1  UNL1       -0.1659
     30 F           4.4189   -0.4928   16.3736 F       1  UNL1       -0.1659
     31 F           5.9152    0.4286   18.8049 F       1  UNL1       -0.1659
     32 N           2.6307   -0.1135   24.6755 N.3     1  UNL1       -0.2982
     33 H           1.6138   -0.1897   24.6540 H       1  UNL1        0.1232
     34 C           3.1508   -0.9354   23.5334 C.3     1  UNL1        0.0540
     35 C           4.1594   -2.0165   23.7858 C.3     1  UNL1        0.0157
     36 C           4.6795   -2.8384   22.6438 C.3     1  UNL1        0.0014
     37 C           4.1910   -2.5790   21.2496 C.3     1  UNL1        0.0001
     38 C           4.0338   -2.7112   19.7636 C.3     1  UNL1        0.0000
     39 C           5.1451   -3.7061   20.9859 C.3     1  UNL1        0.0000
     40 C           3.1823   -1.4979   20.9972 C.3     1  UNL1        0.0014
     41 C           2.6623   -0.6761   22.1392 C.3     1  UNL1        0.0157
@<TRIPOS>BOND
     1    13    14    1
     2    14    15   am
     3    15    16    2
     4    15    17    1
     5    17    18   ar
     6    18    19   ar
     7    19    20   ar
     8    20    22    1
     9    22    23   ar
    10    23    24   ar
    11    24    25   ar
    12    25    28    1
    13    28    29    1
    14    28    30    1
    15    28    31    1
    16    25    26   ar
    17    26    27   ar
    18    20    21   ar
    19     1    14    1
    20     1     2    1
    21     2     3    1
    22     3     4    1
    23     4     5   am
    24     5     6    2
    25     5     7   am
    26     7     8    1
    27     8     9    1
    28     9    10    1
    29    10    32    1
    30    32    34    1
    31    34    35    1
    32    35    36    1
    33    36    37    1
    34    37    38    1
    35    37    39    1
    36    37    40    1
    37    40    41    1
    38    10    11    1
    39     4    12    1
    40    21    17   ar
    41    12     1    1
    42    27    22   ar
    43    11     7    1
    44    41    34    1
    45    32    33    1
@<TRIPOS>MOLECULE
*****
 41 45 0 0 0
SMALL
GASTEIGER

@<TRIPOS>ATOM
      1 C           2.4693    3.2780   27.4864 C.3     1  UNL1        0.0972
      2 C           1.2683    3.1655   28.3780 C.3     1  UNL1        0.0431
      3 C           0.0576    3.0065   27.5069 C.3     1  UNL1        0.0968
      4 N           0.5103    3.0207   26.0769 N.am    1  UNL1       -0.2623
      5 C          -0.3725    2.8900   24.8713 C.2     1  UNL1        0.3073
      6 O          -1.8539    2.7272   25.0406 O.2     1  UNL1       -0.2523
      7 N           0.2263    2.9220   23.4963 N.am    1  UNL1       -0.2626
      8 C          -0.5262    2.8038   22.2040 C.3     1  UNL1        0.0964
      9 C           0.4650    2.8866   21.0812 C.3     1  UNL1        0.0390
     10 C           1.8301    3.0561   21.6796 C.3     1  UNL1        0.0758
     11 C           1.6825    3.0779   23.1722 C.3     1  UNL1        0.1106
     12 C           2.0009    3.1885   26.0642 C.3     1  UNL1        0.1147
     13 C           4.3083    4.7118   28.6320 C.3     1  UNL1        0.1152
     14 N           3.8895    3.4499   27.9377 N.am    1  UNL1       -0.2738
     15 C           4.8908    2.3597   27.6948 C.2     1  UNL1        0.2551
     16 O           6.3109    2.5315   28.1461 O.2     1  UNL1       -0.2694
     17 C           4.4720    1.0978   27.0005 C.ar    1  UNL1        0.0830
     18 C           3.8392   -0.0974   27.6496 C.ar    1  UNL1        0.0115
     19 C           3.5885   -1.1244   26.5855 C.ar    1  UNL1        0.0071
     20 C           4.0663   -0.5640   25.2787 C.ar    1  UNL1        0.0296
     21 S           4.6123    0.8093   25.5352 S.2     1  UNL1       -0.0824
     22 C           4.0084   -1.2556   23.9489 C.ar    1  UNL1        0.0060
     23 C           3.1632   -0.6907   22.8459 C.ar    1  UNL1        0.0004
     24 C           3.1052   -1.3823   21.5162 C.ar    1  UNL1        0.0039
     25 C           3.8925   -2.6388   21.2893 C.ar    1  UNL1        0.0714
     26 C           4.7377   -3.2037   22.3922 C.ar    1  UNL1        0.0039
     27 C           4.7956   -2.5121   23.7220 C.ar    1  UNL1        0.0004
     28 C           3.8345   -3.3303   19.9595 C.3     1  UNL1        0.4186
     29 F           3.7766   -4.0219   18.6297 F       1  UNL1       -0.1659
     30 F           2.6354   -2.5105   19.5853 F       1  UNL1       -0.1659
     31 F           5.0336   -4.1502   20.3336 F       1  UNL1       -0.1659
     32 N           3.1168    3.1816   20.9189 N.3     1  UNL1       -0.2982
     33 H           3.8588    3.2873   21.6108 H       1  UNL1        0.1232
     34 C           3.5466    2.0879   19.9866 C.3     1  UNL1        0.0540
     35 C           2.6054    1.5900   18.9302 C.3     1  UNL1        0.0157
     36 C           3.0352    0.4963   17.9979 C.3     1  UNL1        0.0014
     37 C           4.4062   -0.0994   18.1220 C.3     1  UNL1        0.0001
     38 C           5.5936   -0.9735   17.8459 C.3     1  UNL1        0.0000
     39 C           3.8773   -0.9009   16.9697 C.3     1  UNL1        0.0000
     40 C           5.3475    0.3986   19.1785 C.3     1  UNL1        0.0014
     41 C           4.9177    1.4922   20.1107 C.3     1  UNL1        0.0157
@<TRIPOS>BOND
     1    13    14    1
     2    14    15   am
     3    15    16    2
     4    15    17    1
     5    17    18   ar
     6    18    19   ar
     7    19    20   ar
     8    20    22    1
     9    22    23   ar
    10    23    24   ar
    11    24    25   ar
    12    25    28    1
    13    28    29    1
    14    28    30    1
    15    28    31    1
    16    25    26   ar
    17    26    27   ar
    18    20    21   ar
    19     1    14    1
    20     1     2    1
    21     2     3    1
    22     3     4    1
    23     4     5   am
    24     5     6    2
    25     5     7   am
    26     7     8    1
    27     8     9    1
    28     9    10    1
    29    10    32    1
    30    32    34    1
    31    34    35    1
    32    35    36    1
    33    36    37    1
    34    37    38    1
    35    37    39    1
    36    37    40    1
    37    40    41    1
    38    10    11    1
    39     4    12    1
    40    21    17   ar
    41    12     1    1
    42    27    22   ar
    43    11     7    1
    44    41    34    1
    45    32    33    1
@<TRIPOS>MOLECULE
*****
 41 45 0 0 0
SMALL
GASTEIGER

@<TRIPOS>ATOM
      1 C           6.4198   -0.6580   31.0969 C.3     1  UNL1        0.0972
      2 C           6.9445    0.6774   31.5343 C.3     1  UNL1        0.0431
      3 C           7.3712    1.4314   30.3099 C.3     1  UNL1        0.0968
      4 N           7.1102    0.5620   29.1157 N.am    1  UNL1       -0.2623
      5 C           7.3883    0.9210   27.6861 C.2     1  UNL1        0.3073
      6 O           7.9817    2.2569   27.3501 O.2     1  UNL1       -0.2523
      7 N           7.0729   -0.0561   26.5925 N.am    1  UNL1       -0.2626
      8 C           7.2947    0.1613   25.1250 C.3     1  UNL1        0.0964
      9 C           6.8393   -1.0703   24.3999 C.3     1  UNL1        0.0390
     10 C           6.3361   -2.0489   25.4193 C.3     1  UNL1        0.0758
     11 C           6.4805   -1.4221   26.7744 C.3     1  UNL1        0.1106
     12 C           6.5222   -0.7294   29.6022 C.3     1  UNL1        0.1147
     13 C           6.7949   -2.8234   32.4829 C.3     1  UNL1        0.1152
     14 N           5.8864   -1.7334   31.9965 N.am    1  UNL1       -0.2738
     15 C           4.4445   -1.7187   32.4096 C.2     1  UNL1        0.2551
     16 O           3.9110   -2.7941   33.3091 O.2     1  UNL1       -0.2694
     17 C           3.5360   -0.6288   31.9232 C.ar    1  UNL1        0.0830
     18 C           3.1630    0.6115   32.6800 C.ar    1  UNL1        0.0115
     19 C           2.2375    1.4191   31.8192 C.ar    1  UNL1        0.0071
     20 C           2.0384    0.6781   30.5303 C.ar    1  UNL1        0.0296
     21 S           2.8410   -0.5876   30.5946 S.2     1  UNL1       -0.0824
     22 C           1.1864    1.1243   29.3791 C.ar    1  UNL1        0.0060
     23 C           1.6425    2.2520   28.5014 C.ar    1  UNL1        0.0004
     24 C           0.7905    2.6982   27.3504 C.ar    1  UNL1        0.0039
     25 C          -0.5175    2.0167   27.0770 C.ar    1  UNL1        0.0714
     26 C          -0.9735    0.8890   27.9547 C.ar    1  UNL1        0.0039
     27 C          -0.1215    0.4428   29.1058 C.ar    1  UNL1        0.0004
     28 C          -1.3695    2.4629   25.9259 C.3     1  UNL1        0.4186
     29 F          -2.2214    2.9091   24.7747 F       1  UNL1       -0.1659
     30 F          -2.2484    3.2259   26.8721 F       1  UNL1       -0.1659
     31 F          -0.4906    1.6999   24.9797 F       1  UNL1       -0.1659
     32 N           5.7852   -3.4146   25.1338 N.3     1  UNL1       -0.2982
     33 H           5.3074   -3.3572   24.2344 H       1  UNL1        0.1232
     34 C           6.7078   -4.5950   25.0595 C.3     1  UNL1        0.0540
     35 C           7.4052   -4.9219   23.7724 C.3     1  UNL1        0.0157
     36 C           8.3278   -6.1022   23.6980 C.3     1  UNL1        0.0014
     37 C           8.5529   -6.9557   24.9108 C.3     1  UNL1        0.0001
     38 C           9.0844   -8.0555   25.7816 C.3     1  UNL1        0.0000
     39 C           9.4350   -7.6645   23.9260 C.3     1  UNL1        0.0000
     40 C           7.8554   -6.6289   26.1979 C.3     1  UNL1        0.0014
     41 C           6.9329   -5.4485   26.2722 C.3     1  UNL1        0.0157
@<TRIPOS>BOND
     1    13    14    1
     2    14    15   am
     3    15    16    2
     4    15    17    1
     5    17    18   ar
     6    18    19   ar
     7    19    20   ar
     8    20    22    1
     9    22    23   ar
    10    23    24   ar
    11    24    25   ar
    12    25    28    1
    13    28    29    1
    14    28    30    1
    15    28    31    1
    16    25    26   ar
    17    26    27   ar
    18    20    21   ar
    19     1    14    1
    20     1     2    1
    21     2     3    1
    22     3     4    1
    23     4     5   am
    24     5     6    2
    25     5     7   am
    26     7     8    1
    27     8     9    1
    28     9    10    1
    29    10    32    1
    30    32    34    1
    31    34    35    1
    32    35    36    1
    33    36    37    1
    34    37    38    1
    35    37    39    1
    36    37    40    1
    37    40    41    1
    38    10    11    1
    39     4    12    1
    40    21    17   ar
    41    12     1    1
    42    27    22   ar
    43    11     7    1
    44    41    34    1
    45    32    33    1
@<TRIPOS>MOLECULE
*****
 41 45 0 0 0
SMALL
GASTEIGER

@<TRIPOS>ATOM
      1 C           6.4184   -0.5368   31.2878 C.3     1  UNL1        0.0972
      2 C           7.1952    0.6107   31.8620 C.3     1  UNL1        0.0431
      3 C           7.5919    1.5136   30.7318 C.3     1  UNL1        0.0968
      4 N           7.0602    0.9241   29.4591 N.am    1  UNL1       -0.2623
      5 C           7.2249    1.5006   28.0842 C.2     1  UNL1        0.3073
      6 O           7.9800    2.7826   27.8939 O.2     1  UNL1       -0.2523
      7 N           6.6345    0.7950   26.8994 N.am    1  UNL1       -0.2626
      8 C           6.7171    1.2484   25.4719 C.3     1  UNL1        0.0964
      9 C           5.9915    0.2458   24.6244 C.3     1  UNL1        0.0390
     10 C           5.4605   -0.8272   25.5281 C.3     1  UNL1        0.0758
     11 C           5.8579   -0.4878   26.9341 C.3     1  UNL1        0.1106
     12 C           6.3349   -0.3432   29.8027 C.3     1  UNL1        0.1147
     13 C           6.7084   -2.7955   32.5386 C.3     1  UNL1        0.1152
     14 N           5.8285   -1.6778   32.0627 N.am    1  UNL1       -0.2738
     15 C           4.3588   -1.7009   32.3617 C.2     1  UNL1        0.2551
     16 O           3.7689   -2.8418   33.1365 O.2     1  UNL1       -0.2694
     17 C           3.4789   -0.5832   31.8857 C.ar    1  UNL1        0.0830
     18 C           3.1960    0.6917   32.6239 C.ar    1  UNL1        0.0115
     19 C           2.2697    1.5187   31.7825 C.ar    1  UNL1        0.0071
     20 C           1.9801    0.7550   30.5243 C.ar    1  UNL1        0.0296
     21 S           2.7274   -0.5440   30.5882 S.2     1  UNL1       -0.0824
     22 C           1.0980    1.2104   29.3997 C.ar    1  UNL1        0.0060
     23 C           1.4112    2.4823   28.6688 C.ar    1  UNL1        0.0004
     24 C           0.5291    2.9376   27.5442 C.ar    1  UNL1        0.0039
     25 C          -0.6661    2.1211   27.1507 C.ar    1  UNL1        0.0714
     26 C          -0.9792    0.8492   27.8816 C.ar    1  UNL1        0.0039
     27 C          -0.0971    0.3939   29.0062 C.ar    1  UNL1        0.0004
     28 C          -1.5481    2.5765   26.0261 C.3     1  UNL1        0.4186
     29 F          -2.4302    3.0318   24.9016 F       1  UNL1       -0.1659
     30 F          -0.5532    2.0525   25.0334 F       1  UNL1       -0.1659
     31 F          -2.5431    3.1004   27.0187 F       1  UNL1       -0.1659
     32 N           4.6707   -2.0288   25.1007 N.3     1  UNL1       -0.2982
     33 H           3.7552   -1.9522   25.5439 H       1  UNL1        0.1232
     34 C           4.4261   -2.2859   23.6432 C.3     1  UNL1        0.0540
     35 C           5.0303   -3.4891   22.9823 C.3     1  UNL1        0.0157
     36 C           4.7857   -3.7463   21.5249 C.3     1  UNL1        0.0014
     37 C           3.9368   -2.8002   20.7285 C.3     1  UNL1        0.0001
     38 C           3.2102   -2.1995   19.5617 C.3     1  UNL1        0.0000
     39 C           4.2887   -3.7949   19.6622 C.3     1  UNL1        0.0000
     40 C           3.3326   -1.5969   21.3895 C.3     1  UNL1        0.0014
     41 C           3.5772   -1.3398   22.8469 C.3     1  UNL1        0.0157
@<TRIPOS>BOND
     1    13    14    1
     2    14    15   am
     3    15    16    2
     4    15    17    1
     5    17    18   ar
     6    18    19   ar
     7    19    20   ar
     8    20    22    1
     9    22    23   ar
    10    23    24   ar
    11    24    25   ar
    12    25    28    1
    13    28    29    1
    14    28    30    1
    15    28    31    1
    16    25    26   ar
    17    26    27   ar
    18    20    21   ar
    19     1    14    1
    20     1     2    1
    21     2     3    1
    22     3     4    1
    23     4     5   am
    24     5     6    2
    25     5     7   am
    26     7     8    1
    27     8     9    1
    28     9    10    1
    29    10    32    1
    30    32    34    1
    31    34    35    1
    32    35    36    1
    33    36    37    1
    34    37    38    1
    35    37    39    1
    36    37    40    1
    37    40    41    1
    38    10    11    1
    39     4    12    1
    40    21    17   ar
    41    12     1    1
    42    27    22   ar
    43    11     7    1
    44    41    34    1
    45    32    33    1
@<TRIPOS>MOLECULE
*****
 41 45 0 0 0
SMALL
GASTEIGER

@<TRIPOS>ATOM
      1 C           3.9544   -0.3032   27.5724 C.3     1  UNL1        0.0972
      2 C           4.9879    0.0208   28.6101 C.3     1  UNL1        0.0431
      3 C           6.2818   -0.6098   28.1883 C.3     1  UNL1        0.0968
      4 N           6.0480   -1.3235   26.8898 N.am    1  UNL1       -0.2623
      5 C           7.0728   -2.0918   26.1091 C.2     1  UNL1        0.3073
      6 O           8.4802   -2.1954   26.6174 O.2     1  UNL1       -0.2523
      7 N           6.6900   -2.7566   24.8200 N.am    1  UNL1       -0.2626
      8 C           7.6011   -3.5546   23.9350 C.3     1  UNL1        0.0964
      9 C           6.8032   -4.0312   22.7577 C.3     1  UNL1        0.0390
     10 C           5.3990   -3.5278   22.9150 C.3     1  UNL1        0.0758
     11 C           5.3290   -2.7401   24.1896 C.3     1  UNL1        0.1106
     12 C           4.6095   -1.1340   26.5092 C.3     1  UNL1        0.1147
     13 C           1.5820   -0.4324   28.6238 C.3     1  UNL1        0.1152
     14 N           2.5178    0.1280   27.5942 N.am    1  UNL1       -0.2738
     15 C           2.0170    1.1195   26.5862 C.2     1  UNL1        0.2551
     16 O           0.5805    1.5507   26.6078 O.2     1  UNL1       -0.2694
     17 C           2.9528    1.6799   25.5565 C.ar    1  UNL1        0.0830
     18 C           3.6643    2.9981   25.6360 C.ar    1  UNL1        0.0115
     19 C           4.4926    3.1534   24.3952 C.ar    1  UNL1        0.0071
     20 C           4.2930    1.9313   23.5487 C.ar    1  UNL1        0.0296
     21 S           3.3414    1.0206   24.2664 S.2     1  UNL1       -0.0824
     22 C           4.9328    1.6663   22.2180 C.ar    1  UNL1        0.0060
     23 C           4.6817    2.5947   21.0669 C.ar    1  UNL1        0.0004
     24 C           5.3215    2.3296   19.7364 C.ar    1  UNL1        0.0039
     25 C           6.2122    1.1362   19.5569 C.ar    1  UNL1        0.0714
     26 C           6.4633    0.2078   20.7079 C.ar    1  UNL1        0.0039
     27 C           5.8235    0.4728   22.0385 C.ar    1  UNL1        0.0004
     28 C           6.8520    0.8712   18.2262 C.3     1  UNL1        0.4186
     29 F           7.4917    0.6061   16.8957 F       1  UNL1       -0.1659
     30 F           6.2363    2.1253   17.6804 F       1  UNL1       -0.1659
     31 F           7.4676   -0.3830   18.7721 F       1  UNL1       -0.1659
     32 N           4.2640   -3.7697   21.9646 N.3     1  UNL1       -0.2982
     33 H           3.4086   -3.7647   22.5202 H       1  UNL1        0.1232
     34 C           4.0379   -2.8353   20.8131 C.3     1  UNL1        0.0540
     35 C           3.1405   -1.6449   20.9783 C.3     1  UNL1        0.0157
     36 C           2.9144   -0.7105   19.8269 C.3     1  UNL1        0.0014
     37 C           3.5857   -0.9667   18.5102 C.3     1  UNL1        0.0001
     38 C           3.9947   -0.7878   17.0781 C.3     1  UNL1        0.0000
     39 C           2.8303    0.2860   18.1781 C.3     1  UNL1        0.0000
     40 C           4.4831   -2.1572   18.3449 C.3     1  UNL1        0.0014
     41 C           4.7092   -3.0915   19.4964 C.3     1  UNL1        0.0157
@<TRIPOS>BOND
     1    13    14    1
     2    14    15   am
     3    15    16    2
     4    15    17    1
     5    17    18   ar
     6    18    19   ar
     7    19    20   ar
     8    20    22    1
     9    22    23   ar
    10    23    24   ar
    11    24    25   ar
    12    25    28    1
    13    28    29    1
    14    28    30    1
    15    28    31    1
    16    25    26   ar
    17    26    27   ar
    18    20    21   ar
    19     1    14    1
    20     1     2    1
    21     2     3    1
    22     3     4    1
    23     4     5   am
    24     5     6    2
    25     5     7   am
    26     7     8    1
    27     8     9    1
    28     9    10    1
    29    10    32    1
    30    32    34    1
    31    34    35    1
    32    35    36    1
    33    36    37    1
    34    37    38    1
    35    37    39    1
    36    37    40    1
    37    40    41    1
    38    10    11    1
    39     4    12    1
    40    21    17   ar
    41    12     1    1
    42    27    22   ar
    43    11     7    1
    44    41    34    1
    45    32    33    1
