@<TRIPOS>MOLECULE
*****
 32 37 0 0 0
SMALL
GASTEIGER

@<TRIPOS>ATOM
      1 C           7.4765   -4.8410   23.5425 C.ar    1  UNL1        0.0028
      2 C           6.1636   -4.1539   23.3097 C.ar    1  UNL1        0.0002
      3 C           5.9748   -3.2875   22.0999 C.ar    1  UNL1        0.0029
      4 C           7.0988   -3.1082   21.1229 C.ar    1  UNL1        0.0349
      5 C           6.9099   -2.2418   19.9130 C.ar    1  UNL1        0.1535
      6 N           8.0339   -2.0625   18.9360 N.ar    1  UNL1       -0.1329
      7 N           9.3468   -2.7497   19.1689 N.ar    1  UNL1       -0.1452
      8 C           9.5356   -3.6161   20.3787 C.ar    1  UNL1        0.1222
      9 C           8.4116   -3.7953   21.3557 C.ar    1  UNL1        0.0237
     10 C           8.6005   -4.6617   22.5655 C.ar    1  UNL1        0.0018
     11 C           8.7790   -7.5301   23.2732 C.3     1  UNL1        0.0311
     12 C           8.3166   -7.0519   24.6177 C.ar    1  UNL1       -0.0188
     13 C           8.5056   -7.9183   25.8276 C.ar    1  UNL1       -0.0040
     14 C           8.0432   -7.4402   27.1720 C.ar    1  UNL1        0.0057
     15 C           7.3920   -6.0956   27.3067 C.ar    1  UNL1        0.0717
     16 C           6.8389   -5.3625   28.4927 C.ar    1  UNL1        0.1704
     17 N           6.3082   -4.0431   28.0159 N.ar    1  UNL1       -0.0621
     18 O           6.5333   -3.9607   26.5352 O.2     1  UNL1       -0.3522
     19 C           7.2031   -5.2293   26.0968 C.ar    1  UNL1        0.1777
     20 C           7.6654   -5.7074   24.7524 C.ar    1  UNL1        0.0333
     21 N           6.8199   -5.8613   29.9072 N.pl3   1  UNL1       -0.3171
     22 H           5.9621   -6.0598   30.3476 H       1  UNL1        0.1482
     23 C           8.1078   -6.0576   30.6506 C.3     1  UNL1        0.0706
     24 C           9.3039   -5.4841   31.3509 C.3     1  UNL1        0.0212
     25 C           9.1424   -6.9711   31.2380 C.3     1  UNL1        0.0212
     26 N           5.5970   -1.5547   19.6802 N.pl3   1  UNL1       -0.2884
     27 C           5.4153   -0.1244   20.0939 C.3     1  UNL1        0.1242
     28 C           4.1024    0.5628   19.8611 C.3     1  UNL1        0.1636
     29 O           2.9712   -0.1805   19.2145 O.3     1  UNL1       -0.3502
     30 C           3.1529   -1.6108   18.8008 C.3     1  UNL1        0.1618
     31 C           4.4658   -2.2979   19.0336 C.3     1  UNL1        0.1039
     32 C           4.6475   -3.7282   18.6199 C.3     1  UNL1        0.0241
@<TRIPOS>BOND
     1    11    12    1
     2    12    13   ar
     3    13    14   ar
     4    14    15   ar
     5    15    16   ar
     6    16    21    1
     7    21    23    1
     8    23    24    1
     9    24    25    1
    10    16    17   ar
    11    17    18   ar
    12    18    19   ar
    13    19    20   ar
    14    20     1    1
    15     1     2   ar
    16     2     3   ar
    17     3     4   ar
    18     4     5   ar
    19     5    26    1
    20    26    27    1
    21    27    28    1
    22    28    29    1
    23    29    30    1
    24    30    31    1
    25    31    32    1
    26     5     6   ar
    27     6     7   ar
    28     7     8   ar
    29     8     9   ar
    30     9    10   ar
    31    20    12   ar
    32    10     1   ar
    33    19    15   ar
    34     9     4   ar
    35    25    23    1
    36    31    26    1
    37    21    22    1
@<TRIPOS>MOLECULE
*****
 32 37 0 0 0
SMALL
GASTEIGER

@<TRIPOS>ATOM
      1 C           2.9205    0.3607   21.7532 C.ar    1  UNL1        0.0028
      2 C           3.9125    1.3151   21.1573 C.ar    1  UNL1        0.0002
      3 C           4.8278    0.8576   20.0606 C.ar    1  UNL1        0.0029
      4 C           4.7511   -0.5542   19.5598 C.ar    1  UNL1        0.0349
      5 C           5.6666   -1.0117   18.4630 C.ar    1  UNL1        0.1535
      6 N           5.5899   -2.4235   17.9621 N.ar    1  UNL1       -0.1329
      7 N           4.5979   -3.3779   18.5580 N.ar    1  UNL1       -0.1452
      8 C           3.6825   -2.9204   19.6548 C.ar    1  UNL1        0.1222
      9 C           3.7592   -1.5086   20.1556 C.ar    1  UNL1        0.0237
     10 C           2.8438   -1.0511   21.2523 C.ar    1  UNL1        0.0018
     11 C           0.3599    1.7711   21.0794 C.3     1  UNL1        0.0311
     12 C           0.7248    1.5233   22.5131 C.ar    1  UNL1       -0.0188
     13 C          -0.1906    1.9808   23.6099 C.ar    1  UNL1       -0.0040
     14 C           0.1744    1.7330   25.0435 C.ar    1  UNL1        0.0057
     15 C           1.4547    1.0277   25.3804 C.ar    1  UNL1        0.0717
     16 C           2.0753    0.6457   26.6915 C.ar    1  UNL1        0.1704
     17 N           3.3740   -0.0477   26.4051 N.ar    1  UNL1       -0.0621
     18 O           3.5563   -0.0943   24.9169 O.2     1  UNL1       -0.3522
     19 C           2.3700    0.5703   24.2837 C.ar    1  UNL1        0.1777
     20 C           2.0051    0.8181   22.8500 C.ar    1  UNL1        0.0333
     21 N           1.4982    0.9107   28.0505 N.pl3   1  UNL1       -0.3171
     22 H           2.0459    1.3498   28.7407 H       1  UNL1        0.1482
     23 C           0.0867    0.5068   28.3577 C.3     1  UNL1        0.0706
     24 C          -1.3501    0.8744   28.5820 C.3     1  UNL1        0.0212
     25 C          -0.9213   -0.5605   28.6657 C.3     1  UNL1        0.0212
     26 N           6.6585   -0.0573   17.8671 N.pl3   1  UNL1       -0.2884
     27 C           6.3449    0.6426   16.5780 C.3     1  UNL1        0.1242
     28 C           7.3370    1.5970   15.9821 C.3     1  UNL1        0.1636
     29 O           8.6426    1.8515   16.6754 O.3     1  UNL1       -0.3502
     30 C           8.9562    1.1516   17.9645 C.3     1  UNL1        0.1618
     31 C           7.9642    0.1972   18.5603 C.3     1  UNL1        0.1039
     32 C           8.2778   -0.5027   19.8494 C.3     1  UNL1        0.0241
@<TRIPOS>BOND
     1    11    12    1
     2    12    13   ar
     3    13    14   ar
     4    14    15   ar
     5    15    16   ar
     6    16    21    1
     7    21    23    1
     8    23    24    1
     9    24    25    1
    10    16    17   ar
    11    17    18   ar
    12    18    19   ar
    13    19    20   ar
    14    20     1    1
    15     1     2   ar
    16     2     3   ar
    17     3     4   ar
    18     4     5   ar
    19     5    26    1
    20    26    27    1
    21    27    28    1
    22    28    29    1
    23    29    30    1
    24    30    31    1
    25    31    32    1
    26     5     6   ar
    27     6     7   ar
    28     7     8   ar
    29     8     9   ar
    30     9    10   ar
    31    20    12   ar
    32    10     1   ar
    33    19    15   ar
    34     9     4   ar
    35    25    23    1
    36    31    26    1
    37    21    22    1
@<TRIPOS>MOLECULE
*****
 32 37 0 0 0
SMALL
GASTEIGER

@<TRIPOS>ATOM
      1 C           2.7154    0.6044   18.9094 C.ar    1  UNL1        0.0028
      2 C           1.2449    0.5161   18.6272 C.ar    1  UNL1        0.0002
      3 C           0.4574    1.7633   18.3546 C.ar    1  UNL1        0.0029
      4 C           1.1404    3.0987   18.3641 C.ar    1  UNL1        0.0349
      5 C           0.3529    4.3459   18.0915 C.ar    1  UNL1        0.1535
      6 N           1.0359    5.6814   18.1010 N.ar    1  UNL1       -0.1329
      7 N           2.5065    5.7696   18.3832 N.ar    1  UNL1       -0.1452
      8 C           3.2940    4.5224   18.6558 C.ar    1  UNL1        0.1222
      9 C           2.6110    3.1870   18.6463 C.ar    1  UNL1        0.0237
     10 C           3.3985    1.9398   18.9189 C.ar    1  UNL1        0.0018
     11 C           3.9922   -0.8892   16.6424 C.3     1  UNL1        0.0311
     12 C           4.1414   -1.3896   18.0486 C.ar    1  UNL1       -0.0188
     13 C           4.9289   -2.6368   18.3213 C.ar    1  UNL1       -0.0040
     14 C           5.0781   -3.1371   19.7274 C.ar    1  UNL1        0.0057
     15 C           4.4398   -2.3903   20.8610 C.ar    1  UNL1        0.0717
     16 C           4.4145   -2.6404   22.3397 C.ar    1  UNL1        0.1704
     17 N           3.6114   -1.5479   22.9810 N.ar    1  UNL1       -0.0621
     18 O           3.1403   -0.6225   21.8985 O.2     1  UNL1       -0.3522
     19 C           3.6522   -1.1432   20.5883 C.ar    1  UNL1        0.1777
     20 C           3.5030   -0.6428   19.1821 C.ar    1  UNL1        0.0333
     21 N           5.0763   -3.7825   23.0522 N.pl3   1  UNL1       -0.3171
     22 H           4.5371   -4.4043   23.5926 H       1  UNL1        0.1482
     23 C           6.5594   -3.9774   22.9413 C.3     1  UNL1        0.0706
     24 C           7.9072   -4.0878   23.5903 C.3     1  UNL1        0.0212
     25 C           7.7805   -4.2045   22.1002 C.3     1  UNL1        0.0212
     26 N          -1.1177    4.2577   17.8093 N.pl3   1  UNL1       -0.2884
     27 C          -1.6035    4.1221   16.3966 C.3     1  UNL1        0.1242
     28 C          -3.0741    4.0338   16.1145 C.3     1  UNL1        0.1636
     29 O          -4.0589    4.0811   17.2450 O.3     1  UNL1       -0.3502
     30 C          -3.5730    4.2167   18.6576 C.3     1  UNL1        0.1618
     31 C          -2.1025    4.3050   18.9398 C.3     1  UNL1        0.1039
     32 C          -1.6167    4.4405   20.3525 C.3     1  UNL1        0.0241
@<TRIPOS>BOND
     1    11    12    1
     2    12    13   ar
     3    13    14   ar
     4    14    15   ar
     5    15    16   ar
     6    16    21    1
     7    21    23    1
     8    23    24    1
     9    24    25    1
    10    16    17   ar
    11    17    18   ar
    12    18    19   ar
    13    19    20   ar
    14    20     1    1
    15     1     2   ar
    16     2     3   ar
    17     3     4   ar
    18     4     5   ar
    19     5    26    1
    20    26    27    1
    21    27    28    1
    22    28    29    1
    23    29    30    1
    24    30    31    1
    25    31    32    1
    26     5     6   ar
    27     6     7   ar
    28     7     8   ar
    29     8     9   ar
    30     9    10   ar
    31    20    12   ar
    32    10     1   ar
    33    19    15   ar
    34     9     4   ar
    35    25    23    1
    36    31    26    1
    37    21    22    1
@<TRIPOS>MOLECULE
*****
 32 37 0 0 0
SMALL
GASTEIGER

@<TRIPOS>ATOM
      1 C           1.3880    2.0675   21.5728 C.ar    1  UNL1        0.0028
      2 C           1.5701    0.6251   21.9419 C.ar    1  UNL1        0.0002
      3 C           2.5483   -0.2246   21.1863 C.ar    1  UNL1        0.0029
      4 C           3.3444    0.3680   20.0616 C.ar    1  UNL1        0.0349
      5 C           4.3226   -0.4818   19.3060 C.ar    1  UNL1        0.1535
      6 N           5.1187    0.1108   18.1812 N.ar    1  UNL1       -0.1329
      7 N           4.9365    1.5532   17.8121 N.ar    1  UNL1       -0.1452
      8 C           3.9584    2.4030   18.5677 C.ar    1  UNL1        0.1222
      9 C           3.1623    1.8104   19.6924 C.ar    1  UNL1        0.0237
     10 C           2.1841    2.6601   20.4480 C.ar    1  UNL1        0.0018
     11 C           2.2747    3.5612   24.0188 C.3     1  UNL1        0.0311
     12 C           0.8531    3.6642   23.5514 C.ar    1  UNL1       -0.0188
     13 C          -0.1251    4.5140   24.3070 C.ar    1  UNL1       -0.0040
     14 C          -1.5467    4.6170   23.8396 C.ar    1  UNL1        0.0057
     15 C          -1.9900    3.8701   22.6166 C.ar    1  UNL1        0.0717
     16 C          -3.3163    3.7792   21.9219 C.ar    1  UNL1        0.1704
     17 N          -3.1579    2.8732   20.7370 N.ar    1  UNL1       -0.0621
     18 O          -1.7336    2.4042   20.6994 O.2     1  UNL1       -0.3522
     19 C          -1.0118    3.0203   21.8610 C.ar    1  UNL1        0.1777
     20 C           0.4098    2.9174   22.3284 C.ar    1  UNL1        0.0333
     21 N          -4.5794    4.4725   22.3389 N.pl3   1  UNL1       -0.3171
     22 H          -5.0485    5.0634   21.7064 H       1  UNL1        0.1482
     23 C          -5.1278    4.2656   23.7196 C.3     1  UNL1        0.0706
     24 C          -6.1845    4.5303   24.7508 C.3     1  UNL1        0.0212
     25 C          -5.0211    3.6424   25.0798 C.3     1  UNL1        0.0212
     26 N           4.5048   -1.9242   19.6751 N.pl3   1  UNL1       -0.2884
     27 C           3.6332   -2.9738   19.0516 C.3     1  UNL1        0.1242
     28 C           3.8154   -4.4163   19.4208 C.3     1  UNL1        0.1636
     29 O           4.8690   -4.8091   20.4134 O.3     1  UNL1       -0.3502
     30 C           5.7406   -3.7595   21.0369 C.3     1  UNL1        0.1618
     31 C           5.5585   -2.3171   20.6678 C.3     1  UNL1        0.1039
     32 C           6.4301   -1.2675   21.2913 C.3     1  UNL1        0.0241
@<TRIPOS>BOND
     1    11    12    1
     2    12    13   ar
     3    13    14   ar
     4    14    15   ar
     5    15    16   ar
     6    16    21    1
     7    21    23    1
     8    23    24    1
     9    24    25    1
    10    16    17   ar
    11    17    18   ar
    12    18    19   ar
    13    19    20   ar
    14    20     1    1
    15     1     2   ar
    16     2     3   ar
    17     3     4   ar
    18     4     5   ar
    19     5    26    1
    20    26    27    1
    21    27    28    1
    22    28    29    1
    23    29    30    1
    24    30    31    1
    25    31    32    1
    26     5     6   ar
    27     6     7   ar
    28     7     8   ar
    29     8     9   ar
    30     9    10   ar
    31    20    12   ar
    32    10     1   ar
    33    19    15   ar
    34     9     4   ar
    35    25    23    1
    36    31    26    1
    37    21    22    1
@<TRIPOS>MOLECULE
*****
 32 37 0 0 0
SMALL
GASTEIGER

@<TRIPOS>ATOM
      1 C           3.0320    2.0787   32.3563 C.ar    1  UNL1        0.0028
      2 C           2.2570    2.6497   33.5066 C.ar    1  UNL1        0.0002
      3 C           2.6354    2.2970   34.9145 C.ar    1  UNL1        0.0029
      4 C           3.7888    1.3732   35.1721 C.ar    1  UNL1        0.0349
      5 C           4.1672    1.0205   36.5802 C.ar    1  UNL1        0.1535
      6 N           5.3206    0.0968   36.8378 N.ar    1  UNL1       -0.1329
      7 N           6.0956   -0.4742   35.6874 N.ar    1  UNL1       -0.1452
      8 C           5.7172   -0.1215   34.2794 C.ar    1  UNL1        0.1222
      9 C           4.5638    0.8023   34.0218 C.ar    1  UNL1        0.0237
     10 C           4.1854    1.1550   32.6139 C.ar    1  UNL1        0.0018
     11 C           4.0370    4.6235   31.1256 C.3     1  UNL1        0.0311
     12 C           3.1561    3.7038   30.3329 C.ar    1  UNL1       -0.0188
     13 C           2.7777    4.0566   28.9249 C.ar    1  UNL1       -0.0040
     14 C           1.8969    3.1369   28.1322 C.ar    1  UNL1        0.0057
     15 C           1.3944    1.8645   28.7476 C.ar    1  UNL1        0.0717
     16 C           0.5179    0.7699   28.2152 C.ar    1  UNL1        0.1704
     17 N           0.3545   -0.2593   29.2940 N.ar    1  UNL1       -0.0621
     18 O           1.1301    0.1992   30.4933 O.2     1  UNL1       -0.3522
     19 C           1.7728    1.5118   30.1556 C.ar    1  UNL1        0.1777
     20 C           2.6536    2.4315   30.9482 C.ar    1  UNL1        0.0333
     21 N          -0.0888    0.7143   26.8445 N.pl3   1  UNL1       -0.3171
     22 H          -0.0180   -0.1081   26.3079 H       1  UNL1        0.1482
     23 C          -0.8032    1.9116   26.2913 C.3     1  UNL1        0.0706
     24 C          -1.6988    3.0979   26.4932 C.3     1  UNL1        0.0212
     25 C          -1.1451    2.7992   25.1315 C.3     1  UNL1        0.0212
     26 N           3.3922    1.5915   37.7305 N.pl3   1  UNL1       -0.2884
     27 C           2.2077    0.8516   38.2777 C.3     1  UNL1        0.1242
     28 C           1.4326    1.4226   39.4281 C.3     1  UNL1        0.1636
     29 O           1.8421    2.7336   40.0312 O.3     1  UNL1       -0.3502
     30 C           3.0267    3.4735   39.4840 C.3     1  UNL1        0.1618
     31 C           3.8017    2.9025   38.3337 C.3     1  UNL1        0.1039
     32 C           4.9862    3.6424   37.7864 C.3     1  UNL1        0.0241
@<TRIPOS>BOND
     1    11    12    1
     2    12    13   ar
     3    13    14   ar
     4    14    15   ar
     5    15    16   ar
     6    16    21    1
     7    21    23    1
     8    23    24    1
     9    24    25    1
    10    16    17   ar
    11    17    18   ar
    12    18    19   ar
    13    19    20   ar
    14    20     1    1
    15     1     2   ar
    16     2     3   ar
    17     3     4   ar
    18     4     5   ar
    19     5    26    1
    20    26    27    1
    21    27    28    1
    22    28    29    1
    23    29    30    1
    24    30    31    1
    25    31    32    1
    26     5     6   ar
    27     6     7   ar
    28     7     8   ar
    29     8     9   ar
    30     9    10   ar
    31    20    12   ar
    32    10     1   ar
    33    19    15   ar
    34     9     4   ar
    35    25    23    1
    36    31    26    1
    37    21    22    1
@<TRIPOS>MOLECULE
*****
 32 37 0 0 0
SMALL
GASTEIGER

@<TRIPOS>ATOM
      1 C           7.4166   -3.7937   22.7415 C.ar    1  UNL1        0.0028
      2 C           6.1297   -3.6969   21.9770 C.ar    1  UNL1        0.0002
      3 C           5.9050   -2.5571   21.0282 C.ar    1  UNL1        0.0029
      4 C           6.9672   -1.5141   20.8439 C.ar    1  UNL1        0.0349
      5 C           6.7425   -0.3742   19.8950 C.ar    1  UNL1        0.1535
      6 N           7.8046    0.6687   19.7107 N.ar    1  UNL1       -0.1329
      7 N           9.0916    0.5718   20.4752 N.ar    1  UNL1       -0.1452
      8 C           9.3163   -0.5680   21.4240 C.ar    1  UNL1        0.1222
      9 C           8.2541   -1.6109   21.6084 C.ar    1  UNL1        0.0237
     10 C           8.4788   -2.7507   22.5572 C.ar    1  UNL1        0.0018
     11 C           8.7375   -6.3092   21.7783 C.3     1  UNL1        0.0311
     12 C           8.3018   -6.1913   23.2088 C.ar    1  UNL1       -0.0188
     13 C           8.5265   -7.3311   24.1577 C.ar    1  UNL1       -0.0040
     14 C           8.0908   -7.2132   25.5881 C.ar    1  UNL1        0.0057
     15 C           7.4303   -5.9554   26.0697 C.ar    1  UNL1        0.0717
     16 C           6.8979   -5.5522   27.4128 C.ar    1  UNL1        0.1704
     17 N           6.3441   -4.1633   27.2941 N.ar    1  UNL1       -0.0621
     18 O           6.5343   -3.7081   25.8775 O.2     1  UNL1       -0.3522
     19 C           7.2056   -4.8156   25.1209 C.ar    1  UNL1        0.1777
     20 C           7.6413   -4.9336   23.6904 C.ar    1  UNL1        0.0333
     21 N           6.9161   -6.3908   28.6564 N.pl3   1  UNL1       -0.3171
     22 H           6.7970   -7.3661   28.5942 H       1  UNL1        0.1482
     23 C           7.1157   -5.7434   29.9947 C.3     1  UNL1        0.0706
     24 C           6.8548   -4.6091   30.9409 C.3     1  UNL1        0.0212
     25 C           7.7223   -5.7565   31.3665 C.3     1  UNL1        0.0212
     26 N           5.4556   -0.2774   19.1305 N.pl3   1  UNL1       -0.2884
     27 C           5.3268   -0.9412   17.7915 C.3     1  UNL1        0.1242
     28 C           4.0399   -0.8444   17.0270 C.3     1  UNL1        0.1636
     29 O           2.8817   -0.0837   17.6015 O.3     1  UNL1       -0.3502
     30 C           3.0105    0.5801   18.9404 C.3     1  UNL1        0.1618
     31 C           4.2973    0.4833   19.7049 C.3     1  UNL1        0.1039
     32 C           4.4261    1.1471   21.0438 C.3     1  UNL1        0.0241
@<TRIPOS>BOND
     1    11    12    1
     2    12    13   ar
     3    13    14   ar
     4    14    15   ar
     5    15    16   ar
     6    16    21    1
     7    21    23    1
     8    23    24    1
     9    24    25    1
    10    16    17   ar
    11    17    18   ar
    12    18    19   ar
    13    19    20   ar
    14    20     1    1
    15     1     2   ar
    16     2     3   ar
    17     3     4   ar
    18     4     5   ar
    19     5    26    1
    20    26    27    1
    21    27    28    1
    22    28    29    1
    23    29    30    1
    24    30    31    1
    25    31    32    1
    26     5     6   ar
    27     6     7   ar
    28     7     8   ar
    29     8     9   ar
    30     9    10   ar
    31    20    12   ar
    32    10     1   ar
    33    19    15   ar
    34     9     4   ar
    35    25    23    1
    36    31    26    1
    37    21    22    1
@<TRIPOS>MOLECULE
*****
 32 37 0 0 0
SMALL
GASTEIGER

@<TRIPOS>ATOM
      1 C           0.1809    3.0511   18.8346 C.ar    1  UNL1        0.0028
      2 C          -0.4680    3.2544   20.1716 C.ar    1  UNL1        0.0002
      3 C          -1.8595    3.8086   20.2533 C.ar    1  UNL1        0.0029
      4 C          -2.6020    4.1595   18.9981 C.ar    1  UNL1        0.0349
      5 C          -3.9935    4.7137   19.0800 C.ar    1  UNL1        0.1535
      6 N          -4.7361    5.0646   17.8248 N.ar    1  UNL1       -0.1329
      7 N          -4.0871    4.8613   16.4878 N.ar    1  UNL1       -0.1452
      8 C          -2.6956    4.3071   16.4060 C.ar    1  UNL1        0.1222
      9 C          -1.9531    3.9562   17.6612 C.ar    1  UNL1        0.0237
     10 C          -0.5617    3.4020   17.5794 C.ar    1  UNL1        0.0018
     11 C           2.4431    4.8039   17.9346 C.3     1  UNL1        0.0311
     12 C           2.7034    3.3733   18.3028 C.ar    1  UNL1       -0.0188
     13 C           4.0950    2.8191   18.2209 C.ar    1  UNL1       -0.0040
     14 C           4.3553    1.3884   18.5891 C.ar    1  UNL1        0.0057
     15 C           3.2241    0.5120   19.0391 C.ar    1  UNL1        0.0717
     16 C           3.1759   -0.9260   19.4631 C.ar    1  UNL1        0.1704
     17 N           1.7548   -1.2605   19.8069 N.ar    1  UNL1       -0.0621
     18 O           0.9246   -0.0292   19.5955 O.2     1  UNL1       -0.3522
     19 C           1.8327    1.0663   19.1209 C.ar    1  UNL1        0.1777
     20 C           1.5724    2.4969   18.7527 C.ar    1  UNL1        0.0333
     21 N           4.3439   -1.8646   19.5312 N.pl3   1  UNL1       -0.3171
     22 H           5.2415   -1.5191   19.7412 H       1  UNL1        0.1482
     23 C           4.1443   -3.3298   19.2795 C.3     1  UNL1        0.0706
     24 C           3.2284   -4.5044   19.1018 C.3     1  UNL1        0.0212
     25 C           4.7143   -4.6930   19.0213 C.3     1  UNL1        0.0212
     26 N          -4.6424    4.9170   20.4170 N.pl3   1  UNL1       -0.2884
     27 C          -5.4312    3.8061   21.0445 C.3     1  UNL1        0.1242
     28 C          -6.0802    4.0095   22.3815 C.3     1  UNL1        0.1636
     29 O          -5.9403    5.3236   23.0910 O.3     1  UNL1       -0.3502
     30 C          -5.1514    6.4345   22.4635 C.3     1  UNL1        0.1618
     31 C          -4.5025    6.2312   21.1265 C.3     1  UNL1        0.1039
     32 C          -3.7137    7.3420   20.4990 C.3     1  UNL1        0.0241
@<TRIPOS>BOND
     1    11    12    1
     2    12    13   ar
     3    13    14   ar
     4    14    15   ar
     5    15    16   ar
     6    16    21    1
     7    21    23    1
     8    23    24    1
     9    24    25    1
    10    16    17   ar
    11    17    18   ar
    12    18    19   ar
    13    19    20   ar
    14    20     1    1
    15     1     2   ar
    16     2     3   ar
    17     3     4   ar
    18     4     5   ar
    19     5    26    1
    20    26    27    1
    21    27    28    1
    22    28    29    1
    23    29    30    1
    24    30    31    1
    25    31    32    1
    26     5     6   ar
    27     6     7   ar
    28     7     8   ar
    29     8     9   ar
    30     9    10   ar
    31    20    12   ar
    32    10     1   ar
    33    19    15   ar
    34     9     4   ar
    35    25    23    1
    36    31    26    1
    37    21    22    1
@<TRIPOS>MOLECULE
*****
 32 37 0 0 0
SMALL
GASTEIGER

@<TRIPOS>ATOM
      1 C          -0.0140    3.2157   19.1338 C.ar    1  UNL1        0.0028
      2 C           0.5293    2.1300   18.2528 C.ar    1  UNL1        0.0002
      3 C           1.8441    1.4865   18.5798 C.ar    1  UNL1        0.0029
      4 C           2.6157    1.9286   19.7878 C.ar    1  UNL1        0.0349
      5 C           3.9306    1.2850   20.1148 C.ar    1  UNL1        0.1535
      6 N           4.7021    1.7271   21.3229 N.ar    1  UNL1       -0.1329
      7 N           4.1587    2.8128   22.2039 N.ar    1  UNL1       -0.1452
      8 C           2.8439    3.4563   21.8768 C.ar    1  UNL1        0.1222
      9 C           2.0723    3.0142   20.6688 C.ar    1  UNL1        0.0237
     10 C           0.7575    3.6577   20.3418 C.ar    1  UNL1        0.0018
     11 C          -0.2370    5.0591   16.7775 C.3     1  UNL1        0.0311
     12 C          -1.4404    4.7809   17.6286 C.ar    1  UNL1       -0.0188
     13 C          -2.7553    5.4245   17.3016 C.ar    1  UNL1       -0.0040
     14 C          -3.9587    5.1464   18.1528 C.ar    1  UNL1        0.0057
     15 C          -3.8472    4.2246   19.3310 C.ar    1  UNL1        0.0717
     16 C          -4.8530    3.7646   20.3442 C.ar    1  UNL1        0.1704
     17 N          -4.1599    2.8369   21.2974 N.ar    1  UNL1       -0.0621
     18 O          -2.7256    2.7234   20.8732 O.2     1  UNL1       -0.3522
     19 C          -2.5323    3.5811   19.6579 C.ar    1  UNL1        0.1777
     20 C          -1.3290    3.8592   18.8068 C.ar    1  UNL1        0.0333
     21 N          -6.2984    4.1626   20.3953 N.pl3   1  UNL1       -0.3171
     22 H          -6.8526    4.1094   19.5833 H       1  UNL1        0.1482
     23 C          -6.8993    4.6418   21.6834 C.3     1  UNL1        0.0706
     24 C          -7.4421    5.7559   22.5285 C.3     1  UNL1        0.0212
     25 C          -7.3973    4.3575   23.0695 C.3     1  UNL1        0.0212
     26 N           4.4739    0.1994   19.2338 N.pl3   1  UNL1       -0.2884
     27 C           5.4624    0.5326   18.1560 C.3     1  UNL1        0.1242
     28 C           6.0057   -0.5531   17.2749 C.3     1  UNL1        0.1636
     29 O           5.5606   -1.9719   17.4718 O.3     1  UNL1       -0.3502
     30 C           4.5721   -2.3051   18.5497 C.3     1  UNL1        0.1618
     31 C           4.0287   -1.2195   19.4307 C.3     1  UNL1        0.1039
     32 C           3.0402   -1.5527   20.5086 C.3     1  UNL1        0.0241
@<TRIPOS>BOND
     1    11    12    1
     2    12    13   ar
     3    13    14   ar
     4    14    15   ar
     5    15    16   ar
     6    16    21    1
     7    21    23    1
     8    23    24    1
     9    24    25    1
    10    16    17   ar
    11    17    18   ar
    12    18    19   ar
    13    19    20   ar
    14    20     1    1
    15     1     2   ar
    16     2     3   ar
    17     3     4   ar
    18     4     5   ar
    19     5    26    1
    20    26    27    1
    21    27    28    1
    22    28    29    1
    23    29    30    1
    24    30    31    1
    25    31    32    1
    26     5     6   ar
    27     6     7   ar
    28     7     8   ar
    29     8     9   ar
    30     9    10   ar
    31    20    12   ar
    32    10     1   ar
    33    19    15   ar
    34     9     4   ar
    35    25    23    1
    36    31    26    1
    37    21    22    1
@<TRIPOS>MOLECULE
*****
 32 37 0 0 0
SMALL
GASTEIGER

@<TRIPOS>ATOM
      1 C           1.0065    1.5446   25.2565 C.ar    1  UNL1        0.0028
      2 C           2.0389    2.4246   25.8966 C.ar    1  UNL1        0.0002
      3 C           2.0500    2.6068   27.3854 C.ar    1  UNL1        0.0029
      4 C           1.0288    1.9090   28.2341 C.ar    1  UNL1        0.0349
      5 C           1.0400    2.0913   29.7230 C.ar    1  UNL1        0.1535
      6 N           0.0188    1.3935   30.5717 N.ar    1  UNL1       -0.1329
      7 N          -1.0135    0.5135   29.9315 N.ar    1  UNL1       -0.1452
      8 C          -1.0247    0.3312   28.4427 C.ar    1  UNL1        0.1222
      9 C          -0.0035    1.0290   27.5940 C.ar    1  UNL1        0.0237
     10 C          -0.0147    0.8468   26.1052 C.ar    1  UNL1        0.0018
     11 C          -0.7503    3.2739   23.5467 C.3     1  UNL1        0.0311
     12 C           0.1170    2.2270   22.9127 C.ar    1  UNL1       -0.0188
     13 C           0.1058    2.0447   21.4238 C.ar    1  UNL1       -0.0040
     14 C           0.9730    0.9978   20.7899 C.ar    1  UNL1        0.0057
     15 C           1.8514    0.1331   21.6448 C.ar    1  UNL1        0.0717
     16 C           2.8064   -0.9728   21.3061 C.ar    1  UNL1        0.1704
     17 N           3.4078   -1.4741   22.5855 N.ar    1  UNL1       -0.0621
     18 O           2.8245   -0.6779   23.7150 O.2     1  UNL1       -0.3522
     19 C           1.8625    0.3154   23.1336 C.ar    1  UNL1        0.1777
     20 C           0.9953    1.3623   23.7676 C.ar    1  UNL1        0.0333
     21 N           3.1072   -1.4872   19.9295 N.pl3   1  UNL1       -0.3171
     22 H           3.0169   -0.8916   19.1509 H       1  UNL1        0.1482
     23 C           3.5456   -2.9091   19.7394 C.3     1  UNL1        0.0706
     24 C           4.4854   -4.0328   20.0618 C.3     1  UNL1        0.0212
     25 C           3.3653   -4.2480   19.0876 C.3     1  UNL1        0.0212
     26 N           2.0724    2.9713   30.3631 N.pl3   1  UNL1       -0.2884
     27 C           3.3835    2.3910   30.8037 C.3     1  UNL1        0.1242
     28 C           4.4159    3.2711   31.4439 C.3     1  UNL1        0.1636
     29 O           4.1371    4.7314   31.6434 O.3     1  UNL1       -0.3502
     30 C           2.8259    5.3116   31.2028 C.3     1  UNL1        0.1618
     31 C           1.7936    4.4316   30.5627 C.3     1  UNL1        0.1039
     32 C           0.4824    5.0119   30.1221 C.3     1  UNL1        0.0241
@<TRIPOS>BOND
     1    11    12    1
     2    12    13   ar
     3    13    14   ar
     4    14    15   ar
     5    15    16   ar
     6    16    21    1
     7    21    23    1
     8    23    24    1
     9    24    25    1
    10    16    17   ar
    11    17    18   ar
    12    18    19   ar
    13    19    20   ar
    14    20     1    1
    15     1     2   ar
    16     2     3   ar
    17     3     4   ar
    18     4     5   ar
    19     5    26    1
    20    26    27    1
    21    27    28    1
    22    28    29    1
    23    29    30    1
    24    30    31    1
    25    31    32    1
    26     5     6   ar
    27     6     7   ar
    28     7     8   ar
    29     8     9   ar
    30     9    10   ar
    31    20    12   ar
    32    10     1   ar
    33    19    15   ar
    34     9     4   ar
    35    25    23    1
    36    31    26    1
    37    21    22    1
