@<TRIPOS>MOLECULE
*****
 67 72 0 0 0
SMALL
GASTEIGER

@<TRIPOS>ATOM
      1 C           1.1969    0.9243   21.9733 C.3     1  UNL1        0.1530
      2 C           2.0407   -0.0900   21.2598 C.3     1  UNL1        0.0553
      3 C           3.0011   -1.1781   20.8804 C.ar    1  UNL1       -0.0199
      4 C           3.6148   -2.0036   19.7887 C.ar    1  UNL1       -0.0029
      5 C           4.6373   -3.0488   20.1233 C.ar    1  UNL1        0.0143
      6 C           5.0461   -3.2684   21.5497 C.ar    1  UNL1        0.0503
      7 C           4.4325   -2.4429   22.6415 C.ar    1  UNL1        0.0143
      8 C           3.4100   -1.3977   22.3068 C.ar    1  UNL1       -0.0029
      9 N           6.8597   -5.0159   22.8368 N.am    1  UNL1       -0.2839
     10 C           7.5467   -5.5663   24.0514 C.2     1  UNL1        0.2279
     11 O           8.3905   -6.5806   23.3378 O.2     1  UNL1       -0.2747
     12 C           8.0302   -5.8721   25.4379 C.3     1  UNL1        0.1071
     13 C           8.2823   -5.9157   26.9160 C.3     1  UNL1        0.1053
     14 N           8.2881   -5.6944   28.3996 N.pl3   1  UNL1       -0.2823
     15 C           8.0475   -5.2212   29.8025 C.2     1  UNL1        0.0818
     16 C           7.5743   -4.5235   31.0432 C.2     1  UNL1        0.0818
     17 N           6.8962   -3.6419   32.0497 N.pl3   1  UNL1       -0.2823
     18 C           6.0524   -2.6276   32.7632 C.3     1  UNL1        0.1053
     19 C           5.0920   -1.5395   33.1426 C.3     1  UNL1        0.1071
     20 C           4.0710   -0.4410   33.1656 C.2     1  UNL1        0.2279
     21 O           4.0768   -0.2197   34.6491 O.2     1  UNL1       -0.2747
     22 N           3.0484    0.6042   32.8310 N.am    1  UNL1       -0.2839
     23 C           2.0839    1.5353   32.1581 C.ar    1  UNL1        0.0503
     24 C           1.2334    2.2983   31.1862 C.ar    1  UNL1        0.0143
     25 C           0.5464    2.8487   29.9716 C.ar    1  UNL1       -0.0029
     26 C           0.0629    3.1545   28.5851 C.ar    1  UNL1       -0.0202
     27 C           0.9133    2.3916   29.5569 C.ar    1  UNL1       -0.0029
     28 C           1.6003    1.8412   30.7715 C.ar    1  UNL1        0.0143
     29 C          -0.1892    3.1981   27.1070 C.3     1  UNL1        0.0530
     30 C          -0.1950    2.9768   25.6234 C.3     1  UNL1        0.1553
     31 C           0.0456    2.5036   24.2204 C.2     1  UNL1        0.2390
     32 O          -0.9189    3.4347   23.5477 O.2     1  UNL1       -0.2736
     33 N           0.5188    1.8059   22.9798 N.am    1  UNL1       -0.2969
     34 C           7.1368   -4.1151   30.6467 C.2     1  UNL1        0.0818
     35 C           7.6099   -4.8128   29.4060 C.2     1  UNL1        0.0818
     36 H           7.2424   -5.5398   22.0964 H       1  UNL1        0.1549
     37 H           2.8905    0.9148   33.7517 H       1  UNL1        0.1549
     38 H          -0.0394    2.3067   22.3419 H       1  UNL1        0.1499
     39 N          -0.1823    2.8037   20.8264 N.am    1  UNL1       -0.2991
     40 C           0.5100    1.4747   20.7588 C.2     1  UNL1        0.2409
     41 O           0.5153    0.6961   19.4768 O.2     1  UNL1       -0.2733
     42 H          -0.1857    3.3147   21.6679 H       1  UNL1        0.1498
     43 C          -0.8692    3.3541   19.6118 C.3     1  UNL1        0.1164
     44 C          -5.3072    4.0956   19.6792 C.ar    1  UNL1        0.0813
     45 C          -4.6314    3.4807   20.8688 C.ar    1  UNL1        0.0071
     46 C          -3.1521    3.2335   20.8463 C.ar    1  UNL1       -0.0024
     47 C          -2.3486    3.6012   19.6343 C.ar    1  UNL1       -0.0026
     48 C          -3.0244    4.2162   18.4446 C.ar    1  UNL1       -0.0024
     49 C          -4.5037    4.4634   18.4671 C.ar    1  UNL1        0.0071
     50 N          -7.4186    5.0034   20.8908 N.2     1  UNL1       -0.0994
     51 C          -6.7865    4.3428   19.7016 C.2     1  UNL1        0.3093
     52 N          -7.6337    3.9294   18.5348 N.pl3   1  UNL1       -0.2466
     53 H          -8.3896    5.1657   20.9054 H       1  UNL1        0.3633
     54 H          -8.6046    4.0916   18.5495 H       1  UNL1        0.2884
     55 H          -7.2188    3.4958   17.7544 H       1  UNL1        0.2884
     56 N          -1.2175    4.0220   25.2887 N.3     1  UNL1       -0.1753
     57 H          -1.5039    3.8555   24.3240 H       1  UNL1        0.1489
     58 S          -2.4740    4.1293   26.1011 S.O2    1  UNL1        0.0454
     59 O          -2.3098    5.6191   26.1582 O.2     1  UNL1       -0.1572
     60 O          -2.6382    2.6394   26.0439 O.2     1  UNL1       -0.1572
     61 C          -3.7304    4.2366   26.9134 C.3     1  UNL1        0.1952
     62 C          -4.9928    4.7407   26.2791 C.ar    1  UNL1        0.0029
     63 C          -5.7510    5.8698   26.9118 C.ar    1  UNL1       -0.0025
     64 C          -7.0133    6.3739   26.2776 C.ar    1  UNL1       -0.0003
     65 C          -7.5176    5.7490   25.0107 C.ar    1  UNL1       -0.0000
     66 C          -6.7594    4.6198   24.3779 C.ar    1  UNL1       -0.0003
     67 C          -5.4970    4.1157   25.0121 C.ar    1  UNL1       -0.0025
@<TRIPOS>BOND
     1    50    51    2
     2    51    52    1
     3    51    44    1
     4    44    45   ar
     5    45    46   ar
     6    46    47   ar
     7    47    43    1
     8    43    39    1
     9    39    40   am
    10    40    41    2
    11     1    40    1
    12     1     2    1
    13     2     3    1
    14     3     4   ar
    15     4     5   ar
    16     5     6   ar
    17     6     7   ar
    18     7     8   ar
    19     6     9    1
    20     9    10   am
    21    10    11    2
    22    10    12    1
    23    12    13    1
    24    13    14    1
    25    14    15    1
    26    15    16    2
    27    16    17    1
    28    17    18    1
    29    18    19    1
    30    19    20    1
    31    20    21    2
    32    20    22   am
    33    22    23    1
    34    23    24   ar
    35    24    25   ar
    36    25    26   ar
    37    26    27   ar
    38    27    28   ar
    39    26    29    1
    40    29    30    1
    41    30    56    1
    42    56    58    1
    43    58    59    2
    44    58    60    2
    45    58    61    1
    46    61    62    1
    47    62    63   ar
    48    63    64   ar
    49    64    65   ar
    50    65    66   ar
    51    66    67   ar
    52    30    31    1
    53    31    32    2
    54    31    33   am
    55    17    34    1
    56    34    35    2
    57    47    48   ar
    58    48    49   ar
    59    49    44   ar
    60    33     1    1
    61     8     3   ar
    62    35    14    1
    63    28    23   ar
    64    67    62   ar
    65    50    53    1
    66    52    54    1
    67    52    55    1
    68    39    42    1
    69     9    36    1
    70    22    37    1
    71    56    57    1
    72    33    38    1
@<TRIPOS>MOLECULE
*****
 67 72 0 0 0
SMALL
GASTEIGER

@<TRIPOS>ATOM
      1 C           0.1854    2.8291   26.3892 C.3     1  UNL1        0.1530
      2 C           0.2853    2.8898   27.8846 C.3     1  UNL1        0.0553
      3 C           0.6304    2.6896   29.3306 C.ar    1  UNL1       -0.0199
      4 C           0.3967    3.0903   30.7570 C.ar    1  UNL1       -0.0029
      5 C           1.1592    2.4174   31.8596 C.ar    1  UNL1        0.0143
      6 C           2.1553    1.3437   31.5358 C.ar    1  UNL1        0.0503
      7 C           2.3891    0.9429   30.1094 C.ar    1  UNL1        0.0143
      8 C           1.6266    1.6159   29.0068 C.ar    1  UNL1       -0.0029
      9 N           3.8786   -0.2816   33.0811 N.am    1  UNL1       -0.2839
     10 C           4.9202   -1.3498   33.2363 C.2     1  UNL1        0.2279
     11 O           5.0201   -1.2890   34.7318 O.2     1  UNL1       -0.2747
     12 C           5.9377   -2.4326   33.0311 C.3     1  UNL1        0.1071
     13 C           6.8720   -3.4672   32.4772 C.3     1  UNL1        0.1053
     14 N           7.6688   -4.3934   31.6069 N.pl3   1  UNL1       -0.2823
     15 C           8.2817   -5.1573   30.4709 C.2     1  UNL1        0.0818
     16 C           8.6753   -5.7146   29.1350 C.2     1  UNL1        0.0818
     17 N           8.8266   -6.0329   27.6770 N.pl3   1  UNL1       -0.2823
     18 C           8.7267   -6.0937   26.1815 C.3     1  UNL1        0.1053
     19 C           8.3815   -5.8935   24.7356 C.3     1  UNL1        0.1071
     20 C           7.8112   -5.4438   23.4232 C.2     1  UNL1        0.2279
     21 O           8.6079   -6.3699   22.5529 O.2     1  UNL1       -0.2747
     22 N           7.0487   -4.7709   22.3205 N.am    1  UNL1       -0.2839
     23 C           6.1385   -3.9138   21.4917 C.ar    1  UNL1        0.0503
     24 C           5.1334   -2.9223   20.9850 C.ar    1  UNL1        0.0143
     25 C           4.0918   -1.8541   20.8298 C.ar    1  UNL1       -0.0029
     26 C           3.0743   -0.7713   21.0351 C.ar    1  UNL1       -0.0202
     27 C           4.0794   -1.7627   21.5418 C.ar    1  UNL1       -0.0029
     28 C           5.1209   -2.8309   21.6970 C.ar    1  UNL1        0.0143
     29 C           2.1400    0.2633   21.5889 C.3     1  UNL1        0.0530
     30 C           1.3432    1.1895   22.4592 C.3     1  UNL1        0.1553
     31 C           0.7302    1.9534   23.5953 C.2     1  UNL1        0.2390
     32 O          -0.1800    2.8105   22.7665 O.2     1  UNL1       -0.2736
     33 N           0.3367    2.5107   24.9311 N.am    1  UNL1       -0.2969
     34 C           8.2136   -5.2690   28.8130 C.2     1  UNL1        0.0818
     35 C           7.8200   -4.7116   30.1489 C.2     1  UNL1        0.0818
     36 H           3.7010    0.0055   34.0059 H       1  UNL1        0.1549
     37 H           7.4510   -5.2723   21.5749 H       1  UNL1        0.1549
     38 H          -0.3230    3.1614   24.5985 H       1  UNL1        0.1499
     39 N          -2.0376    3.9326   27.1575 N.am    1  UNL1       -0.2991
     40 C          -0.8562    3.8972   26.2339 C.2     1  UNL1        0.2409
     41 O          -0.7163    4.9300   25.1552 O.2     1  UNL1       -0.2733
     42 H          -2.1294    3.2548   27.8656 H       1  UNL1        0.1498
     43 C          -3.0792    5.0008   27.0023 C.3     1  UNL1        0.1164
     44 C          -6.4191    4.4722   24.0332 C.ar    1  UNL1        0.0813
     45 C          -5.1769    3.6389   23.9209 C.ar    1  UNL1        0.0071
     46 C          -4.0636    3.8152   24.9106 C.ar    1  UNL1       -0.0024
     47 C          -4.1924    4.8246   26.0126 C.ar    1  UNL1       -0.0026
     48 C          -5.4347    5.6579   26.1249 C.ar    1  UNL1       -0.0024
     49 C          -6.5480    5.4816   25.1352 C.ar    1  UNL1        0.0071
     50 N          -8.8390    3.7039   23.4820 N.2     1  UNL1       -0.0994
     51 C          -7.5324    4.2960   23.0436 C.2     1  UNL1        0.3093
     52 N          -7.3391    4.7120   21.6154 N.pl3   1  UNL1       -0.2466
     53 H          -9.5697    3.5883   22.8324 H       1  UNL1        0.3633
     54 H          -8.0698    4.5964   20.9658 H       1  UNL1        0.2884
     55 H          -6.4815    5.1006   21.3276 H       1  UNL1        0.2884
     56 N           0.5807    1.8624   21.3566 N.3     1  UNL1       -0.1753
     57 H           0.3751    2.8091   21.6760 H       1  UNL1        0.1489
     58 S           1.1903    1.9886   19.9918 S.O2    1  UNL1        0.0454
     59 O           0.2563    0.9337   19.4772 O.2     1  UNL1       -0.1572
     60 O           2.1242    3.0435   20.5064 O.2     1  UNL1       -0.1572
     61 C           1.7997    2.1148   18.6271 C.3     1  UNL1        0.1952
     62 C           2.9691    1.2563   18.2456 C.ar    1  UNL1        0.0029
     63 C           4.3650    1.7101   18.5543 C.ar    1  UNL1       -0.0025
     64 C           5.5344    0.8516   18.1728 C.ar    1  UNL1       -0.0003
     65 C           5.3079   -0.4607   17.4826 C.ar    1  UNL1       -0.0000
     66 C           3.9119   -0.9146   17.1738 C.ar    1  UNL1       -0.0003
     67 C           2.7425   -0.0561   17.5553 C.ar    1  UNL1       -0.0025
@<TRIPOS>BOND
     1    50    51    2
     2    51    52    1
     3    51    44    1
     4    44    45   ar
     5    45    46   ar
     6    46    47   ar
     7    47    43    1
     8    43    39    1
     9    39    40   am
    10    40    41    2
    11     1    40    1
    12     1     2    1
    13     2     3    1
    14     3     4   ar
    15     4     5   ar
    16     5     6   ar
    17     6     7   ar
    18     7     8   ar
    19     6     9    1
    20     9    10   am
    21    10    11    2
    22    10    12    1
    23    12    13    1
    24    13    14    1
    25    14    15    1
    26    15    16    2
    27    16    17    1
    28    17    18    1
    29    18    19    1
    30    19    20    1
    31    20    21    2
    32    20    22   am
    33    22    23    1
    34    23    24   ar
    35    24    25   ar
    36    25    26   ar
    37    26    27   ar
    38    27    28   ar
    39    26    29    1
    40    29    30    1
    41    30    56    1
    42    56    58    1
    43    58    59    2
    44    58    60    2
    45    58    61    1
    46    61    62    1
    47    62    63   ar
    48    63    64   ar
    49    64    65   ar
    50    65    66   ar
    51    66    67   ar
    52    30    31    1
    53    31    32    2
    54    31    33   am
    55    17    34    1
    56    34    35    2
    57    47    48   ar
    58    48    49   ar
    59    49    44   ar
    60    33     1    1
    61     8     3   ar
    62    35    14    1
    63    28    23   ar
    64    67    62   ar
    65    50    53    1
    66    52    54    1
    67    52    55    1
    68    39    42    1
    69     9    36    1
    70    22    37    1
    71    56    57    1
    72    33    38    1
@<TRIPOS>MOLECULE
*****
 67 72 0 0 0
SMALL
GASTEIGER

@<TRIPOS>ATOM
      1 C           4.9477   -1.3488   30.2245 C.3     1  UNL1        0.1530
      2 C           6.0472   -2.2071   29.6729 C.3     1  UNL1        0.0553
      3 C           7.0049   -2.9669   28.8036 C.ar    1  UNL1       -0.0199
      4 C           8.1934   -3.8783   28.7219 C.ar    1  UNL1       -0.0029
      5 C           8.7116   -4.3170   27.3844 C.ar    1  UNL1        0.0143
      6 C           8.0412   -3.8443   26.1286 C.ar    1  UNL1        0.0503
      7 C           6.8526   -2.9330   26.2102 C.ar    1  UNL1        0.0143
      8 C           6.3345   -2.4943   27.5477 C.ar    1  UNL1       -0.0029
      9 N           8.4893   -4.2747   23.3693 N.am    1  UNL1       -0.2839
     10 C           8.1655   -4.0733   21.9187 C.2     1  UNL1        0.2279
     11 O           9.2650   -4.9315   21.3670 O.2     1  UNL1       -0.2747
     12 C           7.5765   -3.6649   20.6010 C.3     1  UNL1        0.1071
     13 C           6.7568   -3.0733   19.4928 C.3     1  UNL1        0.1053
     14 N           5.7537   -2.3330   18.6586 N.pl3   1  UNL1       -0.2823
     15 C           4.6258   -1.4869   18.1469 C.2     1  UNL1        0.0818
     16 C           3.4385   -0.5842   17.9873 C.2     1  UNL1        0.0818
     17 N           2.2608    0.3227   18.1892 N.pl3   1  UNL1       -0.2823
     18 C           1.1612    1.1810   18.7408 C.3     1  UNL1        0.1053
     19 C           0.2036    1.9408   19.6101 C.3     1  UNL1        0.1071
     20 C          -0.5563    2.5580   20.7465 C.2     1  UNL1        0.2279
     21 O          -1.5593    3.2983   19.9124 O.2     1  UNL1       -0.2747
     22 N          -1.0745    2.9967   22.0841 N.am    1  UNL1       -0.2839
     23 C          -1.3208    3.2315   23.5450 C.ar    1  UNL1        0.0503
     24 C          -1.2808    3.2486   25.0444 C.ar    1  UNL1        0.0143
     25 C          -0.9570    3.0471   26.4951 C.ar    1  UNL1       -0.0029
     26 C          -0.3681    2.6388   27.8127 C.ar    1  UNL1       -0.0202
     27 C          -0.4080    2.6216   26.3134 C.ar    1  UNL1       -0.0029
     28 C          -0.7318    2.8231   24.8628 C.ar    1  UNL1        0.0143
     29 C           0.4517    2.0472   28.9209 C.3     1  UNL1        0.0530
     30 C           1.4548    1.3068   29.7551 C.3     1  UNL1        0.1553
     31 C           2.5827    0.4607   30.2669 C.2     1  UNL1        0.2390
     32 O           2.3364    0.6955   31.7277 O.2     1  UNL1       -0.2736
     33 N           3.7700   -0.4420   30.4264 N.am    1  UNL1       -0.2969
     34 C           3.3888   -0.5234   18.7009 C.2     1  UNL1        0.0818
     35 C           4.5761   -1.4261   18.8605 C.2     1  UNL1        0.0818
     36 H           9.2710   -4.8730   23.3517 H       1  UNL1        0.1549
     37 H          -1.8148    3.5521   21.7482 H       1  UNL1        0.1549
     38 H           3.7962   -0.4307   31.4105 H       1  UNL1        0.1499
     39 N           5.1439   -0.4071   32.6379 N.am    1  UNL1       -0.2991
     40 C           5.2715   -1.5503   31.6752 C.2     1  UNL1        0.2409
     41 O           5.7229   -2.8950   32.1631 O.2     1  UNL1       -0.2733
     42 H           4.8477    0.4754   32.3177 H       1  UNL1        0.1498
     43 C           5.4678   -0.6086   34.0886 C.3     1  UNL1        0.1164
     44 C           3.3093    1.7848   37.2292 C.ar    1  UNL1        0.0813
     45 C           4.2570    0.6955   37.6360 C.ar    1  UNL1        0.0071
     46 C           4.9764   -0.1022   36.5891 C.ar    1  UNL1       -0.0024
     47 C           4.7483    0.1892   35.1355 C.ar    1  UNL1       -0.0026
     48 C           3.8006    1.2785   34.7287 C.ar    1  UNL1       -0.0024
     49 C           3.0812    2.0763   35.7755 C.ar    1  UNL1        0.0071
     50 N           3.3254    3.0587   39.4934 N.2     1  UNL1       -0.0994
     51 C           2.5898    2.5826   38.2759 C.2     1  UNL1        0.3093
     52 N           1.1347    2.9043   38.1052 N.pl3   1  UNL1       -0.2466
     53 H           2.8531    3.5824   40.1804 H       1  UNL1        0.3633
     54 H           0.6624    3.4279   38.7922 H       1  UNL1        0.2884
     55 H           0.6520    2.5918   37.3061 H       1  UNL1        0.2884
     56 N           0.9366    1.7455   31.0926 N.3     1  UNL1       -0.1753
     57 H           1.6259    1.4538   31.7856 H       1  UNL1        0.1489
     58 S           0.6531    3.1962   31.3481 S.O2    1  UNL1        0.0454
     59 O          -0.6774    2.8324   31.9373 O.2     1  UNL1       -0.1572
     60 O           1.9836    3.5601   30.7589 O.2     1  UNL1       -0.1572
     61 C           0.3696    4.6468   31.6036 C.3     1  UNL1        0.1952
     62 C           0.3264    5.1662   33.0101 C.ar    1  UNL1        0.0029
     63 C          -0.7816    6.0825   33.4376 C.ar    1  UNL1       -0.0025
     64 C          -0.8249    6.6019   34.8441 C.ar    1  UNL1       -0.0003
     65 C           0.2399    6.2050   35.8232 C.ar    1  UNL1       -0.0000
     66 C           1.3480    5.2887   35.3958 C.ar    1  UNL1       -0.0003
     67 C           1.3912    4.7693   33.9892 C.ar    1  UNL1       -0.0025
@<TRIPOS>BOND
     1    50    51    2
     2    51    52    1
     3    51    44    1
     4    44    45   ar
     5    45    46   ar
     6    46    47   ar
     7    47    43    1
     8    43    39    1
     9    39    40   am
    10    40    41    2
    11     1    40    1
    12     1     2    1
    13     2     3    1
    14     3     4   ar
    15     4     5   ar
    16     5     6   ar
    17     6     7   ar
    18     7     8   ar
    19     6     9    1
    20     9    10   am
    21    10    11    2
    22    10    12    1
    23    12    13    1
    24    13    14    1
    25    14    15    1
    26    15    16    2
    27    16    17    1
    28    17    18    1
    29    18    19    1
    30    19    20    1
    31    20    21    2
    32    20    22   am
    33    22    23    1
    34    23    24   ar
    35    24    25   ar
    36    25    26   ar
    37    26    27   ar
    38    27    28   ar
    39    26    29    1
    40    29    30    1
    41    30    56    1
    42    56    58    1
    43    58    59    2
    44    58    60    2
    45    58    61    1
    46    61    62    1
    47    62    63   ar
    48    63    64   ar
    49    64    65   ar
    50    65    66   ar
    51    66    67   ar
    52    30    31    1
    53    31    32    2
    54    31    33   am
    55    17    34    1
    56    34    35    2
    57    47    48   ar
    58    48    49   ar
    59    49    44   ar
    60    33     1    1
    61     8     3   ar
    62    35    14    1
    63    28    23   ar
    64    67    62   ar
    65    50    53    1
    66    52    54    1
    67    52    55    1
    68    39    42    1
    69     9    36    1
    70    22    37    1
    71    56    57    1
    72    33    38    1
@<TRIPOS>MOLECULE
*****
 67 72 0 0 0
SMALL
GASTEIGER

@<TRIPOS>ATOM
      1 C           1.0192    2.1589   26.8448 C.3     1  UNL1        0.1530
      2 C           1.0534    2.1092   25.3460 C.3     1  UNL1        0.0553
      3 C           1.3328    1.8002   23.9050 C.ar    1  UNL1       -0.0199
      4 C           1.0393    2.0981   22.4645 C.ar    1  UNL1       -0.0029
      5 C           1.7472    1.3383   21.3822 C.ar    1  UNL1        0.0143
      6 C           2.7486    0.2805   21.7404 C.ar    1  UNL1        0.0503
      7 C           3.0421   -0.0174   23.1808 C.ar    1  UNL1        0.0143
      8 C           2.3342    0.7424   24.2632 C.ar    1  UNL1       -0.0029
      9 N           4.3897   -1.4717   20.2450 N.am    1  UNL1       -0.2839
     10 C           5.4153   -2.5595   20.1235 C.2     1  UNL1        0.2279
     11 O           5.4495   -2.6092   18.6247 O.2     1  UNL1       -0.2747
     12 C           6.4327   -3.6353   20.3633 C.3     1  UNL1        0.1071
     13 C           7.3828   -4.6366   20.9504 C.3     1  UNL1        0.1053
     14 N           8.2103   -5.5052   21.8509 N.pl3   1  UNL1       -0.2823
     15 C           8.8670   -6.1907   23.0123 C.2     1  UNL1        0.0818
     16 C           9.3151   -6.6531   24.3670 C.2     1  UNL1        0.0818
     17 N           9.5282   -6.8657   25.8366 N.pl3   1  UNL1       -0.2823
     18 C           9.4940   -6.8160   27.3354 C.3     1  UNL1        0.1053
     19 C           9.2146   -6.5070   28.7764 C.3     1  UNL1        0.1071
     20 C           8.7062   -5.9566   30.0757 C.2     1  UNL1        0.2279
     21 O           9.5336   -6.8252   30.9762 O.2     1  UNL1       -0.2747
     22 N           7.9983   -5.1968   31.1582 N.am    1  UNL1       -0.2839
     23 C           7.1320   -4.2717   31.9605 C.ar    1  UNL1        0.0503
     24 C           6.1577   -3.2351   32.4363 C.ar    1  UNL1        0.0143
     25 C           5.1321   -2.1473   32.5579 C.ar    1  UNL1       -0.0029
     26 C           4.1147   -1.0715   32.3181 C.ar    1  UNL1       -0.0202
     27 C           5.0889   -2.1080   31.8423 C.ar    1  UNL1       -0.0029
     28 C           6.1146   -3.1958   31.7207 C.ar    1  UNL1        0.0143
     29 C           3.1646   -0.0702   31.7309 C.3     1  UNL1        0.0530
     30 C           2.3371    0.7984   30.8304 C.3     1  UNL1        0.1553
     31 C           1.6803    1.4839   29.6691 C.2     1  UNL1        0.2390
     32 O           0.8141    2.4089   30.4715 O.2     1  UNL1       -0.2736
     33 N           1.2324    1.9463   28.3143 N.am    1  UNL1       -0.2969
     34 C           8.8714   -6.1802   24.6752 C.2     1  UNL1        0.0818
     35 C           8.4234   -5.7178   23.3204 C.2     1  UNL1        0.0818
     36 H           4.1735   -1.2511   19.3103 H       1  UNL1        0.1549
     37 H           8.4294   -5.6466   31.9204 H       1  UNL1        0.1549
     38 H           0.5929    2.6266   28.6266 H       1  UNL1        0.1499
     39 N          -1.4147    3.0040   26.5105 N.am    1  UNL1       -0.2991
     40 C          -0.0064    3.2467   26.9663 C.2     1  UNL1        0.2409
     41 O           0.3763    4.5771   27.5437 O.2     1  UNL1       -0.2733
     42 H          -1.6659    2.1307   26.1315 H       1  UNL1        0.1498
     43 C          -2.4404    4.0918   26.6320 C.3     1  UNL1        0.1164
     44 C          -5.9964    4.1495   23.8749 C.ar    1  UNL1        0.0813
     45 C          -4.7149    3.5074   23.4327 C.ar    1  UNL1        0.0071
     46 C          -3.5296    3.4882   24.3518 C.ar    1  UNL1       -0.0024
     47 C          -3.6257    4.1110   25.7129 C.ar    1  UNL1       -0.0026
     48 C          -4.9072    4.7532   26.1551 C.ar    1  UNL1       -0.0024
     49 C          -6.0925    4.7724   25.2361 C.ar    1  UNL1        0.0071
     50 N          -8.5620    3.9688   23.5079 N.2     1  UNL1       -0.0994
     51 C          -7.1817    4.1689   22.9559 C.2     1  UNL1        0.3093
     52 N          -6.9867    4.3882   21.4849 N.pl3   1  UNL1       -0.2466
     53 H          -9.3400    3.9815   22.9047 H       1  UNL1        0.3633
     54 H          -7.7646    4.4009   20.8817 H       1  UNL1        0.2884
     55 H          -6.0807    4.5195   21.1226 H       1  UNL1        0.2884
     56 N           1.6292    1.5583   31.9128 N.3     1  UNL1       -0.1753
     57 H           1.0170    0.8942   32.3866 H       1  UNL1        0.1489
     58 S           2.4199    2.2556   32.9798 S.O2    1  UNL1        0.0454
     59 O           3.5122    2.5321   31.9897 O.2     1  UNL1       -0.1572
     60 O           1.3277    1.9791   33.9700 O.2     1  UNL1       -0.1572
     61 C           3.2106    2.9530   34.0468 C.3     1  UNL1        0.1952
     62 C           3.5372    2.2398   35.3253 C.ar    1  UNL1        0.0029
     63 C           4.3162    0.9585   35.2915 C.ar    1  UNL1       -0.0025
     64 C           4.6428    0.2452   36.5700 C.ar    1  UNL1       -0.0003
     65 C           4.1903    0.8134   37.8824 C.ar    1  UNL1       -0.0000
     66 C           3.4112    2.0948   37.9163 C.ar    1  UNL1       -0.0003
     67 C           3.0847    2.8080   36.6378 C.ar    1  UNL1       -0.0025
@<TRIPOS>BOND
     1    50    51    2
     2    51    52    1
     3    51    44    1
     4    44    45   ar
     5    45    46   ar
     6    46    47   ar
     7    47    43    1
     8    43    39    1
     9    39    40   am
    10    40    41    2
    11     1    40    1
    12     1     2    1
    13     2     3    1
    14     3     4   ar
    15     4     5   ar
    16     5     6   ar
    17     6     7   ar
    18     7     8   ar
    19     6     9    1
    20     9    10   am
    21    10    11    2
    22    10    12    1
    23    12    13    1
    24    13    14    1
    25    14    15    1
    26    15    16    2
    27    16    17    1
    28    17    18    1
    29    18    19    1
    30    19    20    1
    31    20    21    2
    32    20    22   am
    33    22    23    1
    34    23    24   ar
    35    24    25   ar
    36    25    26   ar
    37    26    27   ar
    38    27    28   ar
    39    26    29    1
    40    29    30    1
    41    30    56    1
    42    56    58    1
    43    58    59    2
    44    58    60    2
    45    58    61    1
    46    61    62    1
    47    62    63   ar
    48    63    64   ar
    49    64    65   ar
    50    65    66   ar
    51    66    67   ar
    52    30    31    1
    53    31    32    2
    54    31    33   am
    55    17    34    1
    56    34    35    2
    57    47    48   ar
    58    48    49   ar
    59    49    44   ar
    60    33     1    1
    61     8     3   ar
    62    35    14    1
    63    28    23   ar
    64    67    62   ar
    65    50    53    1
    66    52    54    1
    67    52    55    1
    68    39    42    1
    69     9    36    1
    70    22    37    1
    71    56    57    1
    72    33    38    1
@<TRIPOS>MOLECULE
*****
 67 72 0 0 0
SMALL
GASTEIGER

@<TRIPOS>ATOM
      1 C           3.1203    3.1467   31.4817 C.3     1  UNL1        0.1530
      2 C           2.0128    4.0566   31.0396 C.3     1  UNL1        0.0553
      3 C           0.9429    4.7887   30.2850 C.ar    1  UNL1       -0.0199
      4 C          -0.1148    5.8522   30.2963 C.ar    1  UNL1       -0.0029
      5 C          -0.9286    6.1137   29.0637 C.ar    1  UNL1        0.0143
      6 C          -0.6846    5.3117   27.8198 C.ar    1  UNL1        0.0503
      7 C           0.3731    4.2483   27.8084 C.ar    1  UNL1        0.0143
      8 C           1.1869    3.9867   29.0410 C.ar    1  UNL1       -0.0029
      9 N          -1.8225    5.2892   25.2306 N.am    1  UNL1       -0.2839
     10 C          -1.9332    4.7708   23.8274 C.2     1  UNL1        0.2279
     11 O          -3.0408    5.6807   23.3853 O.2     1  UNL1       -0.2747
     12 C          -1.7770    4.0330   22.5308 C.3     1  UNL1        0.1071
     13 C          -1.3629    3.1187   21.4160 C.3     1  UNL1        0.1053
     14 N          -0.7149    2.0811   20.5480 N.pl3   1  UNL1       -0.2823
     15 C           0.1293    0.9804   19.9772 C.2     1  UNL1        0.0818
     16 C           1.1206   -0.1194   19.7366 C.2     1  UNL1        0.0818
     17 N           2.2014   -1.1543   19.8403 N.pl3   1  UNL1       -0.2823
     18 C           3.3090   -2.0643   20.2824 C.3     1  UNL1        0.1053
     19 C           4.3788   -2.7964   21.0371 C.3     1  UNL1        0.1071
     20 C           5.3488   -3.3080   22.0604 C.2     1  UNL1        0.2279
     21 O           5.9968   -4.3456   21.1924 O.2     1  UNL1       -0.2747
     22 N           6.1626   -3.5696   23.2930 N.am    1  UNL1       -0.2839
     23 C           6.7729   -3.5658   24.6632 C.ar    1  UNL1        0.0503
     24 C           7.1442   -3.2968   26.0915 C.ar    1  UNL1        0.0143
     25 C           7.2550   -2.7784   27.4947 C.ar    1  UNL1       -0.0029
     26 C           7.0988   -2.0407   28.7913 C.ar    1  UNL1       -0.0202
     27 C           6.7274   -2.3095   27.3631 C.ar    1  UNL1       -0.0029
     28 C           6.6167   -2.8280   25.9599 C.ar    1  UNL1        0.0143
     29 C           6.6846   -1.1264   29.9060 C.3     1  UNL1        0.0530
     30 C           6.0366   -0.0887   30.7740 C.3     1  UNL1        0.1553
     31 C           5.1924    1.0120   31.3449 C.2     1  UNL1        0.2390
     32 O           5.8027    1.0157   32.7151 O.2     1  UNL1       -0.2736
     33 N           4.2011    2.1117   31.5854 N.am    1  UNL1       -0.2969
     34 C           1.3573   -0.0536   20.4112 C.2     1  UNL1        0.0818
     35 C           0.3660    1.0461   20.6518 C.2     1  UNL1        0.0818
     36 H          -2.5084    5.9942   25.2723 H       1  UNL1        0.1549
     37 H           6.7167   -4.2920   22.9183 H       1  UNL1        0.1549
     38 H           4.4448    2.2882   32.5228 H       1  UNL1        0.1499
     39 N           4.3514    3.2031   33.7688 N.am    1  UNL1       -0.2991
     40 C           3.2311    3.6651   32.8849 C.2     1  UNL1        0.2409
     41 O           2.2215    4.6454   33.4040 O.2     1  UNL1       -0.2733
     42 H           5.0141    2.5596   33.4280 H       1  UNL1        0.1498
     43 C           4.4622    3.7215   35.1720 C.3     1  UNL1        0.1164
     44 C           2.1802    1.7226   38.4957 C.ar    1  UNL1        0.0813
     45 C           1.8730    3.1428   38.1235 C.ar    1  UNL1        0.0071
     46 C           2.6336    3.8091   37.0156 C.ar    1  UNL1       -0.0024
     47 C           3.7015    3.0552   36.2799 C.ar    1  UNL1       -0.0026
     48 C           4.0088    1.6349   36.6521 C.ar    1  UNL1       -0.0024
     49 C           3.2481    0.9686   37.7601 C.ar    1  UNL1        0.0071
     50 N           0.7314    1.8866   40.6460 N.2     1  UNL1       -0.0994
     51 C           1.4197    1.0562   39.6036 C.2     1  UNL1        0.3093
     52 N           1.3473   -0.4407   39.6690 N.pl3   1  UNL1       -0.2466
     53 H           0.2322    1.4492   41.3732 H       1  UNL1        0.3633
     54 H           0.8482   -0.8781   40.3961 H       1  UNL1        0.2884
     55 H           1.7991   -0.9857   38.9848 H       1  UNL1        0.2884
     56 N           6.8504   -0.3502   32.0066 N.3     1  UNL1       -0.1753
     57 H           6.2417   -0.1700   32.8050 H       1  UNL1        0.1489
     58 S           7.4651   -1.7007   32.2270 S.O2    1  UNL1        0.0454
     59 O           6.1246   -2.2467   32.6205 O.2     1  UNL1       -0.1572
     60 O           8.8056   -1.1547   31.8335 O.2     1  UNL1       -0.1572
     61 C           8.0798   -3.0511   32.4473 C.3     1  UNL1        0.1952
     62 C           8.1444   -4.0387   31.3202 C.ar    1  UNL1        0.0029
     63 C           9.4356   -4.2594   30.5895 C.ar    1  UNL1       -0.0025
     64 C           9.5002   -5.2470   29.4624 C.ar    1  UNL1       -0.0003
     65 C           8.2736   -6.0139   29.0659 C.ar    1  UNL1       -0.0000
     66 C           6.9822   -5.7932   29.7966 C.ar    1  UNL1       -0.0003
     67 C           6.9176   -4.8056   30.9237 C.ar    1  UNL1       -0.0025
@<TRIPOS>BOND
     1    50    51    2
     2    51    52    1
     3    51    44    1
     4    44    45   ar
     5    45    46   ar
     6    46    47   ar
     7    47    43    1
     8    43    39    1
     9    39    40   am
    10    40    41    2
    11     1    40    1
    12     1     2    1
    13     2     3    1
    14     3     4   ar
    15     4     5   ar
    16     5     6   ar
    17     6     7   ar
    18     7     8   ar
    19     6     9    1
    20     9    10   am
    21    10    11    2
    22    10    12    1
    23    12    13    1
    24    13    14    1
    25    14    15    1
    26    15    16    2
    27    16    17    1
    28    17    18    1
    29    18    19    1
    30    19    20    1
    31    20    21    2
    32    20    22   am
    33    22    23    1
    34    23    24   ar
    35    24    25   ar
    36    25    26   ar
    37    26    27   ar
    38    27    28   ar
    39    26    29    1
    40    29    30    1
    41    30    56    1
    42    56    58    1
    43    58    59    2
    44    58    60    2
    45    58    61    1
    46    61    62    1
    47    62    63   ar
    48    63    64   ar
    49    64    65   ar
    50    65    66   ar
    51    66    67   ar
    52    30    31    1
    53    31    32    2
    54    31    33   am
    55    17    34    1
    56    34    35    2
    57    47    48   ar
    58    48    49   ar
    59    49    44   ar
    60    33     1    1
    61     8     3   ar
    62    35    14    1
    63    28    23   ar
    64    67    62   ar
    65    50    53    1
    66    52    54    1
    67    52    55    1
    68    39    42    1
    69     9    36    1
    70    22    37    1
    71    56    57    1
    72    33    38    1
@<TRIPOS>MOLECULE
*****
 67 72 0 0 0
SMALL
GASTEIGER

@<TRIPOS>ATOM
      1 C           1.7343    0.7140   21.7053 C.3     1  UNL1        0.1530
      2 C           2.5750   -0.4587   21.2950 C.3     1  UNL1        0.0553
      3 C           3.4831   -1.6513   21.2394 C.ar    1  UNL1       -0.0199
      4 C           4.1588   -2.6920   20.3967 C.ar    1  UNL1       -0.0029
      5 C           5.0427   -3.7194   21.0394 C.ar    1  UNL1        0.0143
      6 C           5.2507   -3.7062   22.5248 C.ar    1  UNL1        0.0503
      7 C           4.5750   -2.6655   23.3676 C.ar    1  UNL1        0.0143
      8 C           3.6911   -1.6380   22.7249 C.ar    1  UNL1       -0.0029
      9 N           6.7404   -5.3010   24.3240 N.am    1  UNL1       -0.2839
     10 C           7.2229   -5.6666   25.6964 C.2     1  UNL1        0.2279
     11 O           8.0635   -6.8392   25.2861 O.2     1  UNL1       -0.2747
     12 C           7.5027   -5.7495   27.1677 C.3     1  UNL1        0.1071
     13 C           7.5636   -5.5449   28.6524 C.3     1  UNL1        0.1053
     14 N           7.4021   -5.0646   30.0643 N.pl3   1  UNL1       -0.2823
     15 C           7.0275   -4.3367   31.3211 C.2     1  UNL1        0.0818
     16 C           6.4616   -3.4034   32.3501 C.2     1  UNL1        0.0818
     17 N           5.7373   -2.3189   33.0913 N.pl3   1  UNL1       -0.2823
     18 C           4.8966   -1.1463   33.5015 C.3     1  UNL1        0.1053
     19 C           3.9885    0.0463   33.5571 C.3     1  UNL1        0.1071
     20 C           3.0658    1.1895   33.2548 C.2     1  UNL1        0.2279
     21 O           2.9042    1.6698   34.6665 O.2     1  UNL1       -0.2747
     22 N           2.1819    2.2171   32.6121 N.am    1  UNL1       -0.2839
     23 C           1.3884    3.0691   31.6663 C.ar    1  UNL1        0.0503
     24 C           0.7313    3.6961   30.4726 C.ar    1  UNL1        0.0143
     25 C           0.2488    4.0617   29.1002 C.ar    1  UNL1       -0.0029
     26 C          -0.0311    4.1445   27.6289 C.ar    1  UNL1       -0.0202
     27 C           0.6260    3.5175   28.8225 C.ar    1  UNL1       -0.0029
     28 C           1.1085    3.1520   30.1950 C.ar    1  UNL1        0.0143
     29 C          -0.0920    3.9399   26.1441 C.3     1  UNL1        0.0530
     30 C           0.0695    3.4597   24.7322 C.3     1  UNL1        0.1553
     31 C           0.4441    2.7318   23.4753 C.2     1  UNL1        0.2390
     32 O          -0.3494    3.5838   22.5297 O.2     1  UNL1       -0.2736
     33 N           1.0100    1.7985   22.4464 N.am    1  UNL1       -0.2969
     34 C           6.1119   -3.0468   31.8343 C.2     1  UNL1        0.0818
     35 C           6.6778   -3.9801   30.8054 C.2     1  UNL1        0.0818
     36 H           7.1685   -5.9696   23.7417 H       1  UNL1        0.1549
     37 H           1.9360    2.6948   33.4370 H       1  UNL1        0.1549
     38 H           0.5787    2.2100   21.6629 H       1  UNL1        0.1499
     39 N           1.1277    2.5221   19.9411 N.am    1  UNL1       -0.2991
     40 C           1.2518    1.0795   20.3328 C.2     1  UNL1        0.2409
     41 O           0.8935    0.0025   19.3523 O.2     1  UNL1       -0.2733
     42 H           1.3629    3.2290   20.5847 H       1  UNL1        0.1498
     43 C           0.6452    2.8877   18.5686 C.3     1  UNL1        0.1164
     44 C          -3.4550    4.6600   18.0233 C.ar    1  UNL1        0.0813
     45 C          -2.5219    4.5545   16.8536 C.ar    1  UNL1        0.0071
     46 C          -1.1552    3.9638   17.0354 C.ar    1  UNL1       -0.0024
     47 C          -0.7215    3.4785   18.3868 C.ar    1  UNL1       -0.0026
     48 C          -1.6547    3.5839   19.5566 C.ar    1  UNL1       -0.0024
     49 C          -3.0214    4.1747   19.3748 C.ar    1  UNL1        0.0071
     50 N          -5.5326    5.1067   16.5286 N.2     1  UNL1       -0.0994
     51 C          -4.8217    5.2507   17.8416 C.2     1  UNL1        0.3093
     52 N          -5.4776    5.9855   18.9730 N.pl3   1  UNL1       -0.2466
     53 H          -6.4296    5.4945   16.4094 H       1  UNL1        0.3633
     54 H          -6.3746    6.3732   18.8538 H       1  UNL1        0.2884
     55 H          -5.0110    6.0800   19.8347 H       1  UNL1        0.2884
     56 N          -0.8143    4.4872   24.0895 N.3     1  UNL1       -0.1753
     57 H          -0.9355    4.2044   23.1170 H       1  UNL1        0.1489
     58 S          -2.1857    4.7463   24.6393 S.O2    1  UNL1        0.0454
     59 O          -2.3850    3.2728   24.8366 O.2     1  UNL1       -0.1572
     60 O          -1.9864    6.2198   24.4419 O.2     1  UNL1       -0.1572
     61 C          -3.5571    5.0054   25.1890 C.3     1  UNL1        0.1952
     62 C          -4.7651    4.7765   24.3298 C.ar    1  UNL1        0.0029
     63 C          -6.1391    4.9120   24.9162 C.ar    1  UNL1       -0.0025
     64 C          -7.3471    4.6831   24.0570 C.ar    1  UNL1       -0.0003
     65 C          -7.1812    4.3187   22.6114 C.ar    1  UNL1       -0.0000
     66 C          -5.8072    4.1833   22.0250 C.ar    1  UNL1       -0.0003
     67 C          -4.5991    4.4122   22.8842 C.ar    1  UNL1       -0.0025
@<TRIPOS>BOND
     1    50    51    2
     2    51    52    1
     3    51    44    1
     4    44    45   ar
     5    45    46   ar
     6    46    47   ar
     7    47    43    1
     8    43    39    1
     9    39    40   am
    10    40    41    2
    11     1    40    1
    12     1     2    1
    13     2     3    1
    14     3     4   ar
    15     4     5   ar
    16     5     6   ar
    17     6     7   ar
    18     7     8   ar
    19     6     9    1
    20     9    10   am
    21    10    11    2
    22    10    12    1
    23    12    13    1
    24    13    14    1
    25    14    15    1
    26    15    16    2
    27    16    17    1
    28    17    18    1
    29    18    19    1
    30    19    20    1
    31    20    21    2
    32    20    22   am
    33    22    23    1
    34    23    24   ar
    35    24    25   ar
    36    25    26   ar
    37    26    27   ar
    38    27    28   ar
    39    26    29    1
    40    29    30    1
    41    30    56    1
    42    56    58    1
    43    58    59    2
    44    58    60    2
    45    58    61    1
    46    61    62    1
    47    62    63   ar
    48    63    64   ar
    49    64    65   ar
    50    65    66   ar
    51    66    67   ar
    52    30    31    1
    53    31    32    2
    54    31    33   am
    55    17    34    1
    56    34    35    2
    57    47    48   ar
    58    48    49   ar
    59    49    44   ar
    60    33     1    1
    61     8     3   ar
    62    35    14    1
    63    28    23   ar
    64    67    62   ar
    65    50    53    1
    66    52    54    1
    67    52    55    1
    68    39    42    1
    69     9    36    1
    70    22    37    1
    71    56    57    1
    72    33    38    1
@<TRIPOS>MOLECULE
*****
 67 72 0 0 0
SMALL
GASTEIGER

@<TRIPOS>ATOM
      1 C           4.6791    0.3386   31.6457 C.3     1  UNL1        0.1530
      2 C           3.7099    1.4616   31.8682 C.3     1  UNL1        0.0553
      3 C           2.6733    2.5381   31.7386 C.ar    1  UNL1       -0.0199
      4 C           1.8803    3.6216   32.4072 C.ar    1  UNL1       -0.0029
      5 C           0.8903    4.4236   31.6158 C.ar    1  UNL1        0.0143
      6 C           0.6933    4.1422   30.1556 C.ar    1  UNL1        0.0503
      7 C           1.4862    3.0587   29.4870 C.ar    1  UNL1        0.0143
      8 C           2.4763    2.2566   30.2784 C.ar    1  UNL1       -0.0029
      9 N          -0.9560    5.2418   28.1382 N.am    1  UNL1       -0.2839
     10 C          -1.4689    5.3196   26.7308 C.2     1  UNL1        0.2279
     11 O          -2.4382    6.4425   26.9533 O.2     1  UNL1       -0.2747
     12 C          -1.7482    5.1267   25.2697 C.3     1  UNL1        0.1071
     13 C          -1.7776    4.6742   23.8398 C.3     1  UNL1        0.1053
     14 N          -1.5553    3.9886   22.5243 N.pl3   1  UNL1       -0.2823
     15 C          -1.0944    3.1096   21.3997 C.2     1  UNL1        0.0818
     16 C          -0.4216    2.0883   20.5311 C.2     1  UNL1        0.0818
     17 N           0.4239    0.9841   19.9692 N.pl3   1  UNL1       -0.2823
     18 C           1.3932   -0.1389   19.7466 C.3     1  UNL1        0.1053
     19 C           2.4297   -1.2154   19.8762 C.3     1  UNL1        0.1071
     20 C           3.4733   -2.1827   20.3506 C.2     1  UNL1        0.2279
     21 O           3.6956   -2.8684   19.0351 O.2     1  UNL1       -0.2747
     22 N           4.4634   -2.9848   21.1420 N.am    1  UNL1       -0.2839
     23 C           5.3424   -3.5750   22.2046 C.ar    1  UNL1        0.0503
     24 C           6.0591   -3.9190   23.4766 C.ar    1  UNL1        0.0143
     25 C           6.5720   -3.9969   24.8841 C.ar    1  UNL1       -0.0029
     26 C           6.8513   -3.8039   26.3451 C.ar    1  UNL1       -0.0202
     27 C           6.1345   -3.4599   25.0732 C.ar    1  UNL1       -0.0029
     28 C           5.6216   -3.3821   23.6658 C.ar    1  UNL1        0.0143
     29 C           6.8806   -3.3515   27.7750 C.3     1  UNL1        0.0530
     30 C           6.6584   -2.6659   29.0905 C.3     1  UNL1        0.1553
     31 C           6.1975   -1.7869   30.2152 C.2     1  UNL1        0.2390
     32 O           7.0764   -2.3771   31.2778 O.2     1  UNL1       -0.2736
     33 N           5.5247   -0.7656   31.0837 N.am    1  UNL1       -0.2969
     34 C          -0.0369    1.8631   21.0939 C.2     1  UNL1        0.0818
     35 C          -0.7097    2.8844   21.9625 C.2     1  UNL1        0.0818
     36 H          -1.4597    5.9452   28.6080 H       1  UNL1        0.1549
     37 H           4.7659   -3.5618   20.4038 H       1  UNL1        0.1549
     38 H           5.9951   -0.9914   31.9185 H       1  UNL1        0.1499
     39 N           4.2416    0.0027   34.1845 N.am    1  UNL1       -0.2991
     40 C           5.1920    0.2608   33.0531 C.2     1  UNL1        0.2409
     41 O           6.6553    0.4412   33.3290 O.2     1  UNL1       -0.2733
     42 H           3.2812   -0.1157   34.0033 H       1  UNL1        0.1498
     43 C           4.7545   -0.0751   35.5919 C.3     1  UNL1        0.1164
     44 C           4.0520    3.3418   38.4346 C.ar    1  UNL1        0.0813
     45 C           5.3606    2.6090   38.4517 C.ar    1  UNL1        0.0071
     46 C           5.5948    1.4700   37.5041 C.ar    1  UNL1       -0.0024
     47 C           4.5203    1.0639   36.5395 C.ar    1  UNL1       -0.0026
     48 C           3.2116    1.7967   36.5224 C.ar    1  UNL1       -0.0024
     49 C           2.9774    2.9357   37.4700 C.ar    1  UNL1        0.0071
     50 N           3.5200    4.2059   40.8264 N.2     1  UNL1       -0.0994
     51 C           3.8177    4.4808   39.3821 C.2     1  UNL1        0.3093
     52 N           3.8811    5.8947   38.8853 N.pl3   1  UNL1       -0.2466
     53 H           3.3663    4.9535   41.4482 H       1  UNL1        0.3633
     54 H           3.7274    6.6423   39.5072 H       1  UNL1        0.2884
     55 H           4.0765    6.0752   37.9374 H       1  UNL1        0.2884
     56 N           7.6484   -3.4679   29.8820 N.3     1  UNL1       -0.1753
     57 H           7.2704   -3.5543   30.8254 H       1  UNL1        0.1489
     58 S           8.0205   -4.8511   29.4363 S.O2    1  UNL1        0.0454
     59 O           9.4481   -4.4174   29.2824 O.2     1  UNL1       -0.1572
     60 O           6.5929   -5.2848   29.5902 O.2     1  UNL1       -0.1572
     61 C           8.3926   -6.2342   28.9907 C.3     1  UNL1        0.1952
     62 C           8.4447   -6.5622   27.5279 C.ar    1  UNL1        0.0029
     63 C           9.4830   -5.9249   26.6529 C.ar    1  UNL1       -0.0025
     64 C           9.5351   -6.2529   25.1901 C.ar    1  UNL1       -0.0003
     65 C           8.5490   -7.2183   24.6024 C.ar    1  UNL1       -0.0000
     66 C           7.5107   -7.8557   25.4774 C.ar    1  UNL1       -0.0003
     67 C           7.4585   -7.5277   26.9402 C.ar    1  UNL1       -0.0025
@<TRIPOS>BOND
     1    50    51    2
     2    51    52    1
     3    51    44    1
     4    44    45   ar
     5    45    46   ar
     6    46    47   ar
     7    47    43    1
     8    43    39    1
     9    39    40   am
    10    40    41    2
    11     1    40    1
    12     1     2    1
    13     2     3    1
    14     3     4   ar
    15     4     5   ar
    16     5     6   ar
    17     6     7   ar
    18     7     8   ar
    19     6     9    1
    20     9    10   am
    21    10    11    2
    22    10    12    1
    23    12    13    1
    24    13    14    1
    25    14    15    1
    26    15    16    2
    27    16    17    1
    28    17    18    1
    29    18    19    1
    30    19    20    1
    31    20    21    2
    32    20    22   am
    33    22    23    1
    34    23    24   ar
    35    24    25   ar
    36    25    26   ar
    37    26    27   ar
    38    27    28   ar
    39    26    29    1
    40    29    30    1
    41    30    56    1
    42    56    58    1
    43    58    59    2
    44    58    60    2
    45    58    61    1
    46    61    62    1
    47    62    63   ar
    48    63    64   ar
    49    64    65   ar
    50    65    66   ar
    51    66    67   ar
    52    30    31    1
    53    31    32    2
    54    31    33   am
    55    17    34    1
    56    34    35    2
    57    47    48   ar
    58    48    49   ar
    59    49    44   ar
    60    33     1    1
    61     8     3   ar
    62    35    14    1
    63    28    23   ar
    64    67    62   ar
    65    50    53    1
    66    52    54    1
    67    52    55    1
    68    39    42    1
    69     9    36    1
    70    22    37    1
    71    56    57    1
    72    33    38    1
@<TRIPOS>MOLECULE
*****
 67 72 0 0 0
SMALL
GASTEIGER

@<TRIPOS>ATOM
      1 C           1.3601    1.6770   29.5309 C.3     1  UNL1        0.1530
      2 C           0.4190    2.4190   28.6289 C.3     1  UNL1        0.0553
      3 C          -0.3364    2.9921   27.4666 C.ar    1  UNL1       -0.0199
      4 C          -1.4386    3.8910   26.9900 C.ar    1  UNL1       -0.0029
      5 C          -1.7043    4.0379   25.5211 C.ar    1  UNL1        0.0143
      6 C          -0.8679    3.2859   24.5287 C.ar    1  UNL1        0.0503
      7 C           0.2343    2.3869   25.0053 C.ar    1  UNL1        0.0143
      8 C           0.5000    2.2401   26.4742 C.ar    1  UNL1       -0.0029
      9 N          -0.8334    3.1114   21.7060 N.am    1  UNL1       -0.2839
     10 C          -0.2901    2.5892   20.4090 C.2     1  UNL1        0.2279
     11 O          -1.2313    3.3313   19.5070 O.2     1  UNL1       -0.2747
     12 C           0.4800    1.8882   19.3295 C.3     1  UNL1        0.1071
     13 C           1.4323    1.0491   18.5301 C.3     1  UNL1        0.1053
     14 N           2.5114    0.1205   18.0574 N.pl3   1  UNL1       -0.2823
     15 C           3.6545   -0.8434   17.9389 C.2     1  UNL1        0.0818
     16 C           4.7952   -1.7868   18.1813 C.2     1  UNL1        0.0818
     17 N           5.8674   -2.6547   18.7706 N.pl3   1  UNL1       -0.2823
     18 C           6.8085   -3.3967   19.6727 C.3     1  UNL1        0.1053
     19 C           7.5640   -3.9698   20.8350 C.3     1  UNL1        0.1071
     20 C           8.0898   -4.3405   22.1899 C.2     1  UNL1        0.2279
     21 O           9.1689   -5.2690   21.7173 O.2     1  UNL1       -0.2747
     22 N           8.3556   -4.4874   23.6589 N.am    1  UNL1       -0.2839
     23 C           8.3458   -4.4020   25.1564 C.ar    1  UNL1        0.0503
     24 C           8.0610   -4.0891   26.5955 C.ar    1  UNL1        0.0143
     25 C           7.5177   -3.5669   27.8925 C.ar    1  UNL1       -0.0029
     26 C           6.7475   -2.8659   28.9720 C.ar    1  UNL1       -0.0202
     27 C           7.0323   -3.1788   27.5330 C.ar    1  UNL1       -0.0029
     28 C           7.5756   -3.7009   26.2360 C.ar    1  UNL1        0.0143
     29 C           5.7952   -2.0268   29.7714 C.3     1  UNL1        0.0530
     30 C           4.7161   -1.0982   30.2441 C.3     1  UNL1        0.1553
     31 C           3.5730   -0.1342   30.3627 C.2     1  UNL1        0.2390
     32 O           3.5632   -0.0488   31.8602 O.2     1  UNL1       -0.2736
     33 N           2.4323    0.8091   30.1203 N.am    1  UNL1       -0.2969
     34 C           4.7242   -1.6907   18.8892 C.2     1  UNL1        0.0818
     35 C           3.5835   -0.7474   18.6468 C.2     1  UNL1        0.0818
     36 H          -1.5643    3.7094   21.4276 H       1  UNL1        0.1549
     37 H           9.1059   -5.1201   23.5810 H       1  UNL1        0.1549
     38 H           2.2453    1.0144   31.0648 H       1  UNL1        0.1499
     39 N           1.5776    3.2398   31.5950 N.am    1  UNL1       -0.2991
     40 C           0.8169    2.1991   30.8279 C.2     1  UNL1        0.2409
     41 O          -0.4871    1.6806   31.3578 O.2     1  UNL1       -0.2733
     42 H           2.4334    3.5801   31.2472 H       1  UNL1        0.1498
     43 C           1.0343    3.7619   32.8920 C.3     1  UNL1        0.1164
     44 C           3.0094    2.6348   36.7752 C.ar    1  UNL1        0.0813
     45 C           3.1454    1.7418   35.5777 C.ar    1  UNL1        0.0071
     46 C           2.4870    2.1175   34.2833 C.ar    1  UNL1       -0.0024
     47 C           1.6927    3.3862   34.1864 C.ar    1  UNL1       -0.0026
     48 C           1.5566    4.2793   35.3839 C.ar    1  UNL1       -0.0024
     49 C           2.2150    3.9036   36.6783 C.ar    1  UNL1        0.0071
     50 N           3.5111    0.8709   38.6155 N.2     1  UNL1       -0.0994
     51 C           3.6677    2.2593   38.0695 C.2     1  UNL1        0.3093
     52 N           4.4827    3.2720   38.8180 N.pl3   1  UNL1       -0.2466
     53 H           3.9432    0.6245   39.4650 H       1  UNL1        0.3633
     54 H           4.9148    3.0256   39.6675 H       1  UNL1        0.2884
     55 H           4.5854    4.1832   38.4596 H       1  UNL1        0.2884
     56 N           4.9819   -1.2451   31.7130 N.3     1  UNL1       -0.1753
     57 H           4.6827   -2.1847   31.9739 H       1  UNL1        0.1489
     58 S           6.3737   -1.0707   32.2446 S.O2    1  UNL1        0.0454
     59 O           6.3308   -2.4584   32.8122 O.2     1  UNL1       -0.1572
     60 O           6.4166    0.3171   31.6769 O.2     1  UNL1       -0.1572
     61 C           7.7655   -0.8963   32.7761 C.3     1  UNL1        0.1952
     62 C           7.9844   -0.6557   34.2404 C.ar    1  UNL1        0.0029
     63 C           6.8726   -0.1073   35.0848 C.ar    1  UNL1       -0.0025
     64 C           7.0916    0.1332   36.5491 C.ar    1  UNL1       -0.0003
     65 C           8.4223   -0.1746   37.1690 C.ar    1  UNL1       -0.0000
     66 C           9.5342   -0.7231   36.3246 C.ar    1  UNL1       -0.0003
     67 C           9.3152   -0.9636   34.8603 C.ar    1  UNL1       -0.0025
@<TRIPOS>BOND
     1    50    51    2
     2    51    52    1
     3    51    44    1
     4    44    45   ar
     5    45    46   ar
     6    46    47   ar
     7    47    43    1
     8    43    39    1
     9    39    40   am
    10    40    41    2
    11     1    40    1
    12     1     2    1
    13     2     3    1
    14     3     4   ar
    15     4     5   ar
    16     5     6   ar
    17     6     7   ar
    18     7     8   ar
    19     6     9    1
    20     9    10   am
    21    10    11    2
    22    10    12    1
    23    12    13    1
    24    13    14    1
    25    14    15    1
    26    15    16    2
    27    16    17    1
    28    17    18    1
    29    18    19    1
    30    19    20    1
    31    20    21    2
    32    20    22   am
    33    22    23    1
    34    23    24   ar
    35    24    25   ar
    36    25    26   ar
    37    26    27   ar
    38    27    28   ar
    39    26    29    1
    40    29    30    1
    41    30    56    1
    42    56    58    1
    43    58    59    2
    44    58    60    2
    45    58    61    1
    46    61    62    1
    47    62    63   ar
    48    63    64   ar
    49    64    65   ar
    50    65    66   ar
    51    66    67   ar
    52    30    31    1
    53    31    32    2
    54    31    33   am
    55    17    34    1
    56    34    35    2
    57    47    48   ar
    58    48    49   ar
    59    49    44   ar
    60    33     1    1
    61     8     3   ar
    62    35    14    1
    63    28    23   ar
    64    67    62   ar
    65    50    53    1
    66    52    54    1
    67    52    55    1
    68    39    42    1
    69     9    36    1
    70    22    37    1
    71    56    57    1
    72    33    38    1
@<TRIPOS>MOLECULE
*****
 67 72 0 0 0
SMALL
GASTEIGER

@<TRIPOS>ATOM
      1 C           5.5145   -1.3509   30.2771 C.3     1  UNL1        0.1530
      2 C           5.4374   -0.8320   31.6823 C.3     1  UNL1        0.0553
      3 C           5.1153   -0.0886   32.9448 C.ar    1  UNL1       -0.0199
      4 C           5.3692    0.0866   34.4127 C.ar    1  UNL1       -0.0029
      5 C           4.6267    1.1387   35.1819 C.ar    1  UNL1        0.0143
      6 C           3.6303    2.0156   34.4831 C.ar    1  UNL1        0.0503
      7 C           3.3764    1.8403   33.0152 C.ar    1  UNL1        0.0143
      8 C           4.1189    0.7883   32.2461 C.ar    1  UNL1       -0.0029
      9 N           1.9379    4.1264   35.3075 N.am    1  UNL1       -0.2839
     10 C           0.9034    5.1826   35.0537 C.2     1  UNL1        0.2279
     11 O           0.8263    5.7015   36.4590 O.2     1  UNL1       -0.2747
     12 C          -0.1125    6.1136   34.4612 C.3     1  UNL1        0.1071
     13 C          -1.0508    6.8654   33.5643 C.3     1  UNL1        0.1053
     14 N          -1.8569    7.3944   32.4152 N.pl3   1  UNL1       -0.2823
     15 C          -2.4840    7.6697   31.0807 C.2     1  UNL1        0.0818
     16 C          -2.8957    7.6754   29.6383 C.2     1  UNL1        0.0818
     17 N          -3.0680    7.4111   28.1718 N.pl3   1  UNL1       -0.2823
     18 C          -2.9908    6.8922   26.7666 C.3     1  UNL1        0.1053
     19 C          -2.6688    6.1488   25.5041 C.3     1  UNL1        0.1071
     20 C          -2.1206    5.2243   24.4579 C.2     1  UNL1        0.2279
     21 O          -2.9267    5.7532   23.3088 O.2     1  UNL1       -0.2747
     22 N          -1.3781    4.1721   23.6887 N.am    1  UNL1       -0.2839
     23 C          -0.4843    3.0536   23.2412 C.ar    1  UNL1        0.0503
     24 C           0.5086    1.9338   23.1414 C.ar    1  UNL1        0.0143
     25 C           1.5431    0.8777   23.3952 C.ar    1  UNL1       -0.0029
     26 C           2.5590   -0.0534   23.9877 C.ar    1  UNL1       -0.0202
     27 C           1.5661    1.0664   24.0875 C.ar    1  UNL1       -0.0029
     28 C           0.5316    2.1226   23.8337 C.ar    1  UNL1        0.0143
     29 C           3.4973   -0.8052   24.8845 C.3     1  UNL1        0.0530
     30 C           4.3034   -1.3342   26.0337 C.3     1  UNL1        0.1553
     31 C           4.9306   -1.6095   27.3682 C.2     1  UNL1        0.2390
     32 O           5.8242   -2.7280   26.9207 O.2     1  UNL1       -0.2736
     33 N           5.3422   -1.6152   28.8106 N.am    1  UNL1       -0.2969
     34 C          -2.4408    7.1358   29.5063 C.2     1  UNL1        0.0818
     35 C          -2.0292    7.1301   30.9488 C.2     1  UNL1        0.0818
     36 H           2.1285    4.2146   36.2693 H       1  UNL1        0.1549
     37 H          -1.7897    4.3528   22.8128 H       1  UNL1        0.1549
     38 H           5.9939   -2.3502   28.7451 H       1  UNL1        0.1499
     39 N           7.9239   -2.2654   29.9481 N.am    1  UNL1       -0.2991
     40 C           6.5490   -2.4070   30.5308 C.2     1  UNL1        0.2409
     41 O           6.2085   -3.6047   31.3672 O.2     1  UNL1       -0.2733
     42 H           8.1473   -1.4793   29.3991 H       1  UNL1        0.1498
     43 C           8.9584   -3.3216   30.2019 C.3     1  UNL1        0.1164
     44 C           8.5265   -7.3903   28.3286 C.ar    1  UNL1        0.0813
     45 C           8.0073   -6.1772   27.6152 C.ar    1  UNL1        0.0071
     46 C           8.1513   -4.8210   28.2397 C.ar    1  UNL1       -0.0024
     47 C           8.8144   -4.6778   29.5774 C.ar    1  UNL1       -0.0026
     48 C           9.3337   -5.8909   30.2908 C.ar    1  UNL1       -0.0024
     49 C           9.1897   -7.2471   29.6664 C.ar    1  UNL1        0.0071
     50 N           7.0857   -9.1435   27.0635 N.2     1  UNL1       -0.0994
     51 C           8.3826   -8.7465   27.7042 C.2     1  UNL1        0.3093
     52 N           9.5357   -9.7058   27.7206 N.pl3   1  UNL1       -0.2466
     53 H           6.9913  -10.0336   26.6537 H       1  UNL1        0.3633
     54 H           9.4413  -10.5960   27.3108 H       1  UNL1        0.2884
     55 H          10.3868   -9.4452   28.1411 H       1  UNL1        0.2884
     56 N           5.0460   -2.3863   25.2645 N.3     1  UNL1       -0.1753
     57 H           4.4901   -3.2396   25.3210 H       1  UNL1        0.1489
     58 S           5.3633   -2.1713   23.8143 S.O2    1  UNL1        0.0454
     59 O           6.3130   -1.0712   24.1852 O.2     1  UNL1       -0.1572
     60 O           4.4136   -3.2715   23.4433 O.2     1  UNL1       -0.1572
     61 C           5.6807   -1.9564   22.3641 C.3     1  UNL1        0.1952
     62 C           4.7557   -1.1450   21.5061 C.ar    1  UNL1        0.0029
     63 C           3.5973   -1.8054   20.8193 C.ar    1  UNL1       -0.0025
     64 C           2.6723   -0.9940   19.9614 C.ar    1  UNL1       -0.0003
     65 C           2.9058    0.4777   19.7903 C.ar    1  UNL1       -0.0000
     66 C           4.0643    1.1382   20.4771 C.ar    1  UNL1       -0.0003
     67 C           4.9893    0.3268   21.3351 C.ar    1  UNL1       -0.0025
@<TRIPOS>BOND
     1    50    51    2
     2    51    52    1
     3    51    44    1
     4    44    45   ar
     5    45    46   ar
     6    46    47   ar
     7    47    43    1
     8    43    39    1
     9    39    40   am
    10    40    41    2
    11     1    40    1
    12     1     2    1
    13     2     3    1
    14     3     4   ar
    15     4     5   ar
    16     5     6   ar
    17     6     7   ar
    18     7     8   ar
    19     6     9    1
    20     9    10   am
    21    10    11    2
    22    10    12    1
    23    12    13    1
    24    13    14    1
    25    14    15    1
    26    15    16    2
    27    16    17    1
    28    17    18    1
    29    18    19    1
    30    19    20    1
    31    20    21    2
    32    20    22   am
    33    22    23    1
    34    23    24   ar
    35    24    25   ar
    36    25    26   ar
    37    26    27   ar
    38    27    28   ar
    39    26    29    1
    40    29    30    1
    41    30    56    1
    42    56    58    1
    43    58    59    2
    44    58    60    2
    45    58    61    1
    46    61    62    1
    47    62    63   ar
    48    63    64   ar
    49    64    65   ar
    50    65    66   ar
    51    66    67   ar
    52    30    31    1
    53    31    32    2
    54    31    33   am
    55    17    34    1
    56    34    35    2
    57    47    48   ar
    58    48    49   ar
    59    49    44   ar
    60    33     1    1
    61     8     3   ar
    62    35    14    1
    63    28    23   ar
    64    67    62   ar
    65    50    53    1
    66    52    54    1
    67    52    55    1
    68    39    42    1
    69     9    36    1
    70    22    37    1
    71    56    57    1
    72    33    38    1
