@<TRIPOS>MOLECULE
*****
 25 27 0 0 0
SMALL
GASTEIGER

@<TRIPOS>ATOM
      1 C           6.3419   -3.2796   24.0450 C.2     1  UNL1        0.2650
      2 O           7.1802   -2.2885   23.2935 O.2     1  UNL1       -0.2684
      3 N           4.9052   -3.4863   23.6665 N.am    1  UNL1       -0.3011
      4 H           4.3549   -4.1368   24.1597 H       1  UNL1        0.1497
      5 C           7.6186   -4.7545   27.4006 C.ar    1  UNL1        0.1239
      6 N           6.8999   -3.6892   26.6268 N.ar    1  UNL1       -0.2260
      7 C           6.9402   -4.0639   25.1750 C.ar    1  UNL1        0.1517
      8 C           7.6838   -5.3608   25.0514 C.ar    1  UNL1        0.0872
      9 C           8.0333   -6.2082   23.8641 C.ar    1  UNL1        0.0193
     10 C           8.8021   -7.4823   24.0523 C.ar    1  UNL1        0.0031
     11 C           9.2213   -7.9091   25.4278 C.ar    1  UNL1        0.0191
     12 C           8.8718   -7.0617   26.6151 C.ar    1  UNL1        0.0811
     13 N           8.1031   -5.7876   26.4269 N.ar    1  UNL1       -0.2921
     14 C           6.8979   -5.5915   29.7523 C.3     1  UNL1        0.0079
     15 C           7.8178   -4.7819   28.8870 C.3     1  UNL1        0.0573
     16 C           8.9368   -3.9998   29.5083 C.3     1  UNL1        0.0079
     17 C           4.3069   -2.7019   22.5365 C.3     1  UNL1        0.0747
     18 C           4.4694   -3.1791   21.1238 C.3     1  UNL1        0.0369
     19 C           3.8711   -2.3947   19.9938 C.3     1  UNL1        0.0737
     20 N           3.1105   -1.1332   20.2766 N.3     1  UNL1       -0.2738
     21 C           2.9480   -0.6560   21.6894 C.3     1  UNL1        0.0737
     22 C           3.5463   -1.4404   22.8193 C.3     1  UNL1        0.0369
     23 C           2.5122   -0.3489   19.1466 C.3     1  UNL1        0.0576
     24 C           1.1482    0.2575   19.2939 C.3     1  UNL1        0.0173
     25 C           3.2781   -0.1709   17.8692 C.3     1  UNL1        0.0173
@<TRIPOS>BOND
     1    14    15    1
     2    15    16    1
     3    15     5    1
     4     5     6   ar
     5     6     7   ar
     6     7     1    1
     7     1     2    2
     8     1     3   am
     9     3    17    1
    10    17    18    1
    11    18    19    1
    12    19    20    1
    13    20    23    1
    14    23    24    1
    15    23    25    1
    16    20    21    1
    17    21    22    1
    18     7     8   ar
    19     8     9   ar
    20     9    10   ar
    21    10    11   ar
    22    11    12   ar
    23    12    13   ar
    24    13     5   ar
    25    22    17    1
    26    13     8   ar
    27     3     4    1
@<TRIPOS>MOLECULE
*****
 25 27 0 0 0
SMALL
GASTEIGER

@<TRIPOS>ATOM
      1 C         -14.0075   -3.2966   19.6697 C.2     1  UNL1        0.2650
      2 O         -13.7926   -2.8238   21.0769 O.2     1  UNL1       -0.2684
      3 N         -14.6921   -2.4059   18.6756 N.am    1  UNL1       -0.3011
      4 H         -14.8332   -2.7162   17.7520 H       1  UNL1        0.1497
      5 C         -12.1194   -6.4920   18.5340 C.ar    1  UNL1        0.1239
      6 N         -12.1359   -5.0310   18.8733 N.ar    1  UNL1       -0.2260
      7 C         -13.5379   -4.6600   19.2566 C.ar    1  UNL1        0.1517
      8 C         -14.3878   -5.8917   19.1541 C.ar    1  UNL1        0.0872
      9 C         -15.8468   -6.1285   19.4097 C.ar    1  UNL1        0.0193
     10 C         -16.4290   -7.4976   19.2188 C.ar    1  UNL1        0.0031
     11 C         -15.5524   -8.6299   18.7722 C.ar    1  UNL1        0.0191
     12 C         -14.0934   -8.3930   18.5166 C.ar    1  UNL1        0.0811
     13 N         -13.5112   -7.0239   18.7075 N.ar    1  UNL1       -0.2921
     14 C         -10.9553   -8.0439   16.8058 C.3     1  UNL1        0.0079
     15 C         -10.9215   -7.2823   18.0977 C.3     1  UNL1        0.0573
     16 C          -9.6898   -7.3112   18.9532 C.3     1  UNL1        0.0079
     17 C         -15.1617   -1.0426   19.0888 C.3     1  UNL1        0.0747
     18 C         -14.4215    0.1775   18.6267 C.3     1  UNL1        0.0369
     19 C         -14.8911    1.5408   19.0399 C.3     1  UNL1        0.0737
     20 N         -16.1009    1.6841   19.9151 N.3     1  UNL1       -0.2738
     21 C         -16.8411    0.4640   20.3772 C.3     1  UNL1        0.0737
     22 C         -16.3715   -0.8993   19.9640 C.3     1  UNL1        0.0369
     23 C         -16.5704    3.0475   20.3283 C.3     1  UNL1        0.0576
     24 C         -15.6505    3.9609   21.0828 C.3     1  UNL1        0.0173
     25 C         -17.9600    3.4975   19.9868 C.3     1  UNL1        0.0173
@<TRIPOS>BOND
     1    14    15    1
     2    15    16    1
     3    15     5    1
     4     5     6   ar
     5     6     7   ar
     6     7     1    1
     7     1     2    2
     8     1     3   am
     9     3    17    1
    10    17    18    1
    11    18    19    1
    12    19    20    1
    13    20    23    1
    14    23    24    1
    15    23    25    1
    16    20    21    1
    17    21    22    1
    18     7     8   ar
    19     8     9   ar
    20     9    10   ar
    21    10    11   ar
    22    11    12   ar
    23    12    13   ar
    24    13     5   ar
    25    22    17    1
    26    13     8   ar
    27     3     4    1
@<TRIPOS>MOLECULE
*****
 25 27 0 0 0
SMALL
GASTEIGER

@<TRIPOS>ATOM
      1 C           6.0000   -3.3890   24.6296 C.2     1  UNL1        0.2650
      2 O           6.2243   -2.2201   25.5423 O.2     1  UNL1       -0.2684
      3 N           6.4235   -4.7641   25.0541 N.am    1  UNL1       -0.3011
      4 H           6.2763   -5.5313   24.4551 H       1  UNL1        0.1497
      5 C           4.7468   -3.4422   20.9565 C.ar    1  UNL1        0.1239
      6 N           5.6050   -3.9939   22.0561 N.ar    1  UNL1       -0.2260
      7 C           5.3521   -3.1832   23.2925 C.ar    1  UNL1        0.1517
      8 C           4.3377   -2.1303   22.9570 C.ar    1  UNL1        0.0872
      9 C           3.7064   -1.0466   23.7797 C.ar    1  UNL1        0.0193
     10 C           2.7009   -0.1229   23.1586 C.ar    1  UNL1        0.0031
     11 C           2.3268   -0.2830   21.7149 C.ar    1  UNL1        0.0191
     12 C           2.9581   -1.3668   20.8922 C.ar    1  UNL1        0.0811
     13 N           3.9636   -2.2904   21.5133 N.ar    1  UNL1       -0.2921
     14 C           3.9773   -5.2420   19.2480 C.3     1  UNL1        0.0079
     15 C           4.6830   -3.9526   19.5474 C.3     1  UNL1        0.0573
     16 C           5.3249   -3.1738   18.4378 C.3     1  UNL1        0.0079
     17 C           7.0714   -4.9699   26.3912 C.3     1  UNL1        0.0747
     18 C           8.5516   -4.7817   26.5443 C.3     1  UNL1        0.0369
     19 C           9.1994   -4.9875   27.8814 C.3     1  UNL1        0.0737
     20 N           8.3670   -5.3817   29.0654 N.3     1  UNL1       -0.2738
     21 C           6.8868   -5.5699   28.9123 C.3     1  UNL1        0.0737
     22 C           6.2390   -5.3640   27.5752 C.3     1  UNL1        0.0369
     23 C           9.0150   -5.5875   30.4025 C.3     1  UNL1        0.0576
     24 C           9.4591   -6.9588   30.8177 C.3     1  UNL1        0.0173
     25 C           9.2187   -4.4220   31.3245 C.3     1  UNL1        0.0173
@<TRIPOS>BOND
     1    14    15    1
     2    15    16    1
     3    15     5    1
     4     5     6   ar
     5     6     7   ar
     6     7     1    1
     7     1     2    2
     8     1     3   am
     9     3    17    1
    10    17    18    1
    11    18    19    1
    12    19    20    1
    13    20    23    1
    14    23    24    1
    15    23    25    1
    16    20    21    1
    17    21    22    1
    18     7     8   ar
    19     8     9   ar
    20     9    10   ar
    21    10    11   ar
    22    11    12   ar
    23    12    13   ar
    24    13     5   ar
    25    22    17    1
    26    13     8   ar
    27     3     4    1
@<TRIPOS>MOLECULE
*****
 25 27 0 0 0
SMALL
GASTEIGER

@<TRIPOS>ATOM
      1 C           4.7540   -1.5397   33.3296 C.2     1  UNL1        0.2650
      2 O           3.8580   -2.7370   33.2144 O.2     1  UNL1       -0.2684
      3 N           5.9738   -1.4296   32.4634 N.am    1  UNL1       -0.3011
      4 H           6.5619   -0.6437   32.5389 H       1  UNL1        0.1497
      5 C           4.3483    0.8757   36.3407 C.ar    1  UNL1        0.1239
      6 N           4.9131   -0.3719   35.7288 N.ar    1  UNL1       -0.2260
      7 C           4.4304   -0.4523   34.3109 C.ar    1  UNL1        0.1517
      8 C           3.5672    0.7456   34.0464 C.ar    1  UNL1        0.0872
      9 C           2.8208    1.1951   32.8254 C.ar    1  UNL1        0.0193
     10 C           2.0237    2.4653   32.8590 C.ar    1  UNL1        0.0031
     11 C           1.9730    3.2860   34.1135 C.ar    1  UNL1        0.0191
     12 C           2.7193    2.8366   35.3345 C.ar    1  UNL1        0.0811
     13 N           3.5164    1.5664   35.3010 N.ar    1  UNL1       -0.2921
     14 C           5.8712    2.0089   38.1146 C.3     1  UNL1        0.0079
     15 C           4.5753    1.3494   37.7457 C.3     1  UNL1        0.0573
     16 C           3.5068    1.1638   38.7817 C.3     1  UNL1        0.0079
     17 C           6.2974   -2.5170   31.4821 C.3     1  UNL1        0.0747
     18 C           6.7382   -3.8638   31.9736 C.3     1  UNL1        0.0369
     19 C           7.0619   -4.9512   30.9923 C.3     1  UNL1        0.0737
     20 N           6.9446   -4.6916   29.5196 N.3     1  UNL1       -0.2738
     21 C           6.5038   -3.3448   29.0281 C.3     1  UNL1        0.0737
     22 C           6.1802   -2.2574   30.0094 C.3     1  UNL1        0.0369
     23 C           7.2683   -5.7791   28.5384 C.3     1  UNL1        0.0576
     24 C           8.2653   -6.8408   28.8972 C.3     1  UNL1        0.0173
     25 C           6.5949   -5.8048   27.1983 C.3     1  UNL1        0.0173
@<TRIPOS>BOND
     1    14    15    1
     2    15    16    1
     3    15     5    1
     4     5     6   ar
     5     6     7   ar
     6     7     1    1
     7     1     2    2
     8     1     3   am
     9     3    17    1
    10    17    18    1
    11    18    19    1
    12    19    20    1
    13    20    23    1
    14    23    24    1
    15    23    25    1
    16    20    21    1
    17    21    22    1
    18     7     8   ar
    19     8     9   ar
    20     9    10   ar
    21    10    11   ar
    22    11    12   ar
    23    12    13   ar
    24    13     5   ar
    25    22    17    1
    26    13     8   ar
    27     3     4    1
@<TRIPOS>MOLECULE
*****
 25 27 0 0 0
SMALL
GASTEIGER

@<TRIPOS>ATOM
      1 C          -7.6199  -18.0269   23.0573 C.2     1  UNL1        0.2650
      2 O          -7.9963  -16.7971   23.8291 O.2     1  UNL1       -0.2684
      3 N          -8.6444  -19.0911   22.7961 N.am    1  UNL1       -0.3011
      4 H          -8.3974  -19.8983   22.2895 H       1  UNL1        0.1497
      5 C          -3.8453  -17.8579   22.1693 C.ar    1  UNL1        0.1239
      6 N          -5.0422  -17.3358   22.9074 N.ar    1  UNL1       -0.2260
      7 C          -6.2193  -18.1926   22.5466 C.ar    1  UNL1        0.1517
      8 C          -5.7500  -19.2443   21.5855 C.ar    1  UNL1        0.0872
      9 C          -6.4691  -20.3635   20.8926 C.ar    1  UNL1        0.0193
     10 C          -5.7209  -21.2759   19.9665 C.ar    1  UNL1        0.0031
     11 C          -4.2537  -21.0691   19.7333 C.ar    1  UNL1        0.0191
     12 C          -3.5346  -19.9498   20.4262 C.ar    1  UNL1        0.0811
     13 N          -4.2827  -19.0374   21.3523 N.ar    1  UNL1       -0.2921
     14 C          -2.1973  -15.8786   21.8277 C.3     1  UNL1        0.0079
     15 C          -2.4550  -17.2988   22.2363 C.3     1  UNL1        0.0573
     16 C          -1.3225  -18.1595   22.7120 C.3     1  UNL1        0.0079
     17 C         -10.0450  -18.9254   23.3067 C.3     1  UNL1        0.0747
     18 C         -10.3855  -19.3358   24.7086 C.3     1  UNL1        0.0369
     19 C         -11.7862  -19.1701   25.2193 C.3     1  UNL1        0.0737
     20 N         -12.8462  -18.5939   24.3280 N.3     1  UNL1       -0.2738
     21 C         -12.5056  -18.1835   22.9261 C.3     1  UNL1        0.0737
     22 C         -11.1050  -18.3492   22.4154 C.3     1  UNL1        0.0369
     23 C         -14.2468  -18.4282   24.8387 C.3     1  UNL1        0.0576
     24 C         -15.3966  -18.3906   23.8762 C.3     1  UNL1        0.0173
     25 C         -14.4976  -18.3002   26.3121 C.3     1  UNL1        0.0173
@<TRIPOS>BOND
     1    14    15    1
     2    15    16    1
     3    15     5    1
     4     5     6   ar
     5     6     7   ar
     6     7     1    1
     7     1     2    2
     8     1     3   am
     9     3    17    1
    10    17    18    1
    11    18    19    1
    12    19    20    1
    13    20    23    1
    14    23    24    1
    15    23    25    1
    16    20    21    1
    17    21    22    1
    18     7     8   ar
    19     8     9   ar
    20     9    10   ar
    21    10    11   ar
    22    11    12   ar
    23    12    13   ar
    24    13     5   ar
    25    22    17    1
    26    13     8   ar
    27     3     4    1
@<TRIPOS>MOLECULE
*****
 25 27 0 0 0
SMALL
GASTEIGER

@<TRIPOS>ATOM
      1 C           3.3768   -0.3029   25.5139 C.2     1  UNL1        0.2650
      2 O           3.5581    1.1138   25.9719 O.2     1  UNL1       -0.2684
      3 N           3.2840   -1.4107   26.5211 N.am    1  UNL1       -0.3011
      4 H           3.1650   -2.3406   26.2206 H       1  UNL1        0.1497
      5 C           2.6668   -0.5230   21.7044 C.ar    1  UNL1        0.1239
      6 N           2.4511    0.1201   23.0422 N.ar    1  UNL1       -0.2260
      7 C           3.2882   -0.6121   24.0488 C.ar    1  UNL1        0.1517
      8 C           4.0213   -1.7077   23.3330 C.ar    1  UNL1        0.0872
      9 C           4.9888   -2.7483   23.8134 C.ar    1  UNL1        0.0193
     10 C           5.5723   -3.7339   22.8449 C.ar    1  UNL1        0.0031
     11 C           5.1883   -3.6789   21.3960 C.ar    1  UNL1        0.0191
     12 C           4.2207   -2.6382   20.9155 C.ar    1  UNL1        0.0811
     13 N           3.6372   -1.6526   21.8841 N.ar    1  UNL1       -0.2921
     14 C           0.5321   -0.1512   20.2708 C.3     1  UNL1        0.0079
     15 C           2.0248   -0.1092   20.4134 C.3     1  UNL1        0.0573
     16 C           2.8753    0.3467   19.2651 C.3     1  UNL1        0.0079
     17 C           3.3726   -1.1016   27.9863 C.3     1  UNL1        0.0747
     18 C           2.1497   -0.6614   28.7351 C.3     1  UNL1        0.0369
     19 C           2.2383   -0.3522   30.2002 C.3     1  UNL1        0.0737
     20 N           3.5497   -0.4833   30.9164 N.3     1  UNL1       -0.2738
     21 C           4.7725   -0.9235   30.1676 C.3     1  UNL1        0.0737
     22 C           4.6840   -1.2326   28.7025 C.3     1  UNL1        0.0369
     23 C           3.6381   -0.1741   32.3816 C.3     1  UNL1        0.0576
     24 C           3.0580    1.1021   32.9153 C.3     1  UNL1        0.0173
     25 C           4.3067   -1.1412   33.3131 C.3     1  UNL1        0.0173
@<TRIPOS>BOND
     1    14    15    1
     2    15    16    1
     3    15     5    1
     4     5     6   ar
     5     6     7   ar
     6     7     1    1
     7     1     2    2
     8     1     3   am
     9     3    17    1
    10    17    18    1
    11    18    19    1
    12    19    20    1
    13    20    23    1
    14    23    24    1
    15    23    25    1
    16    20    21    1
    17    21    22    1
    18     7     8   ar
    19     8     9   ar
    20     9    10   ar
    21    10    11   ar
    22    11    12   ar
    23    12    13   ar
    24    13     5   ar
    25    22    17    1
    26    13     8   ar
    27     3     4    1
@<TRIPOS>MOLECULE
*****
 25 27 0 0 0
SMALL
GASTEIGER

@<TRIPOS>ATOM
      1 C           5.3466   -2.3670   21.2623 C.2     1  UNL1        0.2650
      2 O           4.5272   -3.6227   21.3018 O.2     1  UNL1       -0.2684
      3 N           6.4857   -2.1842   22.2210 N.am    1  UNL1       -0.3011
      4 H           7.0236   -1.3600   22.1951 H       1  UNL1        0.1497
      5 C           5.2645    0.4249   18.5671 C.ar    1  UNL1        0.1239
      6 N           6.0193   -0.5539   19.4170 N.ar    1  UNL1       -0.2260
      7 C           5.0270   -1.2939   20.2641 C.ar    1  UNL1        0.1517
      8 C           3.6588   -0.7725   19.9378 C.ar    1  UNL1        0.0872
      9 C           2.2984   -1.1278   20.4602 C.ar    1  UNL1        0.0193
     10 C           1.0848   -0.4208   19.9338 C.ar    1  UNL1        0.0031
     11 C           1.2316    0.6415   18.8849 C.ar    1  UNL1        0.0191
     12 C           2.5920    0.9967   18.3626 C.ar    1  UNL1        0.0811
     13 N           3.8056    0.2897   18.8890 N.ar    1  UNL1       -0.2921
     14 C           6.6245    0.8397   16.3926 C.3     1  UNL1        0.0079
     15 C           5.8633    1.3724   17.5703 C.3     1  UNL1        0.0573
     16 C           5.7010    2.8525   17.7512 C.3     1  UNL1        0.0079
     17 C           6.8054   -3.2573   23.2192 C.3     1  UNL1        0.0747
     18 C           7.6397   -4.4355   22.8124 C.3     1  UNL1        0.0369
     19 C           7.9593   -5.5086   23.8106 C.3     1  UNL1        0.0737
     20 N           7.4446   -5.4033   25.2156 N.3     1  UNL1       -0.2738
     21 C           6.6103   -4.2251   25.6224 C.3     1  UNL1        0.0737
     22 C           6.2907   -3.1521   24.6242 C.3     1  UNL1        0.0369
     23 C           7.7643   -6.4765   26.2137 C.3     1  UNL1        0.0576
     24 C           7.8910   -7.9028   25.7670 C.3     1  UNL1        0.0173
     25 C           7.9572   -6.1232   27.6587 C.3     1  UNL1        0.0173
@<TRIPOS>BOND
     1    14    15    1
     2    15    16    1
     3    15     5    1
     4     5     6   ar
     5     6     7   ar
     6     7     1    1
     7     1     2    2
     8     1     3   am
     9     3    17    1
    10    17    18    1
    11    18    19    1
    12    19    20    1
    13    20    23    1
    14    23    24    1
    15    23    25    1
    16    20    21    1
    17    21    22    1
    18     7     8   ar
    19     8     9   ar
    20     9    10   ar
    21    10    11   ar
    22    11    12   ar
    23    12    13   ar
    24    13     5   ar
    25    22    17    1
    26    13     8   ar
    27     3     4    1
@<TRIPOS>MOLECULE
*****
 25 27 0 0 0
SMALL
GASTEIGER

@<TRIPOS>ATOM
      1 C           2.3856    2.1238   32.7559 C.2     1  UNL1        0.2650
      2 O           3.4482    1.9598   31.7100 O.2     1  UNL1       -0.2684
      3 N           0.9575    2.3333   32.3476 N.am    1  UNL1       -0.3011
      4 H           0.2600    2.4409   33.0341 H       1  UNL1        0.1497
      5 C           2.7888    2.5233   36.5955 C.ar    1  UNL1        0.1239
      6 N           2.1171    2.8851   35.3041 N.ar    1  UNL1       -0.2260
      7 C           2.7510    2.0782   34.2100 C.ar    1  UNL1        0.1517
      8 C           3.8145    1.2176   34.8253 C.ar    1  UNL1        0.0872
      9 C           4.7646    0.2191   34.2335 C.ar    1  UNL1        0.0193
     10 C           5.7380   -0.5043   35.1161 C.ar    1  UNL1        0.0031
     11 C           5.7614   -0.2292   36.5904 C.ar    1  UNL1        0.0191
     12 C           4.8113    0.7693   37.1822 C.ar    1  UNL1        0.0811
     13 N           3.8378    1.4927   36.2996 N.ar    1  UNL1       -0.2921
     14 C           3.2231    4.2833   38.4568 C.3     1  UNL1        0.0079
     15 C           2.4679    3.0921   37.9459 C.3     1  UNL1        0.0573
     16 C           1.3918    2.4700   38.7854 C.3     1  UNL1        0.0079
     17 C           0.5921    2.3789   30.8935 C.3     1  UNL1        0.0747
     18 C           0.7509    3.6542   30.1200 C.3     1  UNL1        0.0369
     19 C           0.3855    3.6998   28.6659 C.3     1  UNL1        0.0737
     20 N          -0.1387    2.4701   27.9854 N.3     1  UNL1       -0.2738
     21 C          -0.2975    1.1948   28.7589 C.3     1  UNL1        0.0737
     22 C           0.0679    1.1492   30.2130 C.3     1  UNL1        0.0369
     23 C          -0.5040    2.5157   26.5312 C.3     1  UNL1        0.0576
     24 C          -0.1324    1.3770   25.6284 C.3     1  UNL1        0.0173
     25 C          -1.2411    3.7002   25.9800 C.3     1  UNL1        0.0173
@<TRIPOS>BOND
     1    14    15    1
     2    15    16    1
     3    15     5    1
     4     5     6   ar
     5     6     7   ar
     6     7     1    1
     7     1     2    2
     8     1     3   am
     9     3    17    1
    10    17    18    1
    11    18    19    1
    12    19    20    1
    13    20    23    1
    14    23    24    1
    15    23    25    1
    16    20    21    1
    17    21    22    1
    18     7     8   ar
    19     8     9   ar
    20     9    10   ar
    21    10    11   ar
    22    11    12   ar
    23    12    13   ar
    24    13     5   ar
    25    22    17    1
    26    13     8   ar
    27     3     4    1
@<TRIPOS>MOLECULE
*****
 25 27 0 0 0
SMALL
GASTEIGER

@<TRIPOS>ATOM
      1 C           4.2238    1.6804   38.0104 C.2     1  UNL1        0.2650
      2 O           3.5190    0.9567   39.1191 O.2     1  UNL1       -0.2684
      3 N           4.9502    2.9618   38.2939 N.am    1  UNL1       -0.3011
      4 H           5.4128    3.4368   37.5662 H       1  UNL1        0.1497
      5 C           4.6419   -0.2783   34.6856 C.ar    1  UNL1        0.1239
      6 N           4.9546   -0.0836   36.1397 N.ar    1  UNL1       -0.2260
      7 C           4.2023    1.1227   36.6180 C.ar    1  UNL1        0.1517
      8 C           3.4246    1.6735   35.4596 C.ar    1  UNL1        0.0872
      9 C           2.5042    2.8516   35.3380 C.ar    1  UNL1        0.0193
     10 C           1.8554    3.1638   34.0221 C.ar    1  UNL1        0.0031
     11 C           2.1272    2.2979   32.8278 C.ar    1  UNL1        0.0191
     12 C           3.0476    1.1198   32.9494 C.ar    1  UNL1        0.0811
     13 N           3.6963    0.8076   34.2653 N.ar    1  UNL1       -0.2921
     14 C           4.3315   -2.5630   33.4880 C.3     1  UNL1        0.0079
     15 C           5.1803   -1.3678   33.8062 C.3     1  UNL1        0.0573
     16 C           6.5672   -1.2620   33.2450 C.3     1  UNL1        0.0079
     17 C           4.9717    3.5195   39.6862 C.3     1  UNL1        0.0747
     18 C           6.1081    3.1906   40.6083 C.3     1  UNL1        0.0369
     19 C           6.1297    3.7482   42.0006 C.3     1  UNL1        0.0737
     20 N           5.0148    4.6348   42.4708 N.3     1  UNL1       -0.2738
     21 C           3.8784    4.9637   41.5487 C.3     1  UNL1        0.0737
     22 C           3.8568    4.4060   40.1564 C.3     1  UNL1        0.0369
     23 C           5.0364    5.1924   43.8632 C.3     1  UNL1        0.0576
     24 C           4.0192    6.2138   44.2780 C.3     1  UNL1        0.0173
     25 C           6.0752    4.7286   44.8407 C.3     1  UNL1        0.0173
@<TRIPOS>BOND
     1    14    15    1
     2    15    16    1
     3    15     5    1
     4     5     6   ar
     5     6     7   ar
     6     7     1    1
     7     1     2    2
     8     1     3   am
     9     3    17    1
    10    17    18    1
    11    18    19    1
    12    19    20    1
    13    20    23    1
    14    23    24    1
    15    23    25    1
    16    20    21    1
    17    21    22    1
    18     7     8   ar
    19     8     9   ar
    20     9    10   ar
    21    10    11   ar
    22    11    12   ar
    23    12    13   ar
    24    13     5   ar
    25    22    17    1
    26    13     8   ar
    27     3     4    1
