@<TRIPOS>MOLECULE
*****
 12 14 0 0 0
SMALL
GASTEIGER

@<TRIPOS>ATOM
      1 O           6.4469   -9.4935   18.5075 O.3     1  UNL1       -0.3845
      2 C           6.0678  -10.9439   18.4574 C.3     1  UNL1        0.1104
      3 C           4.9184  -11.3896   17.6027 C.3     1  UNL1        0.0269
      4 C           3.7690  -11.8353   16.7481 C.3     1  UNL1        0.0024
      5 C           3.3899  -13.2857   16.6981 C.3     1  UNL1        0.0002
      6 C           4.1601  -14.2904   17.5026 C.3     1  UNL1        0.0000
      7 C           5.3094  -13.8448   18.3572 C.3     1  UNL1        0.0002
      8 C           5.6885  -12.3944   18.4073 C.3     1  UNL1        0.0024
      9 C           6.4587  -13.3992   19.2118 C.3     1  UNL1        0.0024
     10 C           6.8379  -11.9487   19.2619 C.3     1  UNL1        0.0269
     11 C           4.2724  -12.1910   17.2204 C.3     1  UNL1        0.0024
     12 H           5.8530   -8.9841   17.9342 H       1  UNL1        0.2103
@<TRIPOS>BOND
     1     1     2    1
     2     2     3    1
     3     3     4    1
     4     4     5    1
     5     5     6    1
     6     6     7    1
     7     7     8    1
     8     7     9    1
     9     9    10    1
    10    10    11    1
    11    10     2    1
    12     8     3    1
    13    11     5    1
    14     1    12    1
@<TRIPOS>MOLECULE
*****
 12 14 0 0 0
SMALL
GASTEIGER

@<TRIPOS>ATOM
      1 O         -12.2122  -15.4317   19.0305 O.3     1  UNL1       -0.3845
      2 C         -12.0345  -16.4608   20.1072 C.3     1  UNL1        0.1104
      3 C         -11.2810  -17.7255   19.8189 C.3     1  UNL1        0.0269
      4 C         -10.5276  -18.9901   19.5307 C.3     1  UNL1        0.0024
      5 C         -10.3499  -20.0192   20.6074 C.3     1  UNL1        0.0002
      6 C         -10.9256  -19.7837   21.9723 C.3     1  UNL1        0.0000
      7 C         -11.6790  -18.5191   22.2606 C.3     1  UNL1        0.0002
      8 C         -11.8568  -17.4900   21.1839 C.3     1  UNL1        0.0024
      9 C         -12.4325  -17.2545   22.5488 C.3     1  UNL1        0.0024
     10 C         -12.6102  -16.2254   21.4721 C.3     1  UNL1        0.0269
     11 C         -10.8875  -18.6949   20.1522 C.3     1  UNL1        0.0024
     12 H         -11.7827  -15.7379   18.2164 H       1  UNL1        0.2103
@<TRIPOS>BOND
     1     1     2    1
     2     2     3    1
     3     3     4    1
     4     4     5    1
     5     5     6    1
     6     6     7    1
     7     7     8    1
     8     7     9    1
     9     9    10    1
    10    10    11    1
    11    10     2    1
    12     8     3    1
    13    11     5    1
    14     1    12    1
@<TRIPOS>MOLECULE
*****
 12 14 0 0 0
SMALL
GASTEIGER

@<TRIPOS>ATOM
      1 O           5.5425  -13.6793   26.1805 O.3     1  UNL1       -0.3845
      2 C           4.6327  -13.3120   27.3150 C.3     1  UNL1        0.1104
      3 C           3.2692  -13.9294   27.4132 C.3     1  UNL1        0.0269
      4 C           1.9057  -14.5468   27.5113 C.3     1  UNL1        0.0024
      5 C           0.9960  -14.1795   28.6459 C.3     1  UNL1        0.0002
      6 C           1.4497  -13.1947   29.6824 C.3     1  UNL1        0.0000
      7 C           2.8131  -12.5773   29.5843 C.3     1  UNL1        0.0002
      8 C           3.7229  -12.9446   28.4497 C.3     1  UNL1        0.0024
      9 C           4.1766  -11.9598   29.4862 C.3     1  UNL1        0.0024
     10 C           5.0865  -12.3272   28.3516 C.3     1  UNL1        0.0269
     11 C           2.3084  -14.0351   27.9341 C.3     1  UNL1        0.0024
     12 H           5.0989  -14.3225   25.6056 H       1  UNL1        0.2103
@<TRIPOS>BOND
     1     1     2    1
     2     2     3    1
     3     3     4    1
     4     4     5    1
     5     5     6    1
     6     6     7    1
     7     7     8    1
     8     7     9    1
     9     9    10    1
    10    10    11    1
    11    10     2    1
    12     8     3    1
    13    11     5    1
    14     1    12    1
@<TRIPOS>MOLECULE
*****
 12 14 0 0 0
SMALL
GASTEIGER

@<TRIPOS>ATOM
      1 O         -10.2906  -20.1274   25.7391 O.3     1  UNL1       -0.3845
      2 C         -10.5673  -19.6963   24.3294 C.3     1  UNL1        0.1104
      3 C         -11.7489  -18.8219   24.0307 C.3     1  UNL1        0.0269
      4 C         -12.9306  -17.9475   23.7321 C.3     1  UNL1        0.0024
      5 C         -13.2072  -17.5163   22.3223 C.3     1  UNL1        0.0002
      6 C         -12.3023  -17.9595   21.2112 C.3     1  UNL1        0.0000
      7 C         -11.1206  -18.8338   21.5098 C.3     1  UNL1        0.0002
      8 C         -10.8440  -19.2650   22.9195 C.3     1  UNL1        0.0024
      9 C          -9.9390  -19.7082   21.8084 C.3     1  UNL1        0.0024
     10 C          -9.6623  -20.1394   23.2182 C.3     1  UNL1        0.0269
     11 C         -12.3653  -18.2701   23.3087 C.3     1  UNL1        0.0024
     12 H         -10.9655  -19.7566   26.3290 H       1  UNL1        0.2103
@<TRIPOS>BOND
     1     1     2    1
     2     2     3    1
     3     3     4    1
     4     4     5    1
     5     5     6    1
     6     6     7    1
     7     7     8    1
     8     7     9    1
     9     9    10    1
    10    10    11    1
    11    10     2    1
    12     8     3    1
    13    11     5    1
    14     1    12    1
@<TRIPOS>MOLECULE
*****
 12 14 0 0 0
SMALL
GASTEIGER

@<TRIPOS>ATOM
      1 O         -10.3588  -20.0850   25.3830 O.3     1  UNL1       -0.3845
      2 C         -11.0240  -19.3801   24.2383 C.3     1  UNL1        0.1104
      3 C         -10.4392  -19.4707   22.8599 C.3     1  UNL1        0.0269
      4 C          -9.8544  -19.5613   21.4816 C.3     1  UNL1        0.0024
      5 C         -10.5196  -18.8564   20.3369 C.3     1  UNL1        0.0002
      6 C         -11.7696  -18.0608   20.5704 C.3     1  UNL1        0.0000
      7 C         -12.3544  -17.9701   21.9487 C.3     1  UNL1        0.0002
      8 C         -11.6892  -18.6751   23.0934 C.3     1  UNL1        0.0024
      9 C         -12.9392  -17.8795   23.3270 C.3     1  UNL1        0.0024
     10 C         -12.2740  -18.5845   24.4718 C.3     1  UNL1        0.0269
     11 C         -10.4732  -19.2110   21.7936 C.3     1  UNL1        0.0024
     12 H          -9.5696  -20.5489   25.0624 H       1  UNL1        0.2103
@<TRIPOS>BOND
     1     1     2    1
     2     2     3    1
     3     3     4    1
     4     4     5    1
     5     5     6    1
     6     6     7    1
     7     7     8    1
     8     7     9    1
     9     9    10    1
    10    10    11    1
    11    10     2    1
    12     8     3    1
    13    11     5    1
    14     1    12    1
@<TRIPOS>MOLECULE
*****
 12 14 0 0 0
SMALL
GASTEIGER

@<TRIPOS>ATOM
      1 O         -12.2341  -16.1559   19.2786 O.3     1  UNL1       -0.3845
      2 C         -11.7780  -17.2252   20.2266 C.3     1  UNL1        0.1104
      3 C         -12.3225  -17.2712   21.6235 C.3     1  UNL1        0.0269
      4 C         -12.8671  -17.3171   23.0204 C.3     1  UNL1        0.0024
      5 C         -12.4109  -18.3863   23.9684 C.3     1  UNL1        0.0002
      6 C         -11.4103  -19.4097   23.5194 C.3     1  UNL1        0.0000
      7 C         -10.8658  -19.3637   22.1225 C.3     1  UNL1        0.0002
      8 C         -11.3219  -18.2945   21.1746 C.3     1  UNL1        0.0024
      9 C         -10.3213  -19.3178   20.7256 C.3     1  UNL1        0.0024
     10 C         -10.7774  -18.2485   19.7776 C.3     1  UNL1        0.0269
     11 C         -12.3599  -17.7425   22.6145 C.3     1  UNL1        0.0024
     12 H         -12.8763  -15.5814   19.7241 H       1  UNL1        0.2103
@<TRIPOS>BOND
     1     1     2    1
     2     2     3    1
     3     3     4    1
     4     4     5    1
     5     5     6    1
     6     6     7    1
     7     7     8    1
     8     7     9    1
     9     9    10    1
    10    10    11    1
    11    10     2    1
    12     8     3    1
    13    11     5    1
    14     1    12    1
@<TRIPOS>MOLECULE
*****
 12 14 0 0 0
SMALL
GASTEIGER

@<TRIPOS>ATOM
      1 O           0.6637  -15.9119   27.9758 O.3     1  UNL1       -0.3845
      2 C           1.5548  -14.7477   28.2927 C.3     1  UNL1        0.1104
      3 C           2.7532  -14.4653   27.4358 C.3     1  UNL1        0.0269
      4 C           3.9515  -14.1830   26.5790 C.3     1  UNL1        0.0024
      5 C           4.8426  -13.0187   26.8959 C.3     1  UNL1        0.0002
      6 C           4.5353  -12.1368   28.0697 C.3     1  UNL1        0.0000
      7 C           3.3370  -12.4191   28.9266 C.3     1  UNL1        0.0002
      8 C           2.4459  -13.5834   28.6096 C.3     1  UNL1        0.0024
      9 C           2.1386  -12.7015   29.7834 C.3     1  UNL1        0.0024
     10 C           1.2475  -13.8658   29.4665 C.3     1  UNL1        0.0269
     11 C           3.6362  -13.8539   27.2076 C.3     1  UNL1        0.0024
     12 H           1.0016  -16.3739   27.1927 H       1  UNL1        0.2103
@<TRIPOS>BOND
     1     1     2    1
     2     2     3    1
     3     3     4    1
     4     4     5    1
     5     5     6    1
     6     6     7    1
     7     7     8    1
     8     7     9    1
     9     9    10    1
    10    10    11    1
    11    10     2    1
    12     8     3    1
    13    11     5    1
    14     1    12    1
@<TRIPOS>MOLECULE
*****
 12 14 0 0 0
SMALL
GASTEIGER

@<TRIPOS>ATOM
      1 O           5.7098  -11.0941   27.9023 O.3     1  UNL1       -0.3845
      2 C           4.7040  -12.2011   27.7891 C.3     1  UNL1        0.1104
      3 C           3.6010  -12.3186   28.7989 C.3     1  UNL1        0.0269
      4 C           2.4981  -12.4360   29.8087 C.3     1  UNL1        0.0024
      5 C           1.4923  -13.5430   29.6955 C.3     1  UNL1        0.0002
      6 C           1.5895  -14.5327   28.5725 C.3     1  UNL1        0.0000
      7 C           2.6924  -14.4153   27.5627 C.3     1  UNL1        0.0002
      8 C           3.6982  -13.3082   27.6759 C.3     1  UNL1        0.0024
      9 C           3.7953  -14.2979   26.5529 C.3     1  UNL1        0.0024
     10 C           4.8011  -13.1908   26.6660 C.3     1  UNL1        0.0269
     11 C           2.7098  -12.8361   29.1778 C.3     1  UNL1        0.0024
     12 H           5.5041  -10.5485   28.6774 H       1  UNL1        0.2103
@<TRIPOS>BOND
     1     1     2    1
     2     2     3    1
     3     3     4    1
     4     4     5    1
     5     5     6    1
     6     6     7    1
     7     7     8    1
     8     7     9    1
     9     9    10    1
    10    10    11    1
    11    10     2    1
    12     8     3    1
    13    11     5    1
    14     1    12    1
@<TRIPOS>MOLECULE
*****
 12 14 0 0 0
SMALL
GASTEIGER

@<TRIPOS>ATOM
      1 O         -11.8959  -18.9281   25.0135 O.3     1  UNL1       -0.3845
      2 C         -11.6275  -18.8459   23.5400 C.3     1  UNL1        0.1104
      3 C         -11.9995  -17.6087   22.7777 C.3     1  UNL1        0.0269
      4 C         -12.3715  -16.3715   22.0156 C.3     1  UNL1        0.0024
      5 C         -12.1031  -16.2893   20.5421 C.3     1  UNL1        0.0002
      6 C         -11.4627  -17.4442   19.8308 C.3     1  UNL1        0.0000
      7 C         -11.0906  -18.6814   20.5930 C.3     1  UNL1        0.0002
      8 C         -11.3591  -18.7636   22.0665 C.3     1  UNL1        0.0024
      9 C         -10.7186  -19.9186   21.3552 C.3     1  UNL1        0.0024
     10 C         -10.9870  -20.0008   22.8287 C.3     1  UNL1        0.0269
     11 C         -12.0433  -17.0511   21.8329 C.3     1  UNL1        0.0024
     12 H         -12.3101  -18.1038   25.3131 H       1  UNL1        0.2103
@<TRIPOS>BOND
     1     1     2    1
     2     2     3    1
     3     3     4    1
     4     4     5    1
     5     5     6    1
     6     6     7    1
     7     7     8    1
     8     7     9    1
     9     9    10    1
    10    10    11    1
    11    10     2    1
    12     8     3    1
    13    11     5    1
    14     1    12    1
