@<TRIPOS>MOLECULE
*****
 37 41 0 0 0
SMALL
GASTEIGER

@<TRIPOS>ATOM
      1 C           4.7306   -0.3036   17.9465 C.3     1  UNL1        0.3254
      2 F           4.0954   -0.7903   16.6778 F       1  UNL1       -0.1949
      3 F           5.0665    0.3926   19.2321 F       1  UNL1       -0.1949
      4 C           1.2538    2.4722   18.6225 C.ar    1  UNL1        0.0889
      5 C           2.6529    3.0129   18.6054 C.ar    1  UNL1        0.0207
      6 C           3.8118    2.0876   18.3801 C.ar    1  UNL1        0.0217
      7 C           3.5716    0.6217   18.1719 C.ar    1  UNL1        0.1219
      8 N           2.1726    0.0810   18.1889 N.ar    1  UNL1       -0.2412
      9 C           1.0137    1.0063   18.4142 C.ar    1  UNL1        0.1163
     10 O          -1.1339    2.0588   20.8082 O.2     1  UNL1       -0.2444
     11 C          -1.0027    3.2075   19.8525 C.ar    1  UNL1        0.3523
     12 N           0.0949    3.3975   18.8478 N.ar    1  UNL1       -0.2382
     13 C          -0.1701    4.6752   18.1081 C.ar    1  UNL1        0.2073
     14 N          -1.4313    5.2749   18.6555 N.ar    1  UNL1       -0.1442
     15 N          -1.9459    4.3677   19.7337 N.ar    1  UNL1       -0.2024
     16 C          -3.1859    4.5830   20.5497 C.3     1  UNL1        0.1099
     17 C          -3.5105    5.8067   21.3541 C.3     1  UNL1        0.0245
     18 C          -4.8443    5.5925   22.0061 C.3     1  UNL1        0.0021
     19 C          -5.3440    4.2363   21.6046 C.3     1  UNL1        0.0021
     20 C          -4.3190    3.6125   20.7045 C.3     1  UNL1        0.0245
     21 C           5.8895   -1.2288   17.7212 C.3     1  UNL1        0.1932
     22 O           7.0485   -2.1541   17.4960 O.3     1  UNL1       -0.3755
     23 H           6.7538   -3.0725   17.5990 H       1  UNL1        0.2110
     24 C           6.7826   -0.0496   17.4727 C.ar    1  UNL1        0.0368
     25 C           6.6073    0.7758   16.2326 C.ar    1  UNL1        0.0028
     26 C           7.5005    1.9551   15.9840 C.ar    1  UNL1        0.0295
     27 C           8.5689    2.3089   16.9756 C.ar    1  UNL1        0.1424
     28 F           9.4620    3.4882   16.7271 F       1  UNL1       -0.2041
     29 C           8.7442    1.4835   18.2158 C.ar    1  UNL1        0.0590
     30 C           7.8511    0.3043   18.4643 C.ar    1  UNL1        0.1408
     31 F           8.0264   -0.5211   19.7045 F       1  UNL1       -0.2043
     32 C           4.9965   -2.4080   17.9698 C.3     1  UNL1        0.1679
     33 N           5.0856   -3.1561   19.2669 N.ar    1  UNL1       -0.2078
     34 C           3.9805   -3.9408   19.9098 C.ar    1  UNL1        0.2216
     35 N           4.5074   -4.5205   21.1891 N.ar    1  UNL1       -0.1048
     36 N           5.9379   -4.0942   21.3367 N.ar    1  UNL1       -0.0226
     37 N           6.2952   -3.2510   20.1487 N.ar    1  UNL1       -0.0428
@<TRIPOS>BOND
     1    10    11    2
     2    11    12   ar
     3    12     4    1
     4     4     5   ar
     5     5     6   ar
     6     6     7   ar
     7     7     1    1
     8     1     2    1
     9     1     3    1
    10     1    21    1
    11    21    22    1
    12    21    32    1
    13    32    33    1
    14    33    34   ar
    15    34    35   ar
    16    35    36   ar
    17    36    37   ar
    18    21    24    1
    19    24    25   ar
    20    25    26   ar
    21    26    27   ar
    22    27    28    1
    23    27    29   ar
    24    29    30   ar
    25    30    31    1
    26     7     8   ar
    27     8     9   ar
    28    12    13   ar
    29    13    14   ar
    30    14    15   ar
    31    15    16    1
    32    16    17    1
    33    17    18    1
    34    18    19    1
    35    19    20    1
    36    15    11   ar
    37    20    16    1
    38     9     4   ar
    39    37    33   ar
    40    30    24   ar
    41    22    23    1
@<TRIPOS>MOLECULE
*****
 37 41 0 0 0
SMALL
GASTEIGER

@<TRIPOS>ATOM
      1 C         -14.4261   -5.1872   18.8467 C.3     1  UNL1        0.3254
      2 F         -14.5659   -5.2872   17.3566 F       1  UNL1       -0.1949
      3 F         -14.4139   -4.7492   20.2813 F       1  UNL1       -0.1949
      4 C         -15.9570   -0.9580   18.7070 C.ar    1  UNL1        0.0889
      5 C         -15.2014   -1.4428   19.9087 C.ar    1  UNL1        0.0207
      6 C         -14.6911   -2.8525   19.9552 C.ar    1  UNL1        0.0217
      7 C         -14.9364   -3.7774   18.8001 C.ar    1  UNL1        0.1219
      8 N         -15.6920   -3.2927   17.5984 N.ar    1  UNL1       -0.2412
      9 C         -16.2022   -1.8829   17.5519 C.ar    1  UNL1        0.1163
     10 O         -14.1529    1.7457   18.9991 O.2     1  UNL1       -0.2444
     11 C         -15.6380    1.6946   18.7947 C.ar    1  UNL1        0.3523
     12 N         -16.4673    0.4518   18.6604 N.ar    1  UNL1       -0.2382
     13 C         -17.8964    0.8664   18.4713 C.ar    1  UNL1        0.2073
     14 N         -17.9504    2.3653   18.4888 N.ar    1  UNL1       -0.1442
     15 N         -16.5546    2.8772   18.6886 N.ar    1  UNL1       -0.2024
     16 C         -16.1471    4.3185   18.7684 C.3     1  UNL1        0.1099
     17 C         -16.4902    5.3881   17.7743 C.3     1  UNL1        0.0245
     18 C         -15.8800    6.6739   18.2478 C.3     1  UNL1        0.0021
     19 C         -15.1597    6.3991   19.5345 C.3     1  UNL1        0.0021
     20 C         -15.3248    4.9433   19.8563 C.3     1  UNL1        0.0245
     21 C         -13.9158   -6.5970   18.8933 C.3     1  UNL1        0.1932
     22 O         -13.4055   -8.0068   18.9400 O.3     1  UNL1       -0.3755
     23 H         -14.1092   -8.5951   19.2555 H       1  UNL1        0.2110
     24 C         -12.5811   -6.1304   18.3924 C.ar    1  UNL1        0.0368
     25 C         -11.7067   -5.2816   19.2669 C.ar    1  UNL1        0.0028
     26 C         -10.3720   -4.8150   18.7659 C.ar    1  UNL1        0.0295
     27 C          -9.9118   -5.1973   17.3904 C.ar    1  UNL1        0.1424
     28 F          -8.5771   -4.7308   16.8894 F       1  UNL1       -0.2041
     29 C         -10.7862   -6.0461   16.5158 C.ar    1  UNL1        0.0590
     30 C         -12.1209   -6.5127   17.0168 C.ar    1  UNL1        0.1408
     31 F         -12.9953   -7.3615   16.1423 F       1  UNL1       -0.2043
     32 C         -15.2504   -7.0635   19.3943 C.3     1  UNL1        0.1679
     33 N         -15.6709   -8.4891   19.1920 N.ar    1  UNL1       -0.2078
     34 C         -16.5006   -9.3063   20.1375 C.ar    1  UNL1        0.2216
     35 N         -16.6780  -10.6700   19.5385 N.ar    1  UNL1       -0.1048
     36 N         -15.9582  -10.6956   18.2227 N.ar    1  UNL1       -0.0226
     37 N         -15.3358   -9.3477   18.0086 N.ar    1  UNL1       -0.0428
@<TRIPOS>BOND
     1    10    11    2
     2    11    12   ar
     3    12     4    1
     4     4     5   ar
     5     5     6   ar
     6     6     7   ar
     7     7     1    1
     8     1     2    1
     9     1     3    1
    10     1    21    1
    11    21    22    1
    12    21    32    1
    13    32    33    1
    14    33    34   ar
    15    34    35   ar
    16    35    36   ar
    17    36    37   ar
    18    21    24    1
    19    24    25   ar
    20    25    26   ar
    21    26    27   ar
    22    27    28    1
    23    27    29   ar
    24    29    30   ar
    25    30    31    1
    26     7     8   ar
    27     8     9   ar
    28    12    13   ar
    29    13    14   ar
    30    14    15   ar
    31    15    16    1
    32    16    17    1
    33    17    18    1
    34    18    19    1
    35    19    20    1
    36    15    11   ar
    37    20    16    1
    38     9     4   ar
    39    37    33   ar
    40    30    24   ar
    41    22    23    1
@<TRIPOS>MOLECULE
*****
 37 41 0 0 0
SMALL
GASTEIGER

@<TRIPOS>ATOM
      1 C         -17.1373    1.0687   20.0887 C.3     1  UNL1        0.3254
      2 F         -17.3567    1.4506   18.6548 F       1  UNL1       -0.1949
      3 F         -16.6464    0.4868   21.3812 F       1  UNL1       -0.1949
      4 C         -13.6906   -1.5521   18.8635 C.ar    1  UNL1        0.0889
      5 C         -13.7246   -0.1126   18.4431 C.ar    1  UNL1        0.0207
      6 C         -14.8735    0.7609   18.8515 C.ar    1  UNL1        0.0217
      7 C         -15.9884    0.1951   19.6803 C.ar    1  UNL1        0.1219
      8 N         -15.9543   -1.2444   20.1007 N.ar    1  UNL1       -0.2412
      9 C         -14.8054   -2.1180   19.6923 C.ar    1  UNL1        0.1163
     10 O         -13.4148   -4.7523   19.4399 O.2     1  UNL1       -0.2444
     11 C         -12.4149   -3.8967   18.7201 C.ar    1  UNL1        0.3523
     12 N         -12.5416   -2.4258   18.4551 N.ar    1  UNL1       -0.2382
     13 C         -11.3178   -1.9819   17.7101 C.ar    1  UNL1        0.2073
     14 N         -10.4346   -3.1784   17.5146 N.ar    1  UNL1       -0.1442
     15 N         -11.1127   -4.3620   18.1388 N.ar    1  UNL1       -0.2024
     16 C         -10.5818   -5.7644   18.1753 C.3     1  UNL1        0.1099
     17 C          -9.5527   -6.2929   19.1301 C.3     1  UNL1        0.0245
     18 C          -9.3217   -7.7397   18.8083 C.3     1  UNL1        0.0021
     19 C         -10.2080   -8.1052   17.6547 C.3     1  UNL1        0.0021
     20 C         -10.9868   -6.8844   17.2635 C.3     1  UNL1        0.0245
     21 C         -18.2862    1.9423   20.4971 C.3     1  UNL1        0.1932
     22 O         -19.4351    2.8160   20.9056 O.3     1  UNL1       -0.3755
     23 H         -20.2617    2.4473   20.5564 H       1  UNL1        0.2110
     24 C         -17.3367    2.8557   21.2142 C.ar    1  UNL1        0.0368
     25 C         -16.4074    3.7357   20.4317 C.ar    1  UNL1        0.0028
     26 C         -15.4580    4.6491   21.1489 C.ar    1  UNL1        0.0295
     27 C         -15.4378    4.6826   22.6483 C.ar    1  UNL1        0.1424
     28 F         -14.4883    5.5960   23.3654 F       1  UNL1       -0.2041
     29 C         -16.3670    3.8026   23.4307 C.ar    1  UNL1        0.0590
     30 C         -17.3165    2.8892   22.7137 C.ar    1  UNL1        0.1408
     31 F         -18.2458    2.0093   23.4961 F       1  UNL1       -0.2043
     32 C         -19.2356    1.0289   19.7801 C.3     1  UNL1        0.1679
     33 N         -19.6436   -0.2711   20.4074 N.ar    1  UNL1       -0.2078
     34 C         -19.5722   -1.6228   19.7609 C.ar    1  UNL1        0.2216
     35 N         -20.0791   -2.6347   20.7454 N.ar    1  UNL1       -0.1048
     36 N         -20.4639   -1.9085   22.0002 N.ar    1  UNL1       -0.0226
     37 N         -20.1947   -0.4477   21.7913 N.ar    1  UNL1       -0.0428
@<TRIPOS>BOND
     1    10    11    2
     2    11    12   ar
     3    12     4    1
     4     4     5   ar
     5     5     6   ar
     6     6     7   ar
     7     7     1    1
     8     1     2    1
     9     1     3    1
    10     1    21    1
    11    21    22    1
    12    21    32    1
    13    32    33    1
    14    33    34   ar
    15    34    35   ar
    16    35    36   ar
    17    36    37   ar
    18    21    24    1
    19    24    25   ar
    20    25    26   ar
    21    26    27   ar
    22    27    28    1
    23    27    29   ar
    24    29    30   ar
    25    30    31    1
    26     7     8   ar
    27     8     9   ar
    28    12    13   ar
    29    13    14   ar
    30    14    15   ar
    31    15    16    1
    32    16    17    1
    33    17    18    1
    34    18    19    1
    35    19    20    1
    36    15    11   ar
    37    20    16    1
    38     9     4   ar
    39    37    33   ar
    40    30    24   ar
    41    22    23    1
@<TRIPOS>MOLECULE
*****
 37 41 0 0 0
SMALL
GASTEIGER

@<TRIPOS>ATOM
      1 C           4.4247    0.0965   17.9961 C.3     1  UNL1        0.3254
      2 F           3.7979   -0.4632   16.7536 F       1  UNL1       -0.1949
      3 F           4.7340    0.8358   19.2641 F       1  UNL1       -0.1949
      4 C           0.7192    2.5297   18.7695 C.ar    1  UNL1        0.0889
      5 C           0.6510    1.0315   18.7931 C.ar    1  UNL1        0.0207
      6 C           1.8862    0.2204   18.5352 C.ar    1  UNL1        0.0217
      7 C           3.1895    0.9076   18.2539 C.ar    1  UNL1        0.1219
      8 N           3.2577    2.4058   18.2304 N.ar    1  UNL1       -0.2412
      9 C           2.0225    3.2169   18.4882 C.ar    1  UNL1        0.1163
     10 O          -1.2488    2.2574   21.3585 O.2     1  UNL1       -0.2444
     11 C          -1.4206    3.2157   20.2174 C.ar    1  UNL1        0.3523
     12 N          -0.5160    3.3409   19.0273 N.ar    1  UNL1       -0.2382
     13 C          -1.0635    4.4196   18.1404 C.ar    1  UNL1        0.2073
     14 N          -2.3064    4.9611   18.7823 N.ar    1  UNL1       -0.1442
     15 N          -2.5271    4.2170   20.0660 N.ar    1  UNL1       -0.2024
     16 C          -3.6561    4.4358   21.0290 C.3     1  UNL1        0.1099
     17 C          -3.9916    5.7266   21.7156 C.3     1  UNL1        0.0245
     18 C          -5.1906    5.4908   22.5855 C.3     1  UNL1        0.0021
     19 C          -5.5961    4.0543   22.4366 C.3     1  UNL1        0.0021
     20 C          -4.6476    3.4023   21.4746 C.3     1  UNL1        0.0245
     21 C           5.6599   -0.7146   17.7383 C.3     1  UNL1        0.1932
     22 O           6.8951   -1.5257   17.4805 O.3     1  UNL1       -0.3755
     23 H           7.4360   -1.0857   16.8062 H       1  UNL1        0.2110
     24 C           5.2094   -1.7231   18.7532 C.ar    1  UNL1        0.0368
     25 C           4.1503   -2.7239   18.3972 C.ar    1  UNL1        0.0028
     26 C           3.6999   -3.7324   19.4121 C.ar    1  UNL1        0.0295
     27 C           4.3085   -3.7401   20.7830 C.ar    1  UNL1        0.1424
     28 F           3.8581   -4.7486   21.7980 F       1  UNL1       -0.2041
     29 C           5.3676   -2.7393   21.1391 C.ar    1  UNL1        0.0590
     30 C           5.8181   -1.7309   20.1242 C.ar    1  UNL1        0.1408
     31 F           6.8772   -0.7301   20.4802 F       1  UNL1       -0.2043
     32 C           6.1103    0.2939   16.7234 C.3     1  UNL1        0.1679
     33 N           7.3921    1.0449   16.9302 N.ar    1  UNL1       -0.2078
     34 C           7.9939    2.0398   15.9824 C.ar    1  UNL1        0.2216
     35 N           9.2710    2.5427   16.5875 N.ar    1  UNL1       -0.1048
     36 N           9.4585    1.8588   17.9093 N.ar    1  UNL1       -0.0226
     37 N           8.2973    0.9331   18.1211 N.ar    1  UNL1       -0.0428
@<TRIPOS>BOND
     1    10    11    2
     2    11    12   ar
     3    12     4    1
     4     4     5   ar
     5     5     6   ar
     6     6     7   ar
     7     7     1    1
     8     1     2    1
     9     1     3    1
    10     1    21    1
    11    21    22    1
    12    21    32    1
    13    32    33    1
    14    33    34   ar
    15    34    35   ar
    16    35    36   ar
    17    36    37   ar
    18    21    24    1
    19    24    25   ar
    20    25    26   ar
    21    26    27   ar
    22    27    28    1
    23    27    29   ar
    24    29    30   ar
    25    30    31    1
    26     7     8   ar
    27     8     9   ar
    28    12    13   ar
    29    13    14   ar
    30    14    15   ar
    31    15    16    1
    32    16    17    1
    33    17    18    1
    34    18    19    1
    35    19    20    1
    36    15    11   ar
    37    20    16    1
    38     9     4   ar
    39    37    33   ar
    40    30    24   ar
    41    22    23    1
@<TRIPOS>MOLECULE
*****
 37 41 0 0 0
SMALL
GASTEIGER

@<TRIPOS>ATOM
      1 C           3.8769   -0.2886   22.3423 C.3     1  UNL1        0.3254
      2 F           4.5518    1.0416   22.5008 F       1  UNL1       -0.1949
      3 F           3.1529   -1.5867   22.5447 F       1  UNL1       -0.1949
      4 C           3.0201   -0.3804   26.7590 C.ar    1  UNL1        0.0889
      5 C           2.4145    0.6895   25.8997 C.ar    1  UNL1        0.0207
      6 C           2.7001    0.7201   24.4274 C.ar    1  UNL1        0.0217
      7 C           3.5913   -0.3192   23.8146 C.ar    1  UNL1        0.1219
      8 N           4.1969   -1.3891   24.6739 N.ar    1  UNL1       -0.2412
      9 C           3.9113   -1.4197   26.1461 C.ar    1  UNL1        0.1163
     10 O           5.2006   -0.9262   29.1249 O.2     1  UNL1       -0.2444
     11 C           3.7368   -0.6619   29.3188 C.ar    1  UNL1        0.3523
     12 N           2.7346   -0.4110   28.2313 N.ar    1  UNL1       -0.2382
     13 C           1.3966   -0.1962   28.8746 C.ar    1  UNL1        0.2073
     14 N           1.5720   -0.3143   30.3596 N.ar    1  UNL1       -0.1442
     15 N           3.0183   -0.6021   30.6341 N.ar    1  UNL1       -0.2024
     16 C           3.6374   -0.7961   31.9866 C.3     1  UNL1        0.1099
     17 C           4.3787   -2.0148   32.4503 C.3     1  UNL1        0.0245
     18 C           4.8233   -1.7773   33.8630 C.3     1  UNL1        0.0021
     19 C           4.3569   -0.4117   34.2724 C.3     1  UNL1        0.0021
     20 C           3.6240    0.1947   33.1126 C.3     1  UNL1        0.0245
     21 C           4.1625   -0.2580   20.8701 C.3     1  UNL1        0.1932
     22 O           4.4481   -0.2274   19.3978 O.3     1  UNL1       -0.3755
     23 H           5.3108   -0.6367   19.2272 H       1  UNL1        0.2110
     24 C           2.8484    0.4240   20.6294 C.ar    1  UNL1        0.0368
     25 C           1.5748   -0.3676   20.6655 C.ar    1  UNL1        0.0028
     26 C           0.2607    0.3145   20.4248 C.ar    1  UNL1        0.0295
     27 C           0.2202    1.7882   20.1479 C.ar    1  UNL1        0.1424
     28 F          -1.0939    2.4703   19.9072 F       1  UNL1       -0.2041
     29 C           1.4938    2.5798   20.1118 C.ar    1  UNL1        0.0590
     30 C           2.8079    1.8977   20.3525 C.ar    1  UNL1        0.1408
     31 F           4.0815    2.6893   20.3163 F       1  UNL1       -0.2043
     32 C           5.4765   -0.9400   21.1108 C.3     1  UNL1        0.1679
     33 N           5.6361   -2.3961   20.7875 N.ar    1  UNL1       -0.2078
     34 C           6.8347   -3.2424   21.0999 C.ar    1  UNL1        0.2216
     35 N           6.5644   -4.6308   20.6006 N.ar    1  UNL1       -0.1048
     36 N           5.1990   -4.6427   19.9797 N.ar    1  UNL1       -0.0226
     37 N           4.6253   -3.2615   20.0952 N.ar    1  UNL1       -0.0428
@<TRIPOS>BOND
     1    10    11    2
     2    11    12   ar
     3    12     4    1
     4     4     5   ar
     5     5     6   ar
     6     6     7   ar
     7     7     1    1
     8     1     2    1
     9     1     3    1
    10     1    21    1
    11    21    22    1
    12    21    32    1
    13    32    33    1
    14    33    34   ar
    15    34    35   ar
    16    35    36   ar
    17    36    37   ar
    18    21    24    1
    19    24    25   ar
    20    25    26   ar
    21    26    27   ar
    22    27    28    1
    23    27    29   ar
    24    29    30   ar
    25    30    31    1
    26     7     8   ar
    27     8     9   ar
    28    12    13   ar
    29    13    14   ar
    30    14    15   ar
    31    15    16    1
    32    16    17    1
    33    17    18    1
    34    18    19    1
    35    19    20    1
    36    15    11   ar
    37    20    16    1
    38     9     4   ar
    39    37    33   ar
    40    30    24   ar
    41    22    23    1
@<TRIPOS>MOLECULE
*****
 37 41 0 0 0
SMALL
GASTEIGER

@<TRIPOS>ATOM
      1 C           4.2038   -2.0069   21.1314 C.3     1  UNL1        0.3254
      2 F           3.7301   -3.3984   21.4299 F       1  UNL1       -0.1949
      3 F           4.6668   -0.5816   21.1969 F       1  UNL1       -0.1949
      4 C           4.2460   -1.0767   25.5340 C.ar    1  UNL1        0.0889
      5 C           3.2326   -0.4261   24.6397 C.ar    1  UNL1        0.0207
      6 C           3.2186   -0.7362   23.1722 C.ar    1  UNL1        0.0217
      7 C           4.2179   -1.6968   22.5990 C.ar    1  UNL1        0.1219
      8 N           5.2312   -2.3474   23.4933 N.ar    1  UNL1       -0.2412
      9 C           5.2452   -2.0374   24.9608 C.ar    1  UNL1        0.1163
     10 O           5.6160   -2.9015   27.8670 O.2     1  UNL1       -0.2444
     11 C           4.8898   -1.6054   28.0739 C.ar    1  UNL1        0.3523
     12 N           4.2600   -0.7666   27.0016 N.ar    1  UNL1       -0.2382
     13 C           3.6469    0.4366   27.6544 C.ar    1  UNL1        0.2073
     14 N           3.8977    0.3414   29.1303 N.ar    1  UNL1       -0.1442
     15 N           4.6658   -0.9206   29.3895 N.ar    1  UNL1       -0.2024
     16 C           5.1288   -1.4116   30.7291 C.3     1  UNL1        0.1099
     17 C           4.2808   -1.5498   31.9587 C.3     1  UNL1        0.0245
     18 C           5.1489   -2.0742   33.0638 C.3     1  UNL1        0.0021
     19 C           6.5333   -2.2601   32.5173 C.3     1  UNL1        0.0021
     20 C           6.5209   -1.8506   31.0743 C.3     1  UNL1        0.0245
     21 C           4.1897   -2.3169   19.6639 C.3     1  UNL1        0.1932
     22 O           4.1757   -2.6269   18.1963 O.3     1  UNL1       -0.3755
     23 H           4.7560   -3.3840   18.0202 H       1  UNL1        0.2110
     24 C           3.2329   -1.1848   19.4339 C.ar    1  UNL1        0.0368
     25 C           1.8404   -1.2556   19.9870 C.ar    1  UNL1        0.0028
     26 C           0.8836   -0.1234   19.7570 C.ar    1  UNL1        0.0295
     27 C           1.3194    1.0795   18.9739 C.ar    1  UNL1        0.1424
     28 F           0.3626    2.2116   18.7439 F       1  UNL1       -0.2041
     29 C           2.7119    1.1502   18.4209 C.ar    1  UNL1        0.0590
     30 C           3.6687    0.0182   18.6508 C.ar    1  UNL1        0.1408
     31 F           5.0612    0.0889   18.0977 F       1  UNL1       -0.2043
     32 C           5.1465   -3.4490   19.8938 C.3     1  UNL1        0.1679
     33 N           6.6247   -3.2130   19.7973 N.ar    1  UNL1       -0.2078
     34 C           7.6724   -3.8052   20.6928 C.ar    1  UNL1        0.2216
     35 N           9.0099   -3.3016   20.2373 N.ar    1  UNL1       -0.1048
     36 N           8.7889   -2.3983   19.0603 N.ar    1  UNL1       -0.0226
     37 N           7.3148   -2.3435   18.7885 N.ar    1  UNL1       -0.0428
@<TRIPOS>BOND
     1    10    11    2
     2    11    12   ar
     3    12     4    1
     4     4     5   ar
     5     5     6   ar
     6     6     7   ar
     7     7     1    1
     8     1     2    1
     9     1     3    1
    10     1    21    1
    11    21    22    1
    12    21    32    1
    13    32    33    1
    14    33    34   ar
    15    34    35   ar
    16    35    36   ar
    17    36    37   ar
    18    21    24    1
    19    24    25   ar
    20    25    26   ar
    21    26    27   ar
    22    27    28    1
    23    27    29   ar
    24    29    30   ar
    25    30    31    1
    26     7     8   ar
    27     8     9   ar
    28    12    13   ar
    29    13    14   ar
    30    14    15   ar
    31    15    16    1
    32    16    17    1
    33    17    18    1
    34    18    19    1
    35    19    20    1
    36    15    11   ar
    37    20    16    1
    38     9     4   ar
    39    37    33   ar
    40    30    24   ar
    41    22    23    1
@<TRIPOS>MOLECULE
*****
 37 41 0 0 0
SMALL
GASTEIGER

@<TRIPOS>ATOM
      1 C           4.0694   -0.1020   22.2820 C.3     1  UNL1        0.3254
      2 F           4.8054    1.1858   22.5055 F       1  UNL1       -0.1949
      3 F           3.2791   -1.3695   22.4196 F       1  UNL1       -0.1949
      4 C           3.1244   -0.3244   26.6760 C.ar    1  UNL1        0.0889
      5 C           2.6051    0.8178   25.8541 C.ar    1  UNL1        0.0207
      6 C           2.9202    0.8920   24.3895 C.ar    1  UNL1        0.0217
      7 C           3.7544   -0.1762   23.7468 C.ar    1  UNL1        0.1219
      8 N           4.2736   -1.3184   24.5687 N.ar    1  UNL1       -0.2412
      9 C           3.9586   -1.3926   26.0333 C.ar    1  UNL1        0.1163
     10 O           5.2759   -0.8263   29.0778 O.2     1  UNL1       -0.2444
     11 C           3.7983   -0.6293   29.2447 C.ar    1  UNL1        0.3523
     12 N           2.8093   -0.3986   28.1408 N.ar    1  UNL1       -0.2382
     13 C           1.4501   -0.2552   28.7586 C.ar    1  UNL1        0.2073
     14 N           1.5990   -0.3972   30.2445 N.ar    1  UNL1       -0.1442
     15 N           3.0503   -0.6284   30.5449 N.ar    1  UNL1       -0.2024
     16 C           3.6485   -0.8244   31.9064 C.3     1  UNL1        0.1099
     17 C           3.6194    0.1655   33.0330 C.3     1  UNL1        0.0245
     18 C           4.3338   -0.4429   34.2032 C.3     1  UNL1        0.0021
     19 C           4.8044   -1.8089   33.7998 C.3     1  UNL1        0.0021
     20 C           4.3809   -2.0446   32.3803 C.3     1  UNL1        0.0245
     21 C           4.3844   -0.0278   20.8174 C.3     1  UNL1        0.1932
     22 O           4.6994    0.0464   19.3527 O.3     1  UNL1       -0.3755
     23 H           4.2519    0.8143   18.9642 H       1  UNL1        0.2110
     24 C           5.2297   -1.2612   20.9367 C.ar    1  UNL1        0.0368
     25 C           6.5721   -1.1889   21.6021 C.ar    1  UNL1        0.0028
     26 C           7.4174   -2.4224   21.7215 C.ar    1  UNL1        0.0295
     27 C           6.9203   -3.7280   21.1754 C.ar    1  UNL1        0.1424
     28 F           7.7655   -4.9614   21.2948 F       1  UNL1       -0.2041
     29 C           5.5779   -3.8002   20.5100 C.ar    1  UNL1        0.0590
     30 C           4.7326   -2.5669   20.3907 C.ar    1  UNL1        0.1408
     31 F           3.3902   -2.6391   19.7253 F       1  UNL1       -0.2043
     32 C           3.5392    1.2055   20.6981 C.3     1  UNL1        0.1679
     33 N           2.0443    1.0995   20.7630 N.ar    1  UNL1       -0.2078
     34 C           1.1128    2.1182   21.3502 C.ar    1  UNL1        0.2216
     35 N          -0.2887    1.6044   21.2023 N.ar    1  UNL1       -0.1048
     36 N          -0.2234    0.2682   20.5237 N.ar    1  UNL1       -0.0226
     37 N           1.2185   -0.0438   20.2523 N.ar    1  UNL1       -0.0428
@<TRIPOS>BOND
     1    10    11    2
     2    11    12   ar
     3    12     4    1
     4     4     5   ar
     5     5     6   ar
     6     6     7   ar
     7     7     1    1
     8     1     2    1
     9     1     3    1
    10     1    21    1
    11    21    22    1
    12    21    32    1
    13    32    33    1
    14    33    34   ar
    15    34    35   ar
    16    35    36   ar
    17    36    37   ar
    18    21    24    1
    19    24    25   ar
    20    25    26   ar
    21    26    27   ar
    22    27    28    1
    23    27    29   ar
    24    29    30   ar
    25    30    31    1
    26     7     8   ar
    27     8     9   ar
    28    12    13   ar
    29    13    14   ar
    30    14    15   ar
    31    15    16    1
    32    16    17    1
    33    17    18    1
    34    18    19    1
    35    19    20    1
    36    15    11   ar
    37    20    16    1
    38     9     4   ar
    39    37    33   ar
    40    30    24   ar
    41    22    23    1
@<TRIPOS>MOLECULE
*****
 37 41 0 0 0
SMALL
GASTEIGER

@<TRIPOS>ATOM
      1 C           4.3264    0.0501   18.8285 C.3     1  UNL1        0.3254
      2 F           3.4114    0.0945   17.6408 F       1  UNL1       -0.1949
      3 F           4.9568    0.1612   20.1851 F       1  UNL1       -0.1949
      4 C           1.1339    1.9607   21.3597 C.ar    1  UNL1        0.0889
      5 C           1.2220    0.4663   21.2656 C.ar    1  UNL1        0.0207
      6 C           2.2862   -0.1705   20.4219 C.ar    1  UNL1        0.0217
      7 C           3.2622    0.6870   19.6722 C.ar    1  UNL1        0.1219
      8 N           3.1740    2.1815   19.7664 N.ar    1  UNL1       -0.2412
      9 C           2.1099    2.8183   20.6101 C.ar    1  UNL1        0.1163
     10 O          -1.9147    2.6387   20.4131 O.2     1  UNL1       -0.2444
     11 C          -1.3316    2.9093   21.7683 C.ar    1  UNL1        0.3523
     12 N           0.0697    2.5976   22.2035 N.ar    1  UNL1       -0.2382
     13 C           0.2199    3.0347   23.6305 C.ar    1  UNL1        0.2073
     14 N          -1.0885    3.6165   24.0773 N.ar    1  UNL1       -0.1442
     15 N          -2.0474    3.5390   22.9264 N.ar    1  UNL1       -0.2024
     16 C          -3.4720    4.0086   22.9325 C.3     1  UNL1        0.1099
     17 C          -3.9771    5.2998   22.3600 C.3     1  UNL1        0.0245
     18 C          -5.4588    5.3587   22.5859 C.3     1  UNL1        0.0021
     19 C          -5.8694    4.1040   23.2979 C.3     1  UNL1        0.0021
     20 C          -4.6415    3.2696   23.5121 C.3     1  UNL1        0.0245
     21 C           5.3906   -0.5868   17.9848 C.3     1  UNL1        0.1932
     22 O           6.4548   -1.2237   17.1410 O.3     1  UNL1       -0.3755
     23 H           6.1592   -2.1029   16.8571 H       1  UNL1        0.2110
     24 C           6.2515    0.6301   18.1522 C.ar    1  UNL1        0.0368
     25 C           5.9052    1.8989   17.4310 C.ar    1  UNL1        0.0028
     26 C           6.7662    3.1157   17.5984 C.ar    1  UNL1        0.0295
     27 C           7.9735    3.0637   18.4870 C.ar    1  UNL1        0.1424
     28 F           8.8345    4.2806   18.6545 F       1  UNL1       -0.2041
     29 C           8.3199    1.7949   19.2082 C.ar    1  UNL1        0.0590
     30 C           7.4589    0.5781   19.0408 C.ar    1  UNL1        0.1408
     31 F           7.8053   -0.6907   19.7620 F       1  UNL1       -0.2043
     32 C           4.5296   -1.8036   17.8174 C.3     1  UNL1        0.1679
     33 N           4.6469   -2.9441   18.7845 N.ar    1  UNL1       -0.2078
     34 C           3.5423   -3.8758   19.1872 C.ar    1  UNL1        0.2216
     35 N           4.1021   -4.8608   20.1703 N.ar    1  UNL1       -0.1048
     36 N           5.5525   -4.5378   20.3754 N.ar    1  UNL1       -0.0226
     37 N           5.8892   -3.3533   19.5189 N.ar    1  UNL1       -0.0428
@<TRIPOS>BOND
     1    10    11    2
     2    11    12   ar
     3    12     4    1
     4     4     5   ar
     5     5     6   ar
     6     6     7   ar
     7     7     1    1
     8     1     2    1
     9     1     3    1
    10     1    21    1
    11    21    22    1
    12    21    32    1
    13    32    33    1
    14    33    34   ar
    15    34    35   ar
    16    35    36   ar
    17    36    37   ar
    18    21    24    1
    19    24    25   ar
    20    25    26   ar
    21    26    27   ar
    22    27    28    1
    23    27    29   ar
    24    29    30   ar
    25    30    31    1
    26     7     8   ar
    27     8     9   ar
    28    12    13   ar
    29    13    14   ar
    30    14    15   ar
    31    15    16    1
    32    16    17    1
    33    17    18    1
    34    18    19    1
    35    19    20    1
    36    15    11   ar
    37    20    16    1
    38     9     4   ar
    39    37    33   ar
    40    30    24   ar
    41    22    23    1
@<TRIPOS>MOLECULE
*****
 37 41 0 0 0
SMALL
GASTEIGER

@<TRIPOS>ATOM
      1 C           4.1206   -0.5196   21.1351 C.3     1  UNL1        0.3254
      2 F           5.4231    0.1827   20.8895 F       1  UNL1       -0.1949
      3 F           2.9603   -1.2741   21.7135 F       1  UNL1       -0.1949
      4 C           5.4041   -1.4258   25.3519 C.ar    1  UNL1        0.0889
      5 C           3.9469   -1.2853   25.0253 C.ar    1  UNL1        0.0207
      6 C           3.5191   -0.9832   23.6197 C.ar    1  UNL1        0.0217
      7 C           4.5485   -0.8217   22.5407 C.ar    1  UNL1        0.1219
      8 N           6.0057   -0.9622   22.8673 N.ar    1  UNL1       -0.2412
      9 C           6.4335   -1.2642   24.2729 C.ar    1  UNL1        0.1163
     10 O           6.6388   -4.2531   26.4155 O.2     1  UNL1       -0.2444
     11 C           6.3995   -3.0274   27.2464 C.ar    1  UNL1        0.3523
     12 N           5.8320   -1.7278   26.7575 N.ar    1  UNL1       -0.2382
     13 C           5.7675   -0.7834   27.9210 C.ar    1  UNL1        0.2073
     14 N           6.2951   -1.4992   29.1290 N.ar    1  UNL1       -0.1442
     15 N           6.6858   -2.8862   28.7120 N.ar    1  UNL1       -0.2024
     16 C           7.2615   -3.9458   29.6040 C.3     1  UNL1        0.1099
     17 C           6.7737   -5.3593   29.7224 C.3     1  UNL1        0.0245
     18 C           7.6369   -6.0650   30.7258 C.3     1  UNL1        0.0021
     19 C           8.6581   -5.0876   31.2276 C.3     1  UNL1        0.0021
     20 C           8.4261   -3.7779   30.5343 C.3     1  UNL1        0.0245
     21 C           3.6927   -0.2176   19.7295 C.3     1  UNL1        0.1932
     22 O           3.2648    0.0845   18.3239 O.3     1  UNL1       -0.3755
     23 H           3.8241   -0.4078   17.7028 H       1  UNL1        0.2110
     24 C           2.6241    0.6967   20.2513 C.ar    1  UNL1        0.0368
     25 C           2.9787    2.0803   20.7094 C.ar    1  UNL1        0.0028
     26 C           1.9100    2.9945   21.2312 C.ar    1  UNL1        0.0295
     27 C           0.4868    2.5251   21.2949 C.ar    1  UNL1        0.1424
     28 F          -0.5818    3.4393   21.8166 F       1  UNL1       -0.2041
     29 C           0.1322    1.1415   20.8368 C.ar    1  UNL1        0.0590
     30 C           1.2008    0.2273   20.3150 C.ar    1  UNL1        0.1408
     31 F           0.8462   -1.1564   19.8570 F       1  UNL1       -0.2043
     32 C           4.7613   -1.1318   19.2078 C.3     1  UNL1        0.1679
     33 N           4.6149   -2.6173   19.3548 N.ar    1  UNL1       -0.2078
     34 C           5.7158   -3.5842   19.6764 C.ar    1  UNL1        0.2216
     35 N           5.1232   -4.9613   19.7264 N.ar    1  UNL1       -0.1048
     36 N           3.6562   -4.8456   19.4357 N.ar    1  UNL1       -0.0226
     37 N           3.3421   -3.3969   19.2061 N.ar    1  UNL1       -0.0428
@<TRIPOS>BOND
     1    10    11    2
     2    11    12   ar
     3    12     4    1
     4     4     5   ar
     5     5     6   ar
     6     6     7   ar
     7     7     1    1
     8     1     2    1
     9     1     3    1
    10     1    21    1
    11    21    22    1
    12    21    32    1
    13    32    33    1
    14    33    34   ar
    15    34    35   ar
    16    35    36   ar
    17    36    37   ar
    18    21    24    1
    19    24    25   ar
    20    25    26   ar
    21    26    27   ar
    22    27    28    1
    23    27    29   ar
    24    29    30   ar
    25    30    31    1
    26     7     8   ar
    27     8     9   ar
    28    12    13   ar
    29    13    14   ar
    30    14    15   ar
    31    15    16    1
    32    16    17    1
    33    17    18    1
    34    18    19    1
    35    19    20    1
    36    15    11   ar
    37    20    16    1
    38     9     4   ar
    39    37    33   ar
    40    30    24   ar
    41    22    23    1
