@<TRIPOS>MOLECULE
*****
 44 46 0 0 0
SMALL
GASTEIGER

@<TRIPOS>ATOM
      1 C           0.5052    2.9489   19.3086 C.ar    1  UNL1        0.0539
      2 S          -0.5456    3.2635   18.2855 S.2     1  UNL1       -0.0619
      3 C          -1.4570    4.3059   18.8624 C.ar    1  UNL1        0.1641
      4 N          -0.9694    4.6356   20.2421 N.ar    1  UNL1       -0.2291
      5 C           0.2433    3.7969   20.5179 C.ar    1  UNL1        0.1414
      6 C           1.0521    3.8048   21.7811 C.2     1  UNL1        0.2674
      7 O           2.5329    4.0374   21.7222 O.2     1  UNL1       -0.2682
      8 N           0.3803    3.5803   23.1032 N.am    1  UNL1       -0.2710
      9 C          -1.0841    3.3360   23.3179 C.3     1  UNL1        0.1603
     10 C          -1.3146    3.1653   24.7903 C.3     1  UNL1        0.2835
     11 F          -2.7473    2.9828   24.3851 F       1  UNL1       -0.2024
     12 F          -1.8446    2.9565   26.1779 F       1  UNL1       -0.2024
     13 C           0.0072    3.3042   25.4855 C.3     1  UNL1        0.0881
     14 C           1.0547    3.5606   24.4429 C.3     1  UNL1        0.0814
     15 C           2.5195    3.7621   24.6957 C.3     1  UNL1        0.0217
     16 C           3.8551   -0.0180   18.8337 C.ar    1  UNL1        0.1333
     17 C           3.9968    1.3684   18.2789 C.ar    1  UNL1        0.0208
     18 C           2.8802    2.3573   18.4373 C.ar    1  UNL1        0.0028
     19 C           1.6218    1.9599   19.1503 C.ar    1  UNL1        0.0191
     20 C           1.4801    0.5735   19.7051 C.ar    1  UNL1        0.0700
     21 CL          0.2217    0.1760   20.4182 Cl      1  UNL1       -0.0813
     22 C           2.5967   -0.4155   19.5467 C.ar    1  UNL1        0.0867
     23 CL          2.4550   -1.8019   20.1015 Cl      1  UNL1       -0.0800
     24 S           4.9718   -1.0070   18.6754 S.O2    1  UNL1        0.0613
     25 O           5.5243   -0.5964   20.0081 O.2     1  UNL1       -0.1530
     26 O           4.4192   -1.4176   17.3427 O.2     1  UNL1       -0.1530
     27 N           6.0884   -1.9960   18.5170 N.3     1  UNL1       -0.1723
     28 H           6.0120   -2.3779   17.5744 H       1  UNL1        0.1491
     29 C           7.4744   -3.4265   20.1851 C.3     1  UNL1        0.0278
     30 C           6.1928   -3.1652   19.4509 C.3     1  UNL1        0.1701
     31 C           5.0155   -4.0730   19.6505 C.3     1  UNL1        0.4118
     32 F           3.8382   -4.9809   19.8501 F       1  UNL1       -0.1685
     33 F           4.9990   -3.7305   21.1108 F       1  UNL1       -0.1685
     34 F           5.0320   -4.4155   18.1902 F       1  UNL1       -0.1685
     35 C          -2.6469    4.9122   18.1795 C.2     1  UNL1        0.2699
     36 O          -2.5016    6.1975   17.4199 O.2     1  UNL1       -0.2679
     37 N          -3.9822    4.2332   18.2562 N.am    1  UNL1       -0.2969
     38 H          -4.0776    3.3897   18.7548 H       1  UNL1        0.1499
     39 C          -5.1722    4.8395   17.5733 C.3     1  UNL1        0.1166
     40 C          -6.5514    4.5908   18.1084 C.3     1  UNL1        0.1064
     41 C          -7.0116    5.8955   17.5286 C.3     1  UNL1        0.0311
     42 C          -6.0911    3.2861   18.6882 C.3     1  UNL1        0.0311
     43 O          -7.9304    4.3421   18.6435 O.3     1  UNL1       -0.3851
     44 H          -8.5083    5.0839   18.4054 H       1  UNL1        0.2103
@<TRIPOS>BOND
     1    30    29    1
     2    30    27    1
     3    27    24    1
     4    24    25    2
     5    24    26    2
     6    24    16    1
     7    16    17   ar
     8    17    18   ar
     9    18    19   ar
    10    19     1    1
    11     1     2   ar
    12     2     3   ar
    13     3    35    1
    14    35    36    2
    15    35    37   am
    16    37    39    1
    17    39    40    1
    18    40    41    1
    19    40    42    1
    20    40    43    1
    21     3     4   ar
    22     4     5   ar
    23     5     6    1
    24     6     7    2
    25     6     8   am
    26     8     9    1
    27     9    10    1
    28    10    11    1
    29    10    12    1
    30    10    13    1
    31    13    14    1
    32    14    15    1
    33    19    20   ar
    34    20    21    1
    35    20    22   ar
    36    22    23    1
    37    30    31    1
    38    31    32    1
    39    31    33    1
    40    31    34    1
    41    22    16   ar
    42     5     1   ar
    43    14     8    1
    44    27    28    1
    45    37    38    1
    46    43    44    1
@<TRIPOS>MOLECULE
*****
 44 46 0 0 0
SMALL
GASTEIGER

@<TRIPOS>ATOM
      1 C           4.8382   -0.6804   26.8406 C.ar    1  UNL1        0.0539
      2 S           5.6000   -1.5290   27.8149 S.2     1  UNL1       -0.0619
      3 C           5.1782   -1.1369   29.2000 C.ar    1  UNL1        0.1641
      4 N           4.1557   -0.0458   29.0816 N.ar    1  UNL1       -0.2291
      5 C           3.9455    0.2363   27.6235 C.ar    1  UNL1        0.1414
      6 C           3.0074    1.2561   27.0491 C.2     1  UNL1        0.2674
      7 O           3.5286    2.3215   26.1307 O.2     1  UNL1       -0.2682
      8 N           1.5481    1.2106   27.3929 N.am    1  UNL1       -0.2710
      9 C           0.8851    0.2099   28.2923 C.3     1  UNL1        0.1603
     10 C          -0.5773    0.5386   28.3530 C.3     1  UNL1        0.2835
     11 F          -0.6453   -0.6485   29.2676 F       1  UNL1       -0.2024
     12 F          -2.0538    0.6191   28.6050 F       1  UNL1       -0.2024
     13 C          -0.8179    1.7424   27.4912 C.3     1  UNL1        0.0881
     14 C           0.4956    2.1577   26.8978 C.3     1  UNL1        0.0814
     15 C           0.7176    3.3168   25.9719 C.3     1  UNL1        0.0217
     16 C           5.1719   -0.8539   22.3563 C.ar    1  UNL1        0.1333
     17 C           4.1950   -1.7401   23.0706 C.ar    1  UNL1        0.0208
     18 C           4.0837   -1.6823   24.5653 C.ar    1  UNL1        0.0028
     19 C           4.9494   -0.7382   25.3458 C.ar    1  UNL1        0.0191
     20 C           5.9264    0.1480   24.6316 C.ar    1  UNL1        0.0700
     21 CL          6.7922    1.0921   25.4122 Cl      1  UNL1       -0.0813
     22 C           6.0376    0.0901   23.1369 C.ar    1  UNL1        0.0867
     23 CL          7.0147    0.9764   22.4227 Cl      1  UNL1       -0.0800
     24 S           5.2832   -0.9117   20.8616 S.O2    1  UNL1        0.0613
     25 O           6.3321   -1.9773   20.9809 O.2     1  UNL1       -0.1530
     26 O           4.2343    0.1539   20.7423 O.2     1  UNL1       -0.1530
     27 N           5.3944   -0.9696   19.3668 N.3     1  UNL1       -0.1723
     28 H           5.4933   -0.0079   19.0415 H       1  UNL1        0.1491
     29 C           3.7536   -0.8740   17.3547 C.3     1  UNL1        0.0278
     30 C           4.2953   -1.5900   18.5564 C.3     1  UNL1        0.1701
     31 C           3.7376   -2.9264   18.9476 C.3     1  UNL1        0.4118
     32 F           3.1800   -4.2628   19.3388 F       1  UNL1       -0.1685
     33 F           2.5755   -2.2476   19.6099 F       1  UNL1       -0.1685
     34 F           4.8998   -3.6052   18.2854 F       1  UNL1       -0.1685
     35 C           5.6893   -1.7314   30.4788 C.2     1  UNL1        0.2699
     36 O           5.3247   -1.1085   31.7938 O.2     1  UNL1       -0.2679
     37 N           6.5648   -2.9488   30.4426 N.am    1  UNL1       -0.2969
     38 H           6.8041   -3.3576   29.5795 H       1  UNL1        0.1499
     39 C           7.0759   -3.5433   31.7214 C.3     1  UNL1        0.1166
     40 C           8.1448   -4.5952   31.6849 C.3     1  UNL1        0.1064
     41 C           9.1854   -3.5466   31.9452 C.3     1  UNL1        0.0311
     42 C           7.1041   -5.6436   31.4246 C.3     1  UNL1        0.0311
     43 O           9.2136   -5.6470   31.6484 O.3     1  UNL1       -0.3851
     44 H          10.0785   -5.2345   31.7993 H       1  UNL1        0.2103
@<TRIPOS>BOND
     1    30    29    1
     2    30    27    1
     3    27    24    1
     4    24    25    2
     5    24    26    2
     6    24    16    1
     7    16    17   ar
     8    17    18   ar
     9    18    19   ar
    10    19     1    1
    11     1     2   ar
    12     2     3   ar
    13     3    35    1
    14    35    36    2
    15    35    37   am
    16    37    39    1
    17    39    40    1
    18    40    41    1
    19    40    42    1
    20    40    43    1
    21     3     4   ar
    22     4     5   ar
    23     5     6    1
    24     6     7    2
    25     6     8   am
    26     8     9    1
    27     9    10    1
    28    10    11    1
    29    10    12    1
    30    10    13    1
    31    13    14    1
    32    14    15    1
    33    19    20   ar
    34    20    21    1
    35    20    22   ar
    36    22    23    1
    37    30    31    1
    38    31    32    1
    39    31    33    1
    40    31    34    1
    41    22    16   ar
    42     5     1   ar
    43    14     8    1
    44    27    28    1
    45    37    38    1
    46    43    44    1
@<TRIPOS>MOLECULE
*****
 44 46 0 0 0
SMALL
GASTEIGER

@<TRIPOS>ATOM
      1 C           2.8110    0.6165   21.5515 C.ar    1  UNL1        0.0539
      2 S           1.4614    1.2520   21.7087 S.2     1  UNL1       -0.0619
      3 C           1.0243    1.7507   20.3632 C.ar    1  UNL1        0.1641
      4 N           2.1037    1.4233   19.3745 N.ar    1  UNL1       -0.2291
      5 C           3.2080    0.7224   20.1089 C.ar    1  UNL1        0.1414
      6 C           4.4850    0.2162   19.5065 C.2     1  UNL1        0.2674
      7 O           5.6289    1.1580   19.2725 O.2     1  UNL1       -0.2682
      8 N           4.6183   -1.2316   19.1380 N.am    1  UNL1       -0.2710
      9 C           3.5658   -2.2862   19.3120 C.3     1  UNL1        0.1603
     10 C           4.1244   -3.5855   18.8123 C.3     1  UNL1        0.2835
     11 F           2.7849   -4.1326   19.2080 F       1  UNL1       -0.2024
     12 F           4.4030   -4.9992   18.3954 F       1  UNL1       -0.2024
     13 C           5.5221   -3.3340   18.3294 C.3     1  UNL1        0.0881
     14 C           5.8273   -1.8793   18.5307 C.3     1  UNL1        0.0814
     15 C           7.1154   -1.1927   18.1853 C.3     1  UNL1        0.0217
     16 C           5.2419   -1.2754   24.8320 C.ar    1  UNL1        0.1333
     17 C           4.4348   -2.1354   23.9052 C.ar    1  UNL1        0.0208
     18 C           3.6245   -1.5048   22.8117 C.ar    1  UNL1        0.0028
     19 C           3.6213   -0.0141   22.6450 C.ar    1  UNL1        0.0191
     20 C           4.4283    0.8459   23.5718 C.ar    1  UNL1        0.0700
     21 CL          4.4252    2.3367   23.4051 Cl      1  UNL1       -0.0813
     22 C           5.2387    0.2153   24.6652 C.ar    1  UNL1        0.0867
     23 CL          6.0458    1.0754   25.5920 Cl      1  UNL1       -0.0800
     24 S           6.0522   -1.9060   25.9255 S.O2    1  UNL1        0.0613
     25 O           4.8532   -1.8842   26.8265 O.2     1  UNL1       -0.1530
     26 O           7.2512   -1.9278   25.0244 O.2     1  UNL1       -0.1530
     27 N           6.8625   -2.5366   27.0189 N.3     1  UNL1       -0.1723
     28 H           7.8423   -2.3529   26.8028 H       1  UNL1        0.1491
     29 C           6.7786   -4.9816   26.1441 C.3     1  UNL1        0.0278
     30 C           6.7464   -4.0082   27.2851 C.3     1  UNL1        0.1701
     31 C           6.5982   -4.5066   28.6921 C.3     1  UNL1        0.4118
     32 F           6.4500   -5.0049   30.0991 F       1  UNL1       -0.1685
     33 F           7.5388   -3.4399   29.1690 F       1  UNL1       -0.1685
     34 F           5.6576   -5.5733   28.2152 F       1  UNL1       -0.1685
     35 C          -0.2658    2.4533   20.0597 C.2     1  UNL1        0.2699
     36 O          -0.4687    3.1052   18.7241 O.2     1  UNL1       -0.2679
     37 N          -1.3530    2.5039   21.0919 N.am    1  UNL1       -0.2969
     38 H          -1.2199    2.0760   21.9685 H       1  UNL1        0.1499
     39 C          -2.6431    3.2065   20.7884 C.3     1  UNL1        0.1166
     40 C          -3.6090    3.5118   21.8948 C.3     1  UNL1        0.1064
     41 C          -4.7543    3.1626   20.9911 C.3     1  UNL1        0.0311
     42 C          -2.4637    3.8610   22.7983 C.3     1  UNL1        0.0311
     43 O          -4.5749    3.8171   23.0010 O.3     1  UNL1       -0.3851
     44 H          -5.4814    3.6700   22.6886 H       1  UNL1        0.2103
@<TRIPOS>BOND
     1    30    29    1
     2    30    27    1
     3    27    24    1
     4    24    25    2
     5    24    26    2
     6    24    16    1
     7    16    17   ar
     8    17    18   ar
     9    18    19   ar
    10    19     1    1
    11     1     2   ar
    12     2     3   ar
    13     3    35    1
    14    35    36    2
    15    35    37   am
    16    37    39    1
    17    39    40    1
    18    40    41    1
    19    40    42    1
    20    40    43    1
    21     3     4   ar
    22     4     5   ar
    23     5     6    1
    24     6     7    2
    25     6     8   am
    26     8     9    1
    27     9    10    1
    28    10    11    1
    29    10    12    1
    30    10    13    1
    31    13    14    1
    32    14    15    1
    33    19    20   ar
    34    20    21    1
    35    20    22   ar
    36    22    23    1
    37    30    31    1
    38    31    32    1
    39    31    33    1
    40    31    34    1
    41    22    16   ar
    42     5     1   ar
    43    14     8    1
    44    27    28    1
    45    37    38    1
    46    43    44    1
@<TRIPOS>MOLECULE
*****
 44 46 0 0 0
SMALL
GASTEIGER

@<TRIPOS>ATOM
      1 C           0.0687    2.5485   21.7335 C.ar    1  UNL1        0.0539
      2 S          -1.2323    2.8804   21.0646 S.2     1  UNL1       -0.0619
      3 C          -1.9809    3.8300   21.9522 C.ar    1  UNL1        0.1641
      4 N          -1.1426    4.0851   23.1696 N.ar    1  UNL1       -0.2291
      5 C           0.1241    3.2931   23.0345 C.ar    1  UNL1        0.1414
      6 C           1.2487    3.2527   24.0262 C.2     1  UNL1        0.2674
      7 O           2.6333    3.6493   23.6066 O.2     1  UNL1       -0.2682
      8 N           0.9890    2.8160   25.4374 N.am    1  UNL1       -0.2710
      9 C          -0.3357    2.3928   25.9997 C.3     1  UNL1        0.1603
     10 C          -0.1351    2.0409   27.4440 C.3     1  UNL1        0.2835
     11 F          -1.6061    1.7489   27.4144 F       1  UNL1       -0.2024
     12 F          -0.2421    1.6280   28.8821 F       1  UNL1       -0.2024
     13 C           1.3135    2.2466   27.7743 C.3     1  UNL1        0.0881
     14 C           2.0082    2.7255   26.5342 C.3     1  UNL1        0.0814
     15 C           3.4663    3.0561   26.4123 C.3     1  UNL1        0.0217
     16 C           3.2472   -0.1983   20.1204 C.ar    1  UNL1        0.1333
     17 C           2.1015   -0.7589   20.9098 C.ar    1  UNL1        0.0208
     18 C           1.0420    0.1567   21.4475 C.ar    1  UNL1        0.0028
     19 C           1.1282    1.6329   21.1958 C.ar    1  UNL1        0.0191
     20 C           2.2738    2.1935   20.4064 C.ar    1  UNL1        0.0700
     21 CL          2.3600    3.6697   20.1546 Cl      1  UNL1       -0.0813
     22 C           3.3333    1.2778   19.8687 C.ar    1  UNL1        0.0867
     23 CL          4.4790    1.8385   19.0792 Cl      1  UNL1       -0.0800
     24 S           4.3067   -1.1140   19.5827 S.O2    1  UNL1        0.0613
     25 O           3.5362   -1.2542   18.3034 O.2     1  UNL1       -0.1530
     26 O           5.0771   -0.9737   20.8621 O.2     1  UNL1       -0.1530
     27 N           5.3662   -2.0296   19.0450 N.3     1  UNL1       -0.1723
     28 H           5.1447   -2.1913   18.0626 H       1  UNL1        0.1491
     29 C           6.9055   -3.7183   20.2815 C.3     1  UNL1        0.0278
     30 C           5.5797   -3.3771   19.6683 C.3     1  UNL1        0.1701
     31 C           4.4675   -4.3836   19.6783 C.3     1  UNL1        0.4118
     32 F           3.3554   -5.3901   19.6883 F       1  UNL1       -0.1685
     33 F           4.2140   -4.0891   21.1271 F       1  UNL1       -0.1685
     34 F           4.7211   -4.6781   18.2295 F       1  UNL1       -0.1685
     35 C          -3.3308    4.4208   21.6716 C.2     1  UNL1        0.2699
     36 O          -3.8792    4.4088   20.2754 O.2     1  UNL1       -0.2679
     37 N          -4.1322    5.0236   22.7870 N.am    1  UNL1       -0.2969
     38 H          -3.7723    5.0314   23.7033 H       1  UNL1        0.1499
     39 C          -5.4821    5.6144   22.5064 C.3     1  UNL1        0.1166
     40 C          -6.7175    4.7839   22.6919 C.3     1  UNL1        0.1064
     41 C          -6.2630    4.4165   24.0734 C.3     1  UNL1        0.0311
     42 C          -7.1719    5.1514   21.3104 C.3     1  UNL1        0.0311
     43 O          -7.9529    3.9535   22.8774 O.3     1  UNL1       -0.3851
     44 H          -7.9421    3.5505   23.7597 H       1  UNL1        0.2103
@<TRIPOS>BOND
     1    30    29    1
     2    30    27    1
     3    27    24    1
     4    24    25    2
     5    24    26    2
     6    24    16    1
     7    16    17   ar
     8    17    18   ar
     9    18    19   ar
    10    19     1    1
    11     1     2   ar
    12     2     3   ar
    13     3    35    1
    14    35    36    2
    15    35    37   am
    16    37    39    1
    17    39    40    1
    18    40    41    1
    19    40    42    1
    20    40    43    1
    21     3     4   ar
    22     4     5   ar
    23     5     6    1
    24     6     7    2
    25     6     8   am
    26     8     9    1
    27     9    10    1
    28    10    11    1
    29    10    12    1
    30    10    13    1
    31    13    14    1
    32    14    15    1
    33    19    20   ar
    34    20    21    1
    35    20    22   ar
    36    22    23    1
    37    30    31    1
    38    31    32    1
    39    31    33    1
    40    31    34    1
    41    22    16   ar
    42     5     1   ar
    43    14     8    1
    44    27    28    1
    45    37    38    1
    46    43    44    1
@<TRIPOS>MOLECULE
*****
 44 46 0 0 0
SMALL
GASTEIGER

@<TRIPOS>ATOM
      1 C           2.8010    0.6217   21.5992 C.ar    1  UNL1        0.0539
      2 S           1.4564    1.2664   21.7614 S.2     1  UNL1       -0.0619
      3 C           1.0280    1.7885   20.4220 C.ar    1  UNL1        0.1641
      4 N           2.1079    1.4665   19.4320 N.ar    1  UNL1       -0.2291
      5 C           3.2037    0.7454   20.1595 C.ar    1  UNL1        0.1414
      6 C           4.4783    0.2372   19.5537 C.2     1  UNL1        0.2674
      7 O           5.6280    1.1743   19.3294 O.2     1  UNL1       -0.2682
      8 N           4.6034   -1.2080   19.1723 N.am    1  UNL1       -0.2710
      9 C           3.5446   -2.2578   19.3358 C.3     1  UNL1        0.1603
     10 C           4.0961   -3.5559   18.8248 C.3     1  UNL1        0.2835
     11 F           2.7531   -4.0987   19.2143 F       1  UNL1       -0.2024
     12 F           4.3668   -4.9674   18.3954 F       1  UNL1       -0.2024
     13 C           5.4957   -3.3082   18.3456 C.3     1  UNL1        0.0881
     14 C           5.8092   -1.8572   18.5603 C.3     1  UNL1        0.0814
     15 C           7.1018   -1.1751   18.2223 C.3     1  UNL1        0.0217
     16 C           5.2049   -1.3391   24.8590 C.ar    1  UNL1        0.1333
     17 C           4.4319   -2.1808   23.8874 C.ar    1  UNL1        0.0208
     18 C           3.6306   -1.5272   22.8008 C.ar    1  UNL1        0.0028
     19 C           3.6023   -0.0319   22.6858 C.ar    1  UNL1        0.0191
     20 C           4.3753    0.8098   23.6574 C.ar    1  UNL1        0.0700
     21 CL          4.3470    2.3052   23.5424 Cl      1  UNL1       -0.0813
     22 C           5.1766    0.1562   24.7440 C.ar    1  UNL1        0.0867
     23 CL          5.9496    0.9980   25.7156 Cl      1  UNL1       -0.0800
     24 S           6.0062   -1.9927   25.9456 S.O2    1  UNL1        0.0613
     25 O           4.8050   -1.9721   26.8438 O.2     1  UNL1       -0.1530
     26 O           7.2074   -2.0132   25.0475 O.2     1  UNL1       -0.1530
     27 N           6.8075   -2.6463   27.0323 N.3     1  UNL1       -0.1723
     28 H           7.7850   -2.4123   26.8587 H       1  UNL1        0.1491
     29 C           6.8091   -5.0425   26.0280 C.3     1  UNL1        0.0278
     30 C           6.7449   -4.1332   27.2194 C.3     1  UNL1        0.1701
     31 C           6.6179   -4.7110   28.5978 C.3     1  UNL1        0.4118
     32 F           6.4910   -5.2888   29.9762 F       1  UNL1       -0.1685
     33 F           5.5796   -5.6719   28.0994 F       1  UNL1       -0.1685
     34 F           7.6563   -3.7501   29.0962 F       1  UNL1       -0.1685
     35 C          -0.2550    2.5066   20.1249 C.2     1  UNL1        0.2699
     36 O          -1.4816    2.2184   20.9388 O.2     1  UNL1       -0.2679
     37 N          -0.3114    3.5128   19.0139 N.am    1  UNL1       -0.2969
     38 H           0.4937    3.7019   18.4797 H       1  UNL1        0.1499
     39 C          -1.5944    4.2308   18.7167 C.3     1  UNL1        0.1166
     40 C          -2.2679    4.0448   17.3893 C.3     1  UNL1        0.1064
     41 C          -0.9311    4.0600   16.7090 C.3     1  UNL1        0.0311
     42 C          -3.6047    4.0296   18.0698 C.3     1  UNL1        0.0311
     43 O          -2.9414    3.8588   16.0620 O.3     1  UNL1       -0.3851
     44 H          -2.2716    3.8279   15.3611 H       1  UNL1        0.2103
@<TRIPOS>BOND
     1    30    29    1
     2    30    27    1
     3    27    24    1
     4    24    25    2
     5    24    26    2
     6    24    16    1
     7    16    17   ar
     8    17    18   ar
     9    18    19   ar
    10    19     1    1
    11     1     2   ar
    12     2     3   ar
    13     3    35    1
    14    35    36    2
    15    35    37   am
    16    37    39    1
    17    39    40    1
    18    40    41    1
    19    40    42    1
    20    40    43    1
    21     3     4   ar
    22     4     5   ar
    23     5     6    1
    24     6     7    2
    25     6     8   am
    26     8     9    1
    27     9    10    1
    28    10    11    1
    29    10    12    1
    30    10    13    1
    31    13    14    1
    32    14    15    1
    33    19    20   ar
    34    20    21    1
    35    20    22   ar
    36    22    23    1
    37    30    31    1
    38    31    32    1
    39    31    33    1
    40    31    34    1
    41    22    16   ar
    42     5     1   ar
    43    14     8    1
    44    27    28    1
    45    37    38    1
    46    43    44    1
@<TRIPOS>MOLECULE
*****
 44 46 0 0 0
SMALL
GASTEIGER

@<TRIPOS>ATOM
      1 C           3.9829   -0.6350   23.3358 C.ar    1  UNL1        0.0539
      2 S           3.8125   -0.9520   24.7920 S.2     1  UNL1       -0.0619
      3 C           5.0236   -1.7118   25.2459 C.ar    1  UNL1        0.1641
      4 N           5.9426   -1.8644   24.0702 N.ar    1  UNL1       -0.2291
      5 C           5.2994   -1.1989   22.8897 C.ar    1  UNL1        0.1414
      6 C           5.8721   -1.1125   21.5061 C.2     1  UNL1        0.2674
      7 O           6.7802    0.0239   21.1398 O.2     1  UNL1       -0.2682
      8 N           5.5368   -2.1624   20.4886 N.am    1  UNL1       -0.2710
      9 C           4.6481   -3.3507   20.7079 C.3     1  UNL1        0.1603
     10 C           4.5934   -4.1311   19.4280 C.3     1  UNL1        0.2835
     11 F           3.6873   -5.0400   20.2047 F       1  UNL1       -0.2024
     12 F           4.3492   -5.1015   18.3106 F       1  UNL1       -0.2024
     13 C           5.4483   -3.4251   18.4178 C.3     1  UNL1        0.0881
     14 C           6.0314   -2.2084   19.0733 C.3     1  UNL1        0.0814
     15 C           6.9481   -1.2126   18.4268 C.3     1  UNL1        0.0217
     16 C           1.0584    1.6129   20.7582 C.ar    1  UNL1        0.1333
     17 C           1.2491    0.1377   20.5647 C.ar    1  UNL1        0.0208
     18 C           2.2239   -0.6116   21.4240 C.ar    1  UNL1        0.0028
     19 C           3.0081    0.1143   22.4766 C.ar    1  UNL1        0.0191
     20 C           2.8174    1.5895   22.6700 C.ar    1  UNL1        0.0700
     21 CL          3.6016    2.3154   23.7227 Cl      1  UNL1       -0.0813
     22 C           1.8426    2.3388   21.8108 C.ar    1  UNL1        0.0867
     23 CL          1.6520    3.8140   22.0043 Cl      1  UNL1       -0.0800
     24 S           0.0836    2.3622   19.8990 S.O2    1  UNL1        0.0613
     25 O           1.2054    2.7911   19.0003 O.2     1  UNL1       -0.1530
     26 O          -1.0382    1.9332   20.7977 O.2     1  UNL1       -0.1530
     27 N          -0.8913    3.1115   19.0398 N.3     1  UNL1       -0.1723
     28 H          -0.3406    3.6574   18.3770 H       1  UNL1        0.1491
     29 C          -1.3826    5.2500   20.4310 C.3     1  UNL1        0.0278
     30 C          -1.8733    4.0554   19.6678 C.3     1  UNL1        0.1701
     31 C          -3.3461    3.8049   19.5328 C.3     1  UNL1        0.4118
     32 F          -4.8188    3.5544   19.3977 F       1  UNL1       -0.1685
     33 F          -3.1886    3.6803   18.0463 F       1  UNL1       -0.1685
     34 F          -3.5036    3.9295   21.0193 F       1  UNL1       -0.1685
     35 C           5.2721   -2.2282   26.6320 C.2     1  UNL1        0.2699
     36 O           4.7259   -1.4885   27.8172 O.2     1  UNL1       -0.2679
     37 N           6.0668   -3.4844   26.8331 N.am    1  UNL1       -0.2969
     38 H           6.4253   -3.9699   26.0552 H       1  UNL1        0.1499
     39 C           6.3153   -4.0009   28.2193 C.3     1  UNL1        0.1166
     40 C           6.7901   -5.4095   28.4209 C.3     1  UNL1        0.1064
     41 C           6.6808   -5.6575   26.9455 C.3     1  UNL1        0.0311
     42 C           6.8993   -5.1615   29.8962 C.3     1  UNL1        0.0311
     43 O           7.2648   -6.8181   28.6225 O.3     1  UNL1       -0.3851
     44 H           7.3006   -7.2729   27.7665 H       1  UNL1        0.2103
@<TRIPOS>BOND
     1    30    29    1
     2    30    27    1
     3    27    24    1
     4    24    25    2
     5    24    26    2
     6    24    16    1
     7    16    17   ar
     8    17    18   ar
     9    18    19   ar
    10    19     1    1
    11     1     2   ar
    12     2     3   ar
    13     3    35    1
    14    35    36    2
    15    35    37   am
    16    37    39    1
    17    39    40    1
    18    40    41    1
    19    40    42    1
    20    40    43    1
    21     3     4   ar
    22     4     5   ar
    23     5     6    1
    24     6     7    2
    25     6     8   am
    26     8     9    1
    27     9    10    1
    28    10    11    1
    29    10    12    1
    30    10    13    1
    31    13    14    1
    32    14    15    1
    33    19    20   ar
    34    20    21    1
    35    20    22   ar
    36    22    23    1
    37    30    31    1
    38    31    32    1
    39    31    33    1
    40    31    34    1
    41    22    16   ar
    42     5     1   ar
    43    14     8    1
    44    27    28    1
    45    37    38    1
    46    43    44    1
@<TRIPOS>MOLECULE
*****
 44 46 0 0 0
SMALL
GASTEIGER

@<TRIPOS>ATOM
      1 C           4.0826   -0.5046   29.6884 C.ar    1  UNL1        0.0539
      2 S           5.3418   -1.1645   29.2102 S.2     1  UNL1       -0.0619
      3 C           5.0572   -1.7981   27.8806 C.ar    1  UNL1        0.1641
      4 N           3.6219   -1.5296   27.5371 N.ar    1  UNL1       -0.2291
      5 C           3.0196   -0.7302   28.6544 C.ar    1  UNL1        0.1414
      6 C           1.6030   -0.2422   28.7252 C.2     1  UNL1        0.2674
      7 O           0.7632   -0.5493   29.9296 O.2     1  UNL1       -0.2682
      8 N           1.0261    0.5530   27.5917 N.am    1  UNL1       -0.2710
      9 C           1.7410    0.9359   26.3298 C.3     1  UNL1        0.1603
     10 C           0.7897    1.7244   25.4792 C.3     1  UNL1        0.2835
     11 F           1.9441    1.7876   24.5234 F       1  UNL1       -0.2024
     12 F           0.0799    2.5262   24.4288 F       1  UNL1       -0.2024
     13 C          -0.5129    1.8289   26.2154 C.3     1  UNL1        0.0881
     14 C          -0.3668    1.1049   27.5210 C.3     1  UNL1        0.0814
     15 C          -1.4276    0.9585   28.5714 C.3     1  UNL1        0.0217
     16 C           3.5817    1.7554   33.5473 C.ar    1  UNL1        0.1333
     17 C           3.6360    0.2564   33.5577 C.ar    1  UNL1        0.0208
     18 C           3.8030   -0.4969   32.2713 C.ar    1  UNL1        0.0028
     19 C           3.9156    0.2487   30.9747 C.ar    1  UNL1        0.0191
     20 C           3.8613    1.7477   30.9644 C.ar    1  UNL1        0.0700
     21 CL          3.9739    2.4934   29.6677 Cl      1  UNL1       -0.0813
     22 C           3.6943    2.5010   32.2507 C.ar    1  UNL1        0.0867
     23 CL          3.6400    4.0000   32.2404 Cl      1  UNL1       -0.0800
     24 S           3.4147    2.5087   34.8337 S.O2    1  UNL1        0.0613
     25 O           4.9051    2.5700   34.9912 O.2     1  UNL1       -0.1530
     26 O           1.9242    2.4473   34.6761 O.2     1  UNL1       -0.1530
     27 N           3.2477    3.2620   36.1200 N.3     1  UNL1       -0.1723
     28 H           3.8393    4.0904   36.0550 H       1  UNL1        0.1491
     29 C           4.7728    3.0386   38.2115 C.3     1  UNL1        0.0278
     30 C           3.5734    2.5987   37.4253 C.3     1  UNL1        0.1701
     31 C           2.6998    1.4955   37.9446 C.3     1  UNL1        0.4118
     32 F           1.8261    0.3922   38.4638 F       1  UNL1       -0.1685
     33 F           3.7639    0.4937   37.6065 F       1  UNL1       -0.1685
     34 F           1.6357    2.4972   38.2826 F       1  UNL1       -0.1685
     35 C           6.0359   -2.5653   27.0419 C.2     1  UNL1        0.2699
     36 O           7.3637   -2.9640   27.6147 O.2     1  UNL1       -0.2679
     37 N           5.6868   -2.9338   25.6304 N.am    1  UNL1       -0.2969
     38 H           4.8154   -2.6721   25.2545 H       1  UNL1        0.1499
     39 C           6.6655   -3.7010   24.7917 C.3     1  UNL1        0.1166
     40 C           6.3398   -4.0207   23.3627 C.3     1  UNL1        0.1064
     41 C           7.5806   -4.8582   23.2672 C.3     1  UNL1        0.0311
     42 C           5.0990   -3.1831   23.4583 C.3     1  UNL1        0.0311
     43 O           6.0140   -4.3403   21.9338 O.3     1  UNL1       -0.3851
     44 H           6.7003   -4.9198   21.5676 H       1  UNL1        0.2103
@<TRIPOS>BOND
     1    30    29    1
     2    30    27    1
     3    27    24    1
     4    24    25    2
     5    24    26    2
     6    24    16    1
     7    16    17   ar
     8    17    18   ar
     9    18    19   ar
    10    19     1    1
    11     1     2   ar
    12     2     3   ar
    13     3    35    1
    14    35    36    2
    15    35    37   am
    16    37    39    1
    17    39    40    1
    18    40    41    1
    19    40    42    1
    20    40    43    1
    21     3     4   ar
    22     4     5   ar
    23     5     6    1
    24     6     7    2
    25     6     8   am
    26     8     9    1
    27     9    10    1
    28    10    11    1
    29    10    12    1
    30    10    13    1
    31    13    14    1
    32    14    15    1
    33    19    20   ar
    34    20    21    1
    35    20    22   ar
    36    22    23    1
    37    30    31    1
    38    31    32    1
    39    31    33    1
    40    31    34    1
    41    22    16   ar
    42     5     1   ar
    43    14     8    1
    44    27    28    1
    45    37    38    1
    46    43    44    1
@<TRIPOS>MOLECULE
*****
 44 46 0 0 0
SMALL
GASTEIGER

@<TRIPOS>ATOM
      1 C           3.6628   -0.3335   22.7824 C.ar    1  UNL1        0.0539
      2 S           2.3941    0.2358   23.3450 S.2     1  UNL1       -0.0619
      3 C           1.7133    1.0139   22.2582 C.ar    1  UNL1        0.1641
      4 N           2.5611    0.9255   21.0240 N.ar    1  UNL1       -0.2291
      5 C           3.7659    0.0927   21.3480 C.ar    1  UNL1        0.1414
      6 C           4.8786   -0.2531   20.4033 C.2     1  UNL1        0.2674
      7 O           5.9828    0.7309   20.1528 O.2     1  UNL1       -0.2682
      8 N           4.8872   -1.5827   19.7091 N.am    1  UNL1       -0.2710
      9 C           3.8567   -2.6623   19.8594 C.3     1  UNL1        0.1603
     10 C           4.2604   -3.8131   18.9859 C.3     1  UNL1        0.2835
     11 F           3.0102   -4.4500   19.5165 F       1  UNL1       -0.2024
     12 F           4.4027   -5.0970   18.2234 F       1  UNL1       -0.2024
     13 C           5.5402   -3.4446   18.2959 C.3     1  UNL1        0.0881
     14 C           5.9276   -2.0662   18.7429 C.3     1  UNL1        0.0814
     15 C           7.1423   -1.3050   18.3011 C.3     1  UNL1        0.0217
     16 C           6.6368   -2.8741   25.0074 C.ar    1  UNL1        0.1333
     17 C           5.6876   -3.5087   24.0347 C.ar    1  UNL1        0.0208
     18 C           4.6963   -2.6618   23.2930 C.ar    1  UNL1        0.0028
     19 C           4.6541   -1.1804   23.5241 C.ar    1  UNL1        0.0191
     20 C           5.6033   -0.5457   24.4968 C.ar    1  UNL1        0.0700
     21 CL          5.5611    0.9358   24.7280 Cl      1  UNL1       -0.0813
     22 C           6.5946   -1.3926   25.2385 C.ar    1  UNL1        0.0867
     23 CL          7.5438   -0.7579   26.2113 Cl      1  UNL1       -0.0800
     24 S           7.6282   -3.7209   25.7491 S.O2    1  UNL1        0.0613
     25 O           8.6111   -3.5514   24.6288 O.2     1  UNL1       -0.1530
     26 O           6.6452   -3.8904   26.8694 O.2     1  UNL1       -0.1530
     27 N           8.6195   -4.5678   26.4908 N.3     1  UNL1       -0.1723
     28 H           9.4898   -4.5355   25.9598 H       1  UNL1        0.1491
     29 C           8.2624   -6.5277   28.1585 C.3     1  UNL1        0.0278
     30 C           8.3239   -6.0153   26.7500 C.3     1  UNL1        0.1701
     31 C           8.0897   -6.9504   25.6008 C.3     1  UNL1        0.4118
     32 F           7.8555   -7.8856   24.4516 F       1  UNL1       -0.1685
     33 F           9.4474   -6.6202   25.0554 F       1  UNL1       -0.1685
     34 F           6.7319   -7.2806   26.1462 F       1  UNL1       -0.1685
     35 C           0.4129    1.7510   22.3837 C.2     1  UNL1        0.2699
     36 O          -0.5392    1.7948   21.2254 O.2     1  UNL1       -0.2679
     37 N           0.0647    2.4442   23.6675 N.am    1  UNL1       -0.2969
     38 H           0.6895    2.4155   24.4277 H       1  UNL1        0.1499
     39 C          -1.2357    3.1813   23.7929 C.3     1  UNL1        0.1166
     40 C          -1.9400    3.2399   25.1162 C.3     1  UNL1        0.1064
     41 C          -3.1048    3.9255   24.4658 C.3     1  UNL1        0.0311
     42 C          -0.7750    2.5542   25.7664 C.3     1  UNL1        0.0311
     43 O          -2.6441    3.2984   26.4393 O.3     1  UNL1       -0.3851
     44 H          -3.5061    3.7290   26.3281 H       1  UNL1        0.2103
@<TRIPOS>BOND
     1    30    29    1
     2    30    27    1
     3    27    24    1
     4    24    25    2
     5    24    26    2
     6    24    16    1
     7    16    17   ar
     8    17    18   ar
     9    18    19   ar
    10    19     1    1
    11     1     2   ar
    12     2     3   ar
    13     3    35    1
    14    35    36    2
    15    35    37   am
    16    37    39    1
    17    39    40    1
    18    40    41    1
    19    40    42    1
    20    40    43    1
    21     3     4   ar
    22     4     5   ar
    23     5     6    1
    24     6     7    2
    25     6     8   am
    26     8     9    1
    27     9    10    1
    28    10    11    1
    29    10    12    1
    30    10    13    1
    31    13    14    1
    32    14    15    1
    33    19    20   ar
    34    20    21    1
    35    20    22   ar
    36    22    23    1
    37    30    31    1
    38    31    32    1
    39    31    33    1
    40    31    34    1
    41    22    16   ar
    42     5     1   ar
    43    14     8    1
    44    27    28    1
    45    37    38    1
    46    43    44    1
@<TRIPOS>MOLECULE
*****
 44 46 0 0 0
SMALL
GASTEIGER

@<TRIPOS>ATOM
      1 C           0.0474    2.6524   22.6366 C.ar    1  UNL1        0.0539
      2 S          -1.1708    3.4345   22.2440 S.2     1  UNL1       -0.0619
      3 C          -1.7369    4.0636   23.4825 C.ar    1  UNL1        0.1641
      4 N          -0.8685    3.6702   24.6406 N.ar    1  UNL1       -0.2291
      5 C           0.2343    2.7981   24.1178 C.ar    1  UNL1        0.1414
      6 C           1.3313    2.1801   24.9330 C.2     1  UNL1        0.2674
      7 O           2.7534    2.2641   24.4631 O.2     1  UNL1       -0.2682
      8 N           1.0064    1.4782   26.2182 N.am    1  UNL1       -0.2710
      9 C          -0.3612    1.3151   26.8123 C.3     1  UNL1        0.1603
     10 C          -0.2208    0.5522   28.0963 C.3     1  UNL1        0.2835
     11 F          -1.7110    0.7078   28.1685 F       1  UNL1       -0.2024
     12 F          -0.3920   -0.1781   29.3952 F       1  UNL1       -0.2024
     13 C           1.2335    0.2439   28.2956 C.3     1  UNL1        0.0881
     14 C           1.9919    0.8162   27.1349 C.3     1  UNL1        0.0814
     15 C           3.4756    0.7398   26.9274 C.3     1  UNL1        0.0217
     16 C           2.6794    0.2847   19.8587 C.ar    1  UNL1        0.1333
     17 C           1.4643   -0.3521   20.4652 C.ar    1  UNL1        0.0208
     18 C           0.5869    0.4371   21.3912 C.ar    1  UNL1        0.0028
     19 C           0.9247    1.8632   21.7106 C.ar    1  UNL1        0.0191
     20 C           2.1398    2.5000   21.1042 C.ar    1  UNL1        0.0700
     21 CL          2.4777    3.9262   21.4236 Cl      1  UNL1       -0.0813
     22 C           3.0171    1.7108   20.1782 C.ar    1  UNL1        0.0867
     23 CL          4.2323    2.3478   19.5717 Cl      1  UNL1       -0.0800
     24 S           3.5567   -0.5045   18.9327 S.O2    1  UNL1        0.0613
     25 O           2.7498   -0.0275   17.7617 O.2     1  UNL1       -0.1530
     26 O           4.3636   -0.9815   20.1038 O.2     1  UNL1       -0.1530
     27 N           4.4340   -1.2937   18.0067 N.3     1  UNL1       -0.1723
     28 H           4.5291   -2.2244   18.4131 H       1  UNL1        0.1491
     29 C           6.0185    0.4068   16.8458 C.3     1  UNL1        0.0278
     30 C           5.8205   -0.8132   17.6959 C.3     1  UNL1        0.1701
     31 C           7.0090   -1.5526   18.2350 C.3     1  UNL1        0.4118
     32 F           8.1976   -2.2919   18.7742 F       1  UNL1       -0.1685
     33 F           7.5008   -0.2912   18.8809 F       1  UNL1       -0.1685
     34 F           6.5173   -2.8140   17.5892 F       1  UNL1       -0.1685
     35 C          -2.9571    4.9333   23.5510 C.2     1  UNL1        0.2699
     36 O          -2.8172    6.4018   23.8231 O.2     1  UNL1       -0.2679
     37 N          -4.3172    4.3345   23.3473 N.am    1  UNL1       -0.2969
     38 H          -4.4090    3.3707   23.1687 H       1  UNL1        0.1499
     39 C          -5.5374    5.2042   23.4157 C.3     1  UNL1        0.1166
     40 C          -6.9028    4.5889   23.3291 C.3     1  UNL1        0.1064
     41 C          -7.2355    5.1363   24.6854 C.3     1  UNL1        0.0311
     42 C          -6.5700    4.0414   21.9727 C.3     1  UNL1        0.0311
     43 O          -8.2680    3.9736   23.2425 O.3     1  UNL1       -0.3851
     44 H          -8.7652    4.1747   24.0508 H       1  UNL1        0.2103
@<TRIPOS>BOND
     1    30    29    1
     2    30    27    1
     3    27    24    1
     4    24    25    2
     5    24    26    2
     6    24    16    1
     7    16    17   ar
     8    17    18   ar
     9    18    19   ar
    10    19     1    1
    11     1     2   ar
    12     2     3   ar
    13     3    35    1
    14    35    36    2
    15    35    37   am
    16    37    39    1
    17    39    40    1
    18    40    41    1
    19    40    42    1
    20    40    43    1
    21     3     4   ar
    22     4     5   ar
    23     5     6    1
    24     6     7    2
    25     6     8   am
    26     8     9    1
    27     9    10    1
    28    10    11    1
    29    10    12    1
    30    10    13    1
    31    13    14    1
    32    14    15    1
    33    19    20   ar
    34    20    21    1
    35    20    22   ar
    36    22    23    1
    37    30    31    1
    38    31    32    1
    39    31    33    1
    40    31    34    1
    41    22    16   ar
    42     5     1   ar
    43    14     8    1
    44    27    28    1
    45    37    38    1
    46    43    44    1
