@<TRIPOS>MOLECULE
*****
 30 34 0 0 0
SMALL
GASTEIGER

@<TRIPOS>ATOM
      1 C           6.7573   -1.3147   33.2250 C.ar    1  UNL1        0.0504
      2 C           8.0762   -2.0089   33.0558 C.ar    1  UNL1        0.0160
      3 C           8.2412   -3.0577   31.9962 C.ar    1  UNL1        0.0212
      4 C           7.0872   -3.4123   31.1059 C.ar    1  UNL1        0.1223
      5 C           5.7684   -2.7182   31.2751 C.ar    1  UNL1        0.0212
      6 C           5.6034   -1.6694   32.3347 C.ar    1  UNL1        0.0160
      7 O           4.3840   -1.3948   35.0583 O.2     1  UNL1       -0.2748
      8 C           5.4057   -0.3059   35.2013 C.2     1  UNL1        0.2260
      9 N           6.5924   -0.2658   34.2847 N.am    1  UNL1       -0.2839
     10 H           7.2629    0.4488   34.3785 H       1  UNL1        0.1549
     11 C           5.2407    0.7429   36.2609 C.3     1  UNL1        0.0812
     12 C           5.8231    1.8309   37.1135 C.3     1  UNL1        0.0143
     13 C           4.3726    1.4714   37.2436 C.3     1  UNL1        0.0330
     14 C           3.0340    1.6845   37.8859 C.ar    1  UNL1       -0.0029
     15 C           2.4936    0.6687   38.8483 C.ar    1  UNL1       -0.0011
     16 C           1.1550    0.8818   39.4906 C.ar    1  UNL1        0.0204
     17 C           0.3567    2.1107   39.1706 C.ar    1  UNL1        0.0989
     18 N           0.8970    3.1266   38.2082 N.ar    1  UNL1       -0.2426
     19 C           2.2356    2.9134   37.5659 C.ar    1  UNL1        0.0946
     20 S           7.2522   -4.4611   30.0463 S.O2    1  UNL1        0.0634
     21 O           6.7510   -5.5042   31.0006 O.2     1  UNL1       -0.1528
     22 O           7.7535   -3.4181   29.0919 O.2     1  UNL1       -0.1528
     23 N           7.4173   -5.5100   28.9866 N.3     1  UNL1       -0.1506
     24 C           8.4284   -6.6035   29.1647 C.3     1  UNL1        0.1253
     25 C           8.5934   -7.6522   28.1050 C.3     1  UNL1        0.1329
     26 C           8.4190   -8.4466   26.8447 C.3     1  UNL1        0.0336
     27 C           7.3466   -7.7894   26.0273 C.3     1  UNL1        0.0336
     28 C           6.8583   -6.5889   26.7825 C.3     1  UNL1        0.1329
     29 C           6.5711   -5.4652   27.7489 C.3     1  UNL1        0.1253
     30 O           7.6289   -6.5041   28.0666 O.3     1  UNL1       -0.3558
@<TRIPOS>BOND
     1     7     8    2
     2     8     9   am
     3     9     1    1
     4     1     2   ar
     5     2     3   ar
     6     3     4   ar
     7     4    20    1
     8    20    21    2
     9    20    22    2
    10    20    23    1
    11    23    24    1
    12    24    25    1
    13    25    26    1
    14    26    27    1
    15    27    28    1
    16    28    29    1
    17    28    30    1
    18     4     5   ar
    19     5     6   ar
    20    11     8    1
    21    11    12    1
    22    12    13    1
    23    13    14    1
    24    14    15   ar
    25    15    16   ar
    26    16    17   ar
    27    17    18   ar
    28    18    19   ar
    29     6     1   ar
    30    13    11    1
    31    19    14   ar
    32    29    23    1
    33    30    25    1
    34     9    10    1
@<TRIPOS>MOLECULE
*****
 30 34 0 0 0
SMALL
GASTEIGER

@<TRIPOS>ATOM
      1 C          -0.9370    2.8495   20.6725 C.ar    1  UNL1        0.0504
      2 C          -0.8360    3.1386   22.1409 C.ar    1  UNL1        0.0160
      3 C          -2.0333    3.6438   22.8900 C.ar    1  UNL1        0.0212
      4 C          -3.3317    3.8599   22.1706 C.ar    1  UNL1        0.1223
      5 C          -3.4328    3.5708   20.7023 C.ar    1  UNL1        0.0212
      6 C          -2.2354    3.0656   19.9532 C.ar    1  UNL1        0.0160
      7 O          -0.2469   -0.0693   20.7404 O.2     1  UNL1       -0.2748
      8 C           0.6054    0.8849   19.9574 C.2     1  UNL1        0.2260
      9 N           0.2604    2.3443   19.9234 N.am    1  UNL1       -0.2839
     10 H           0.8198    2.9705   19.4095 H       1  UNL1        0.1549
     11 C           1.8027    0.3797   19.2083 C.3     1  UNL1        0.0812
     12 C           2.7020    0.4323   18.0089 C.3     1  UNL1        0.0143
     13 C           2.9775   -0.5480   19.1104 C.3     1  UNL1        0.0330
     14 C           3.8147   -1.6493   19.6899 C.ar    1  UNL1       -0.0029
     15 C           3.4595   -3.0819   19.4219 C.ar    1  UNL1       -0.0011
     16 C           4.2968   -4.1833   20.0013 C.ar    1  UNL1        0.0204
     17 C           5.4893   -3.8523   20.8488 C.ar    1  UNL1        0.0989
     18 N           5.8446   -2.4198   21.1169 N.ar    1  UNL1       -0.2426
     19 C           5.0073   -1.3184   20.5374 C.ar    1  UNL1        0.0946
     20 S          -4.5290    4.3651   22.9197 S.O2    1  UNL1        0.0634
     21 O          -4.7705    2.9879   23.4626 O.2     1  UNL1       -0.1528
     22 O          -4.2876    5.7424   22.3767 O.2     1  UNL1       -0.1528
     23 N          -5.7264    4.8704   23.6688 N.3     1  UNL1       -0.1506
     24 C          -5.5500    5.5497   24.9945 C.3     1  UNL1        0.1253
     25 C          -6.7473    6.0549   25.7435 C.3     1  UNL1        0.1329
     26 C          -8.1626    6.3832   26.1165 C.3     1  UNL1        0.0336
     27 C          -9.0576    5.8905   25.0182 C.3     1  UNL1        0.0336
     28 C          -8.1955    5.2577   23.9664 C.3     1  UNL1        0.1329
     29 C          -7.1002    4.6963   23.0922 C.3     1  UNL1        0.1253
     30 O          -6.7676    5.3593   24.4147 O.3     1  UNL1       -0.3558
@<TRIPOS>BOND
     1     7     8    2
     2     8     9   am
     3     9     1    1
     4     1     2   ar
     5     2     3   ar
     6     3     4   ar
     7     4    20    1
     8    20    21    2
     9    20    22    2
    10    20    23    1
    11    23    24    1
    12    24    25    1
    13    25    26    1
    14    26    27    1
    15    27    28    1
    16    28    29    1
    17    28    30    1
    18     4     5   ar
    19     5     6   ar
    20    11     8    1
    21    11    12    1
    22    12    13    1
    23    13    14    1
    24    14    15   ar
    25    15    16   ar
    26    16    17   ar
    27    17    18   ar
    28    18    19   ar
    29     6     1   ar
    30    13    11    1
    31    19    14   ar
    32    29    23    1
    33    30    25    1
    34     9    10    1
@<TRIPOS>MOLECULE
*****
 30 34 0 0 0
SMALL
GASTEIGER

@<TRIPOS>ATOM
      1 C           5.9034   -1.0674   33.8572 C.ar    1  UNL1        0.0504
      2 C           4.8821   -2.0730   33.4149 C.ar    1  UNL1        0.0160
      3 C           5.2145   -3.0510   32.3272 C.ar    1  UNL1        0.0212
      4 C           6.5684   -3.0234   31.6820 C.ar    1  UNL1        0.1223
      5 C           7.5897   -2.0178   32.1242 C.ar    1  UNL1        0.0212
      6 C           7.2572   -1.0398   33.2119 C.ar    1  UNL1        0.0160
      7 O           4.5185    1.5080   33.1867 O.2     1  UNL1       -0.2748
      8 C           4.8784    1.1984   34.6096 C.2     1  UNL1        0.2260
      9 N           5.5709   -0.0893   34.9449 N.am    1  UNL1       -0.2839
     10 H           5.8071   -0.2926   35.8787 H       1  UNL1        0.1549
     11 C           4.5460    2.1763   35.6972 C.3     1  UNL1        0.0812
     12 C           4.7581    3.5062   36.3578 C.3     1  UNL1        0.0143
     13 C           3.7578    2.5403   36.9205 C.3     1  UNL1        0.0330
     14 C           2.7253    2.1928   37.9515 C.ar    1  UNL1       -0.0029
     15 C           1.5186    3.0661   38.1287 C.ar    1  UNL1       -0.0011
     16 C           0.4862    2.7186   39.1598 C.ar    1  UNL1        0.0204
     17 C           0.6603    1.4978   40.0138 C.ar    1  UNL1        0.0989
     18 N           1.8670    0.6244   39.8367 N.ar    1  UNL1       -0.2426
     19 C           2.8995    0.9720   38.8056 C.ar    1  UNL1        0.0946
     20 S           6.9008   -4.0014   30.5943 S.O2    1  UNL1        0.0634
     21 O           6.7060   -5.1364   31.5554 O.2     1  UNL1       -0.1528
     22 O           7.0957   -2.8664   29.6332 O.2     1  UNL1       -0.1528
     23 N           7.2333   -4.9794   29.5066 N.3     1  UNL1       -0.1506
     24 C           6.3445   -5.0942   28.3038 C.3     1  UNL1        0.1253
     25 C           6.6770   -6.0722   27.2162 C.3     1  UNL1        0.1329
     26 C           7.3697   -7.1359   26.4169 C.3     1  UNL1        0.0336
     27 C           8.5879   -7.5679   27.1779 C.3     1  UNL1        0.0336
     28 C           8.6482   -6.7713   28.4475 C.3     1  UNL1        0.1329
     29 C           8.4546   -5.8426   29.6218 C.3     1  UNL1        0.1253
     30 O           7.4672   -5.8469   28.4711 O.3     1  UNL1       -0.3558
@<TRIPOS>BOND
     1     7     8    2
     2     8     9   am
     3     9     1    1
     4     1     2   ar
     5     2     3   ar
     6     3     4   ar
     7     4    20    1
     8    20    21    2
     9    20    22    2
    10    20    23    1
    11    23    24    1
    12    24    25    1
    13    25    26    1
    14    26    27    1
    15    27    28    1
    16    28    29    1
    17    28    30    1
    18     4     5   ar
    19     5     6   ar
    20    11     8    1
    21    11    12    1
    22    12    13    1
    23    13    14    1
    24    14    15   ar
    25    15    16   ar
    26    16    17   ar
    27    17    18   ar
    28    18    19   ar
    29     6     1   ar
    30    13    11    1
    31    19    14   ar
    32    29    23    1
    33    30    25    1
    34     9    10    1
@<TRIPOS>MOLECULE
*****
 30 34 0 0 0
SMALL
GASTEIGER

@<TRIPOS>ATOM
      1 C           1.9282    0.1786   18.8580 C.ar    1  UNL1        0.0504
      2 C           1.6556   -0.4943   20.1707 C.ar    1  UNL1        0.0160
      3 C           2.6931   -1.3857   20.7862 C.ar    1  UNL1        0.0212
      4 C           4.0032   -1.6042   20.0891 C.ar    1  UNL1        0.1223
      5 C           4.2758   -0.9314   18.7766 C.ar    1  UNL1        0.0212
      6 C           3.2383   -0.0400   18.1610 C.ar    1  UNL1        0.0160
      7 O           1.8704    3.1012   19.5326 O.2     1  UNL1       -0.2748
      8 C           0.8618    2.5314   18.5798 C.2     1  UNL1        0.2260
      9 N           0.8906    1.0701   18.2425 N.am    1  UNL1       -0.2839
     10 H           0.2286    0.6961   17.6171 H       1  UNL1        0.1549
     11 C          -0.1757    3.4228   17.9643 C.3     1  UNL1        0.0812
     12 C          -0.5557    4.4805   16.9709 C.3     1  UNL1        0.0143
     13 C          -1.5929    3.9090   17.8916 C.3     1  UNL1        0.0330
     14 C          -3.0099    3.8597   18.3811 C.ar    1  UNL1       -0.0029
     15 C          -4.1435    4.0503   17.4175 C.ar    1  UNL1       -0.0011
     16 C          -5.5604    4.0010   17.9070 C.ar    1  UNL1        0.0204
     17 C          -5.8439    3.7612   19.3603 C.ar    1  UNL1        0.0989
     18 N          -4.7103    3.5706   20.3241 N.ar    1  UNL1       -0.2426
     19 C          -3.2933    3.6198   19.8344 C.ar    1  UNL1        0.0946
     20 S           5.0407   -2.4957   20.7047 S.O2    1  UNL1        0.0634
     21 O           5.8648   -1.2931   21.0576 O.2     1  UNL1       -0.1528
     22 O           4.2167   -3.6983   20.3519 O.2     1  UNL1       -0.1528
     23 N           6.0782   -3.3872   21.3203 N.3     1  UNL1       -0.1506
     24 C           5.9988   -3.7356   22.7771 C.3     1  UNL1        0.1253
     25 C           7.0363   -4.6271   23.3926 C.3     1  UNL1        0.1329
     26 C           8.2364   -5.5097   23.5681 C.3     1  UNL1        0.0336
     27 C           8.9270   -5.6220   22.2413 C.3     1  UNL1        0.0336
     28 C           8.1538   -4.8089   21.2458 C.3     1  UNL1        0.1329
     29 C           7.1951   -3.9303   20.4790 C.3     1  UNL1        0.1253
     30 O           6.9852   -4.1940   21.9574 O.3     1  UNL1       -0.3558
@<TRIPOS>BOND
     1     7     8    2
     2     8     9   am
     3     9     1    1
     4     1     2   ar
     5     2     3   ar
     6     3     4   ar
     7     4    20    1
     8    20    21    2
     9    20    22    2
    10    20    23    1
    11    23    24    1
    12    24    25    1
    13    25    26    1
    14    26    27    1
    15    27    28    1
    16    28    29    1
    17    28    30    1
    18     4     5   ar
    19     5     6   ar
    20    11     8    1
    21    11    12    1
    22    12    13    1
    23    13    14    1
    24    14    15   ar
    25    15    16   ar
    26    16    17   ar
    27    17    18   ar
    28    18    19   ar
    29     6     1   ar
    30    13    11    1
    31    19    14   ar
    32    29    23    1
    33    30    25    1
    34     9    10    1
@<TRIPOS>MOLECULE
*****
 30 34 0 0 0
SMALL
GASTEIGER

@<TRIPOS>ATOM
      1 C           4.3958   -2.8270   21.7172 C.ar    1  UNL1        0.0504
      2 C           3.9230   -2.7720   20.2947 C.ar    1  UNL1        0.0160
      3 C           2.9887   -1.6834   19.8565 C.ar    1  UNL1        0.0212
      4 C           2.5273   -0.6498   20.8408 C.ar    1  UNL1        0.1223
      5 C           3.0001   -0.7048   22.2632 C.ar    1  UNL1        0.0212
      6 C           3.9344   -1.7934   22.7014 C.ar    1  UNL1        0.0160
      7 O           7.3570   -2.3461   21.7331 O.2     1  UNL1       -0.2748
      8 C           6.8108   -3.6752   22.1634 C.2     1  UNL1        0.2260
      9 N           5.3302   -3.9157   22.1554 N.am    1  UNL1       -0.2839
     10 H           4.9716   -4.7880   22.4378 H       1  UNL1        0.1549
     11 C           7.7450   -4.7638   22.6015 C.3     1  UNL1        0.0812
     12 C           8.8552   -5.7246   22.2944 C.3     1  UNL1        0.0143
     13 C           8.2529   -5.6887   23.6678 C.3     1  UNL1        0.0330
     14 C           8.1984   -6.2018   25.0761 C.ar    1  UNL1       -0.0029
     15 C           7.8469   -7.6363   25.3387 C.ar    1  UNL1       -0.0011
     16 C           7.7924   -8.1495   26.7470 C.ar    1  UNL1        0.0204
     17 C           8.0893   -7.2283   27.8930 C.ar    1  UNL1        0.0989
     18 N           8.4408   -5.7938   27.6305 N.ar    1  UNL1       -0.2426
     19 C           8.4953   -5.2806   26.2221 C.ar    1  UNL1        0.0946
     20 S           1.5931    0.4388   20.4025 S.O2    1  UNL1        0.0634
     21 O           0.5225   -0.5812   20.1510 O.2     1  UNL1       -0.1528
     22 O           2.6637    1.4589   20.6541 O.2     1  UNL1       -0.1528
     23 N           0.6588    1.5275   19.9643 N.3     1  UNL1       -0.1506
     24 C           0.7034    2.0307   18.5519 C.3     1  UNL1        0.1253
     25 C          -0.2308    3.1193   18.1137 C.3     1  UNL1        0.1329
     26 C          -1.3019    4.1694   18.1227 C.3     1  UNL1        0.0336
     27 C          -1.8929    4.2168   19.5006 C.3     1  UNL1        0.0336
     28 C          -1.1870    3.1961   20.3432 C.3     1  UNL1        0.1329
     29 C          -0.3201    2.1130   20.9385 C.3     1  UNL1        0.1253
     30 O          -0.1597    2.5178   19.4860 O.3     1  UNL1       -0.3558
@<TRIPOS>BOND
     1     7     8    2
     2     8     9   am
     3     9     1    1
     4     1     2   ar
     5     2     3   ar
     6     3     4   ar
     7     4    20    1
     8    20    21    2
     9    20    22    2
    10    20    23    1
    11    23    24    1
    12    24    25    1
    13    25    26    1
    14    26    27    1
    15    27    28    1
    16    28    29    1
    17    28    30    1
    18     4     5   ar
    19     5     6   ar
    20    11     8    1
    21    11    12    1
    22    12    13    1
    23    13    14    1
    24    14    15   ar
    25    15    16   ar
    26    16    17   ar
    27    17    18   ar
    28    18    19   ar
    29     6     1   ar
    30    13    11    1
    31    19    14   ar
    32    29    23    1
    33    30    25    1
    34     9    10    1
@<TRIPOS>MOLECULE
*****
 30 34 0 0 0
SMALL
GASTEIGER

@<TRIPOS>ATOM
      1 C           2.8472    0.2768   27.3768 C.ar    1  UNL1        0.0504
      2 C           4.0017    1.0975   27.8704 C.ar    1  UNL1        0.0160
      3 C           4.3390    1.1149   29.3319 C.ar    1  UNL1        0.0212
      4 C           3.5216    0.3116   30.2997 C.ar    1  UNL1        0.1223
      5 C           2.3672   -0.5091   29.8062 C.ar    1  UNL1        0.0212
      6 C           2.0300   -0.5265   28.3447 C.ar    1  UNL1        0.0160
      7 O           4.5313   -1.3104   25.4676 O.2     1  UNL1       -0.2748
      8 C           3.3521   -0.5342   24.9607 C.2     1  UNL1        0.2260
      9 N           2.5100    0.2594   25.9152 N.am    1  UNL1       -0.2839
     10 H           1.7360    0.7688   25.5825 H       1  UNL1        0.1549
     11 C           3.0149   -0.5516   23.4992 C.3     1  UNL1        0.0812
     12 C           2.2971    0.0440   22.3245 C.3     1  UNL1        0.0143
     13 C           3.1486   -1.1774   22.1425 C.3     1  UNL1        0.0330
     14 C           3.7174   -2.2439   21.2543 C.ar    1  UNL1       -0.0029
     15 C           3.3051   -2.3192   19.8140 C.ar    1  UNL1       -0.0011
     16 C           3.8739   -3.3857   18.9258 C.ar    1  UNL1        0.0204
     17 C           4.8551   -4.3769   19.4778 C.ar    1  UNL1        0.0989
     18 N           5.2675   -4.3017   20.9181 N.ar    1  UNL1       -0.2426
     19 C           4.6986   -3.2351   21.8062 C.ar    1  UNL1        0.0946
     20 S           3.8589    0.3290   31.7612 S.O2    1  UNL1        0.0634
     21 O           4.8421    1.4360   31.5212 O.2     1  UNL1       -0.1528
     22 O           2.8756   -0.7780   32.0013 O.2     1  UNL1       -0.1528
     23 N           4.1961    0.3464   33.2228 N.3     1  UNL1       -0.1506
     24 C           3.5246    1.3290   34.1358 C.3     1  UNL1        0.1253
     25 C           3.8618    1.3463   35.5973 C.3     1  UNL1        0.1329
     26 C           4.4823    1.0153   36.9222 C.3     1  UNL1        0.0336
     27 C           5.4524   -0.1092   36.7117 C.3     1  UNL1        0.0336
     28 C           5.4315   -0.4732   35.2567 C.3     1  UNL1        0.1329
     29 C           5.2049   -0.6188   33.7713 C.3     1  UNL1        0.1253
     30 O           4.4485    0.4263   34.5679 O.3     1  UNL1       -0.3558
@<TRIPOS>BOND
     1     7     8    2
     2     8     9   am
     3     9     1    1
     4     1     2   ar
     5     2     3   ar
     6     3     4   ar
     7     4    20    1
     8    20    21    2
     9    20    22    2
    10    20    23    1
    11    23    24    1
    12    24    25    1
    13    25    26    1
    14    26    27    1
    15    27    28    1
    16    28    29    1
    17    28    30    1
    18     4     5   ar
    19     5     6   ar
    20    11     8    1
    21    11    12    1
    22    12    13    1
    23    13    14    1
    24    14    15   ar
    25    15    16   ar
    26    16    17   ar
    27    17    18   ar
    28    18    19   ar
    29     6     1   ar
    30    13    11    1
    31    19    14   ar
    32    29    23    1
    33    30    25    1
    34     9    10    1
@<TRIPOS>MOLECULE
*****
 30 34 0 0 0
SMALL
GASTEIGER

@<TRIPOS>ATOM
      1 C           3.9979   -1.5245   27.4406 C.ar    1  UNL1        0.0504
      2 C           2.7886   -0.9189   28.0892 C.ar    1  UNL1        0.0160
      3 C           2.8331   -0.5200   29.5345 C.ar    1  UNL1        0.0212
      4 C           4.0872   -0.7269   30.3312 C.ar    1  UNL1        0.1223
      5 C           5.2965   -1.3325   29.6827 C.ar    1  UNL1        0.0212
      6 C           5.2519   -1.7314   28.2374 C.ar    1  UNL1        0.0160
      7 O           3.7573    0.5756   25.3118 O.2     1  UNL1       -0.2748
      8 C           3.8330   -0.8732   24.9309 C.2     1  UNL1        0.2260
      9 N           3.9533   -1.9233   25.9952 N.am    1  UNL1       -0.2839
     10 H           4.0030   -2.8743   25.7452 H       1  UNL1        0.1549
     11 C           3.7883   -1.2720   23.4856 C.3     1  UNL1        0.0812
     12 C           4.1277   -2.2447   22.3953 C.3     1  UNL1        0.0143
     13 C           3.3715   -0.9901   22.0725 C.3     1  UNL1        0.0330
     14 C           2.6944   -0.1030   21.0703 C.ar    1  UNL1       -0.0029
     15 C           1.2954   -0.4078   20.6231 C.ar    1  UNL1       -0.0011
     16 C           0.6183    0.4793   19.6209 C.ar    1  UNL1        0.0204
     17 C           1.3400    1.6713   19.0659 C.ar    1  UNL1        0.0989
     18 N           2.7390    1.9763   19.5131 N.ar    1  UNL1       -0.2426
     19 C           3.4161    1.0891   20.5153 C.ar    1  UNL1        0.0946
     20 S           4.1318   -0.3281   31.7765 S.O2    1  UNL1        0.0634
     21 O           4.8780    0.9201   31.4092 O.2     1  UNL1       -0.1528
     22 O           3.3855   -1.5763   32.1440 O.2     1  UNL1       -0.1528
     23 N           4.1763    0.0707   33.2219 N.3     1  UNL1       -0.1506
     24 C           4.9520   -0.7557   34.2044 C.3     1  UNL1        0.1253
     25 C           4.9966   -0.3569   35.6497 C.3     1  UNL1        0.1329
     26 C           4.7701    0.3884   36.9316 C.3     1  UNL1        0.0336
     27 C           3.9000    1.5728   36.6316 C.3     1  UNL1        0.0336
     28 C           3.5888    1.5596   35.1643 C.3     1  UNL1        0.1329
     29 C           3.4451    1.2959   33.6848 C.3     1  UNL1        0.1253
     30 O           4.2665    0.3669   34.5575 O.3     1  UNL1       -0.3558
@<TRIPOS>BOND
     1     7     8    2
     2     8     9   am
     3     9     1    1
     4     1     2   ar
     5     2     3   ar
     6     3     4   ar
     7     4    20    1
     8    20    21    2
     9    20    22    2
    10    20    23    1
    11    23    24    1
    12    24    25    1
    13    25    26    1
    14    26    27    1
    15    27    28    1
    16    28    29    1
    17    28    30    1
    18     4     5   ar
    19     5     6   ar
    20    11     8    1
    21    11    12    1
    22    12    13    1
    23    13    14    1
    24    14    15   ar
    25    15    16   ar
    26    16    17   ar
    27    17    18   ar
    28    18    19   ar
    29     6     1   ar
    30    13    11    1
    31    19    14   ar
    32    29    23    1
    33    30    25    1
    34     9    10    1
@<TRIPOS>MOLECULE
*****
 30 34 0 0 0
SMALL
GASTEIGER

@<TRIPOS>ATOM
      1 C           5.6203   -1.2769   32.3355 C.ar    1  UNL1        0.0504
      2 C           5.8888   -0.9298   30.9011 C.ar    1  UNL1        0.0160
      3 C           6.3362   -1.9937   29.9430 C.ar    1  UNL1        0.0212
      4 C           6.5151   -3.4048   30.4194 C.ar    1  UNL1        0.1223
      5 C           6.2467   -3.7519   31.8537 C.ar    1  UNL1        0.0212
      6 C           5.7993   -2.6880   32.8118 C.ar    1  UNL1        0.0160
      7 O           2.7904   -0.2842   32.2599 O.2     1  UNL1       -0.2748
      8 C           3.7579    0.2834   33.2557 C.2     1  UNL1        0.2260
      9 N           5.1729   -0.2129   33.2935 N.am    1  UNL1       -0.2839
     10 H           5.8080    0.1596   33.9471 H       1  UNL1        0.1549
     11 C           3.3105    1.3473   34.2137 C.3     1  UNL1        0.0812
     12 C           2.3924    2.4823   34.5585 C.3     1  UNL1        0.0143
     13 C           3.4539    2.0552   35.5285 C.3     1  UNL1        0.0330
     14 C           4.1495    2.2173   36.8475 C.ar    1  UNL1       -0.0029
     15 C           5.6358    2.4146   36.8924 C.ar    1  UNL1       -0.0011
     16 C           6.3314    2.5767   38.2113 C.ar    1  UNL1        0.0204
     17 C           5.5408    2.5414   39.4856 C.ar    1  UNL1        0.0989
     18 N           4.0544    2.3441   39.4408 N.ar    1  UNL1       -0.2426
     19 C           3.3589    2.1820   38.1217 C.ar    1  UNL1        0.0946
     20 S           6.9625   -4.4687   29.4613 S.O2    1  UNL1        0.0634
     21 O           7.2245   -3.4211   28.4203 O.2     1  UNL1       -0.1528
     22 O           6.7005   -5.5163   30.5024 O.2     1  UNL1       -0.1528
     23 N           7.4100   -5.5327   28.5033 N.3     1  UNL1       -0.1506
     24 C           8.6042   -6.3803   28.8280 C.3     1  UNL1        0.1253
     25 C           9.0515   -7.4442   27.8699 C.3     1  UNL1        0.1329
     26 C           9.1307   -8.3435   26.6720 C.3     1  UNL1        0.0336
     27 C           8.0100   -7.9790   25.7439 C.3     1  UNL1        0.0336
     28 C           7.2382   -6.8545   26.3683 C.3     1  UNL1        0.1329
     29 C           6.6631   -5.7490   27.2205 C.3     1  UNL1        0.1253
     30 O           7.8819   -6.5240   27.6822 O.3     1  UNL1       -0.3558
@<TRIPOS>BOND
     1     7     8    2
     2     8     9   am
     3     9     1    1
     4     1     2   ar
     5     2     3   ar
     6     3     4   ar
     7     4    20    1
     8    20    21    2
     9    20    22    2
    10    20    23    1
    11    23    24    1
    12    24    25    1
    13    25    26    1
    14    26    27    1
    15    27    28    1
    16    28    29    1
    17    28    30    1
    18     4     5   ar
    19     5     6   ar
    20    11     8    1
    21    11    12    1
    22    12    13    1
    23    13    14    1
    24    14    15   ar
    25    15    16   ar
    26    16    17   ar
    27    17    18   ar
    28    18    19   ar
    29     6     1   ar
    30    13    11    1
    31    19    14   ar
    32    29    23    1
    33    30    25    1
    34     9    10    1
@<TRIPOS>MOLECULE
*****
 30 34 0 0 0
SMALL
GASTEIGER

@<TRIPOS>ATOM
      1 C          -0.2922    1.8259   26.9300 C.ar    1  UNL1        0.0504
      2 C           1.0255    2.4991   27.1763 C.ar    1  UNL1        0.0160
      3 C           1.8142    2.1750   28.4103 C.ar    1  UNL1        0.0212
      4 C           1.2852    1.1778   29.3981 C.ar    1  UNL1        0.1223
      5 C          -0.0324    0.5047   29.1519 C.ar    1  UNL1        0.0212
      6 C          -0.8211    0.8287   27.9179 C.ar    1  UNL1        0.0160
      7 O          -2.2399    4.1076   26.9508 O.2     1  UNL1       -0.2748
      8 C          -2.0548    3.2909   25.7063 C.2     1  UNL1        0.2260
      9 N          -1.0810    2.1500   25.6959 N.am    1  UNL1       -0.2839
     10 H          -0.9595    1.6140   24.8792 H       1  UNL1        0.1549
     11 C          -2.8435    3.6150   24.4723 C.3     1  UNL1        0.0812
     12 C          -2.9346    3.7180   22.9786 C.3     1  UNL1        0.0143
     13 C          -4.1185    4.0732   23.8286 C.3     1  UNL1        0.0330
     14 C          -5.5381    4.5429   23.9477 C.ar    1  UNL1       -0.0029
     15 C          -5.9672    5.3379   25.1451 C.ar    1  UNL1       -0.0011
     16 C          -7.3867    5.8075   25.2641 C.ar    1  UNL1        0.0204
     17 C          -8.3773    5.4822   24.1858 C.ar    1  UNL1        0.0989
     18 N          -7.9483    4.6871   22.9882 N.ar    1  UNL1       -0.2426
     19 C          -6.5286    4.2175   22.8693 C.ar    1  UNL1        0.0946
     20 S           2.0740    0.8538   30.6321 S.O2    1  UNL1        0.0634
     21 O           0.8781    1.1713   31.4800 O.2     1  UNL1       -0.1528
     22 O           3.2700    0.5362   29.7843 O.2     1  UNL1       -0.1528
     23 N           2.8628    0.5297   31.8662 N.3     1  UNL1       -0.1506
     24 C           3.5125   -0.8147   32.0095 C.3     1  UNL1        0.1253
     25 C           4.3013   -1.1387   33.2436 C.3     1  UNL1        0.1329
     26 C           4.9604   -1.0250   34.5862 C.3     1  UNL1        0.0336
     27 C           4.6656    0.3403   35.1331 C.3     1  UNL1        0.0336
     28 C           3.8243    1.0704   34.1285 C.3     1  UNL1        0.1329
     29 C           3.0020    1.5501   32.9568 C.3     1  UNL1        0.1253
     30 O           3.5992    0.1563   32.9607 O.3     1  UNL1       -0.3558
@<TRIPOS>BOND
     1     7     8    2
     2     8     9   am
     3     9     1    1
     4     1     2   ar
     5     2     3   ar
     6     3     4   ar
     7     4    20    1
     8    20    21    2
     9    20    22    2
    10    20    23    1
    11    23    24    1
    12    24    25    1
    13    25    26    1
    14    26    27    1
    15    27    28    1
    16    28    29    1
    17    28    30    1
    18     4     5   ar
    19     5     6   ar
    20    11     8    1
    21    11    12    1
    22    12    13    1
    23    13    14    1
    24    14    15   ar
    25    15    16   ar
    26    16    17   ar
    27    17    18   ar
    28    18    19   ar
    29     6     1   ar
    30    13    11    1
    31    19    14   ar
    32    29    23    1
    33    30    25    1
    34     9    10    1
