@<TRIPOS>MOLECULE
*****
 29 32 0 0 0
SMALL
GASTEIGER

@<TRIPOS>ATOM
      1 C         -13.7320   -3.9218   20.8044 C.3     1  UNL1        0.0233
      2 C         -14.3113   -4.5439   19.5685 C.3     1  UNL1        0.0953
      3 C         -14.8398   -5.9470   19.6122 C.3     1  UNL1        0.1106
      4 N         -15.4191   -6.5692   18.3763 N.pl3   1  UNL1       -0.3036
      5 C         -15.4698   -5.7882   17.0967 C.3     1  UNL1        0.1123
      6 C         -14.9413   -4.3851   17.0530 C.3     1  UNL1        0.1149
      7 N         -14.3620   -3.7630   18.2888 N.pl3   1  UNL1       -0.2777
      8 C         -13.8335   -2.3598   18.2451 C.ar    1  UNL1        0.2035
      9 N         -14.7132   -1.2141   18.6493 N.ar    1  UNL1       -0.2133
     10 C         -14.1847    0.1890   18.6055 C.ar    1  UNL1        0.1065
     11 C         -12.7765    0.4465   18.1575 C.ar    1  UNL1        0.0815
     12 C         -11.8968   -0.6993   17.7533 C.ar    1  UNL1        0.2646
     13 O         -10.4886   -0.4419   17.3053 O.2     1  UNL1       -0.2668
     14 N         -12.4253   -2.1025   17.7971 N.ar    1  UNL1       -0.2667
     15 C         -11.5456   -3.2482   17.3928 C.3     1  UNL1        0.1363
     16 C         -15.0644    1.3348   19.0097 C.ar    1  UNL1        0.1024
     17 C         -16.3336    1.0754   19.7659 C.ar    1  UNL1        0.0414
     18 C         -17.2133    2.2211   20.1701 C.ar    1  UNL1        0.1023
     19 N         -16.8238    3.6262   19.8182 N.ar    1  UNL1       -0.2224
     20 C         -15.5546    3.8857   19.0620 C.ar    1  UNL1        0.1989
     21 N         -14.6749    2.7399   18.6578 N.ar    1  UNL1       -0.2224
     22 C         -15.9476   -7.9723   18.4201 C.ar    1  UNL1        0.0576
     23 C         -15.0625   -9.1196   18.0324 C.ar    1  UNL1        0.0152
     24 C         -15.5910  -10.5227   18.0762 C.ar    1  UNL1        0.0013
     25 C         -17.0046  -10.7786   18.5077 C.ar    1  UNL1        0.0008
     26 C         -17.8898   -9.6313   18.8954 C.ar    1  UNL1        0.0115
     27 C         -17.3612   -8.2282   18.8516 C.ar    1  UNL1        0.0817
     28 C         -18.2464   -7.0809   19.2393 C.1     1  UNL1        0.1017
     29 N         -19.1315   -5.9336   19.6270 N.1     1  UNL1       -0.1908
@<TRIPOS>BOND
     1     2     1    1
     2     2     3    1
     3     3     4    1
     4     4    22    1
     5    22    23   ar
     6    23    24   ar
     7    24    25   ar
     8    25    26   ar
     9    26    27   ar
    10    27    28    1
    11    28    29    3
    12     4     5    1
    13     5     6    1
    14     6     7    1
    15     7     8    1
    16     8     9   ar
    17     9    10   ar
    18    10    16    1
    19    16    17   ar
    20    17    18   ar
    21    18    19   ar
    22    19    20   ar
    23    20    21   ar
    24    10    11   ar
    25    11    12   ar
    26    12    13    2
    27    12    14   ar
    28    14    15    1
    29     7     2    1
    30    14     8   ar
    31    27    22   ar
    32    21    16   ar
@<TRIPOS>MOLECULE
*****
 29 32 0 0 0
SMALL
GASTEIGER

@<TRIPOS>ATOM
      1 C         -14.4453   -1.4647   17.1990 C.3     1  UNL1        0.0233
      2 C         -14.2411   -2.6005   18.1572 C.3     1  UNL1        0.0953
      3 C         -13.1038   -3.5573   17.9549 C.3     1  UNL1        0.1106
      4 N         -12.8997   -4.6931   18.9131 N.pl3   1  UNL1       -0.3036
      5 C         -13.8328   -4.8721   20.0738 C.3     1  UNL1        0.1123
      6 C         -14.9701   -3.9153   20.2761 C.3     1  UNL1        0.1149
      7 N         -15.1743   -2.7795   19.3179 N.pl3   1  UNL1       -0.2777
      8 C         -16.3116   -1.8226   19.5203 C.ar    1  UNL1        0.2035
      9 N         -16.0987   -0.5586   20.2994 N.ar    1  UNL1       -0.2133
     10 C         -17.2360    0.3982   20.5018 C.ar    1  UNL1        0.1065
     11 C         -18.5863    0.0911   19.9252 C.ar    1  UNL1        0.0815
     12 C         -18.7992   -1.1729   19.1461 C.ar    1  UNL1        0.2646
     13 O         -20.1494   -1.4801   18.5694 O.2     1  UNL1       -0.2668
     14 N         -17.6618   -2.1298   18.9436 N.ar    1  UNL1       -0.2667
     15 C         -17.8748   -3.3938   18.1646 C.3     1  UNL1        0.1363
     16 C         -17.0231    1.6622   21.2809 C.ar    1  UNL1        0.1024
     17 C         -16.4131    2.8599   20.6151 C.ar    1  UNL1        0.0414
     18 C         -16.2002    4.1239   21.3941 C.ar    1  UNL1        0.1023
     19 N         -16.5972    4.1902   22.8391 N.ar    1  UNL1       -0.2224
     20 C         -17.2073    2.9925   23.5050 C.ar    1  UNL1        0.1989
     21 N         -17.4202    1.7285   22.7259 N.ar    1  UNL1       -0.2224
     22 C         -11.7623   -5.6500   18.7107 C.ar    1  UNL1        0.0576
     23 C         -10.4047   -5.3286   19.2618 C.ar    1  UNL1        0.0152
     24 C          -9.2674   -6.2854   19.0594 C.ar    1  UNL1        0.0013
     25 C          -9.4876   -7.5636   18.3059 C.ar    1  UNL1        0.0008
     26 C         -10.8452   -7.8850   17.7548 C.ar    1  UNL1        0.0115
     27 C         -11.9826   -6.9281   17.9572 C.ar    1  UNL1        0.0817
     28 C         -13.3401   -7.2495   17.4061 C.1     1  UNL1        0.1017
     29 N         -14.6977   -7.5709   16.8550 N.1     1  UNL1       -0.1908
@<TRIPOS>BOND
     1     2     1    1
     2     2     3    1
     3     3     4    1
     4     4    22    1
     5    22    23   ar
     6    23    24   ar
     7    24    25   ar
     8    25    26   ar
     9    26    27   ar
    10    27    28    1
    11    28    29    3
    12     4     5    1
    13     5     6    1
    14     6     7    1
    15     7     8    1
    16     8     9   ar
    17     9    10   ar
    18    10    16    1
    19    16    17   ar
    20    17    18   ar
    21    18    19   ar
    22    19    20   ar
    23    20    21   ar
    24    10    11   ar
    25    11    12   ar
    26    12    13    2
    27    12    14   ar
    28    14    15    1
    29     7     2    1
    30    14     8   ar
    31    27    22   ar
    32    21    16   ar
@<TRIPOS>MOLECULE
*****
 29 32 0 0 0
SMALL
GASTEIGER

@<TRIPOS>ATOM
      1 C           2.5281    3.1614   21.1013 C.3     1  UNL1        0.0233
      2 C           2.2275    1.7315   20.7621 C.3     1  UNL1        0.0953
      3 C           3.3320    0.7167   20.7441 C.3     1  UNL1        0.1106
      4 N           3.0313   -0.7131   20.4049 N.pl3   1  UNL1       -0.3036
      5 C           1.6262   -1.1283   20.0838 C.3     1  UNL1        0.1123
      6 C           0.5217   -0.1136   20.1018 C.3     1  UNL1        0.1149
      7 N           0.8223    1.3163   20.4409 N.pl3   1  UNL1       -0.2777
      8 C          -0.2823    2.3310   20.4589 C.ar    1  UNL1        0.2035
      9 N          -1.1229    2.5028   21.6893 N.ar    1  UNL1       -0.2133
     10 C          -2.2274    3.5175   21.7073 C.ar    1  UNL1        0.1065
     11 C          -2.4914    4.3605   20.4949 C.ar    1  UNL1        0.0815
     12 C          -1.6508    4.1887   19.2646 C.ar    1  UNL1        0.2646
     13 O          -1.9147    5.0316   18.0522 O.2     1  UNL1       -0.2668
     14 N          -0.5462    3.1739   19.2466 N.ar    1  UNL1       -0.2667
     15 C           0.2945    3.0022   18.0162 C.3     1  UNL1        0.1363
     16 C          -3.0681    3.6893   22.9377 C.ar    1  UNL1        0.1024
     17 C          -2.4279    3.6580   24.2938 C.ar    1  UNL1        0.0414
     18 C          -3.2685    3.8298   25.5242 C.ar    1  UNL1        0.1023
     19 N          -4.7493    4.0328   25.3985 N.ar    1  UNL1       -0.2224
     20 C          -5.3896    4.0641   24.0423 C.ar    1  UNL1        0.1989
     21 N          -4.5490    3.8923   22.8119 N.ar    1  UNL1       -0.2224
     22 C           4.1359   -1.7279   20.3869 C.ar    1  UNL1        0.0576
     23 C           4.6077   -2.3457   21.6698 C.ar    1  UNL1        0.0152
     24 C           5.7122   -3.3604   21.6519 C.ar    1  UNL1        0.0013
     25 C           6.3451   -3.7573   20.3510 C.ar    1  UNL1        0.0008
     26 C           5.8733   -3.1395   19.0682 C.ar    1  UNL1        0.0115
     27 C           4.7687   -2.1247   19.0862 C.ar    1  UNL1        0.0817
     28 C           4.2969   -1.5069   17.8033 C.1     1  UNL1        0.1017
     29 N           3.8251   -0.8891   16.5205 N.1     1  UNL1       -0.1908
@<TRIPOS>BOND
     1     2     1    1
     2     2     3    1
     3     3     4    1
     4     4    22    1
     5    22    23   ar
     6    23    24   ar
     7    24    25   ar
     8    25    26   ar
     9    26    27   ar
    10    27    28    1
    11    28    29    3
    12     4     5    1
    13     5     6    1
    14     6     7    1
    15     7     8    1
    16     8     9   ar
    17     9    10   ar
    18    10    16    1
    19    16    17   ar
    20    17    18   ar
    21    18    19   ar
    22    19    20   ar
    23    20    21   ar
    24    10    11   ar
    25    11    12   ar
    26    12    13    2
    27    12    14   ar
    28    14    15    1
    29     7     2    1
    30    14     8   ar
    31    27    22   ar
    32    21    16   ar
@<TRIPOS>MOLECULE
*****
 29 32 0 0 0
SMALL
GASTEIGER

@<TRIPOS>ATOM
      1 C           2.2753    3.4550   21.0518 C.3     1  UNL1        0.0233
      2 C           1.9638    2.0236   20.7291 C.3     1  UNL1        0.0953
      3 C           3.0787    1.0427   20.5178 C.3     1  UNL1        0.1106
      4 N           2.7672   -0.3887   20.1951 N.pl3   1  UNL1       -0.3036
      5 C           1.3408   -0.8391   20.0837 C.3     1  UNL1        0.1123
      6 C           0.2259    0.1418   20.2950 C.3     1  UNL1        0.1149
      7 N           0.5374    1.5732   20.6177 N.pl3   1  UNL1       -0.2777
      8 C          -0.5776    2.5542   20.8290 C.ar    1  UNL1        0.2035
      9 N          -1.2619    2.6362   22.1612 N.ar    1  UNL1       -0.2133
     10 C          -2.3768    3.6171   22.3726 C.ar    1  UNL1        0.1065
     11 C          -2.8075    4.5160   21.2516 C.ar    1  UNL1        0.0815
     12 C          -2.1231    4.4340   19.9193 C.ar    1  UNL1        0.2646
     13 O          -2.5537    5.3329   18.7984 O.2     1  UNL1       -0.2668
     14 N          -1.0082    3.4530   19.7080 N.ar    1  UNL1       -0.2667
     15 C          -0.3238    3.3710   18.3758 C.3     1  UNL1        0.1363
     16 C          -3.0612    3.6991   23.7048 C.ar    1  UNL1        0.1024
     17 C          -4.5581    3.7630   23.7764 C.ar    1  UNL1        0.0414
     18 C          -5.2424    3.8450   25.1087 C.ar    1  UNL1        0.1023
     19 N          -4.4298    3.8632   26.3694 N.ar    1  UNL1       -0.2224
     20 C          -2.9329    3.7993   26.2978 C.ar    1  UNL1        0.1989
     21 N          -2.2485    3.7173   24.9656 N.ar    1  UNL1       -0.2224
     22 C           3.8822   -1.3697   19.9838 C.ar    1  UNL1        0.0576
     23 C           4.3265   -1.7119   18.5926 C.ar    1  UNL1        0.0152
     24 C           5.4414   -2.6928   18.3812 C.ar    1  UNL1        0.0013
     25 C           6.1121   -3.3316   19.5612 C.ar    1  UNL1        0.0008
     26 C           5.6679   -2.9894   20.9524 C.ar    1  UNL1        0.0115
     27 C           4.5529   -2.0084   21.1637 C.ar    1  UNL1        0.0817
     28 C           4.1086   -1.6662   22.5549 C.1     1  UNL1        0.1017
     29 N           3.6643   -1.3240   23.9462 N.1     1  UNL1       -0.1908
@<TRIPOS>BOND
     1     2     1    1
     2     2     3    1
     3     3     4    1
     4     4    22    1
     5    22    23   ar
     6    23    24   ar
     7    24    25   ar
     8    25    26   ar
     9    26    27   ar
    10    27    28    1
    11    28    29    3
    12     4     5    1
    13     5     6    1
    14     6     7    1
    15     7     8    1
    16     8     9   ar
    17     9    10   ar
    18    10    16    1
    19    16    17   ar
    20    17    18   ar
    21    18    19   ar
    22    19    20   ar
    23    20    21   ar
    24    10    11   ar
    25    11    12   ar
    26    12    13    2
    27    12    14   ar
    28    14    15    1
    29     7     2    1
    30    14     8   ar
    31    27    22   ar
    32    21    16   ar
@<TRIPOS>MOLECULE
*****
 29 32 0 0 0
SMALL
GASTEIGER

@<TRIPOS>ATOM
      1 C         -14.4663   -3.0768   16.0314 C.3     1  UNL1        0.0233
      2 C         -14.8853   -2.3275   17.2614 C.3     1  UNL1        0.0953
      3 C         -15.5222   -0.9753   17.1353 C.3     1  UNL1        0.1106
      4 N         -15.9412   -0.2260   18.3653 N.pl3   1  UNL1       -0.3036
      5 C         -15.7232   -0.8288   19.7214 C.3     1  UNL1        0.1123
      6 C         -15.0862   -2.1809   19.8475 C.3     1  UNL1        0.1149
      7 N         -14.6673   -2.9303   18.6175 N.pl3   1  UNL1       -0.2777
      8 C         -14.0303   -4.2825   18.7437 C.ar    1  UNL1        0.2035
      9 N         -14.8841   -5.5157   18.7534 N.ar    1  UNL1       -0.2133
     10 C         -14.2472   -6.8679   18.8795 C.ar    1  UNL1        0.1065
     11 C         -12.7564   -6.9868   18.9959 C.ar    1  UNL1        0.0815
     12 C         -11.9026   -5.7536   18.9862 C.ar    1  UNL1        0.2646
     13 O         -10.4119   -5.8725   19.1026 O.2     1  UNL1       -0.2668
     14 N         -12.5396   -4.4014   18.8601 N.ar    1  UNL1       -0.2667
     15 C         -11.6858   -3.1681   18.8503 C.3     1  UNL1        0.1363
     16 C         -15.1010   -8.1012   18.8893 C.ar    1  UNL1        0.1024
     17 C         -16.3498   -8.1422   19.7190 C.ar    1  UNL1        0.0414
     18 C         -17.2036   -9.3755   19.7288 C.ar    1  UNL1        0.1023
     19 N         -16.8086  -10.5677   18.9087 N.ar    1  UNL1       -0.2224
     20 C         -15.5596  -10.5267   18.0789 C.ar    1  UNL1        0.1989
     21 N         -14.7058   -9.2934   18.0691 N.ar    1  UNL1       -0.2224
     22 C         -16.5782    1.1262   18.2392 C.ar    1  UNL1        0.0576
     23 C         -18.0579    1.2791   18.4314 C.ar    1  UNL1        0.0152
     24 C         -18.6949    2.6312   18.3053 C.ar    1  UNL1        0.0013
     25 C         -17.8522    3.8306   17.9869 C.ar    1  UNL1        0.0008
     26 C         -16.3724    3.6778   17.7947 C.ar    1  UNL1        0.0115
     27 C         -15.7354    2.3255   17.9208 C.ar    1  UNL1        0.0817
     28 C         -14.2557    2.1727   17.7286 C.1     1  UNL1        0.1017
     29 N         -12.7759    2.0199   17.5363 N.1     1  UNL1       -0.1908
@<TRIPOS>BOND
     1     2     1    1
     2     2     3    1
     3     3     4    1
     4     4    22    1
     5    22    23   ar
     6    23    24   ar
     7    24    25   ar
     8    25    26   ar
     9    26    27   ar
    10    27    28    1
    11    28    29    3
    12     4     5    1
    13     5     6    1
    14     6     7    1
    15     7     8    1
    16     8     9   ar
    17     9    10   ar
    18    10    16    1
    19    16    17   ar
    20    17    18   ar
    21    18    19   ar
    22    19    20   ar
    23    20    21   ar
    24    10    11   ar
    25    11    12   ar
    26    12    13    2
    27    12    14   ar
    28    14    15    1
    29     7     2    1
    30    14     8   ar
    31    27    22   ar
    32    21    16   ar
@<TRIPOS>MOLECULE
*****
 29 32 0 0 0
SMALL
GASTEIGER

@<TRIPOS>ATOM
      1 C           3.7296   -3.1581   19.3235 C.3     1  UNL1        0.0233
      2 C           3.7523   -1.7590   19.8637 C.3     1  UNL1        0.0953
      3 C           2.5848   -0.8463   19.6316 C.3     1  UNL1        0.1106
      4 N           2.6076    0.5528   20.1719 N.pl3   1  UNL1       -0.3036
      5 C           3.7978    1.0393   20.9443 C.3     1  UNL1        0.1123
      6 C           4.9653    0.1266   21.1764 C.3     1  UNL1        0.1149
      7 N           4.9426   -1.2725   20.6361 N.pl3   1  UNL1       -0.2777
      8 C           6.1102   -2.1852   20.8682 C.ar    1  UNL1        0.2035
      9 N           6.1487   -3.0585   22.0871 N.ar    1  UNL1       -0.2133
     10 C           7.3162   -3.9712   22.3193 C.ar    1  UNL1        0.1065
     11 C           8.4453   -4.0105   21.3325 C.ar    1  UNL1        0.0815
     12 C           8.4068   -3.1371   20.1136 C.ar    1  UNL1        0.2646
     13 O           9.5358   -3.1764   19.1269 O.2     1  UNL1       -0.2668
     14 N           7.2392   -2.2244   19.8815 N.ar    1  UNL1       -0.2667
     15 C           7.2007   -1.3511   18.6626 C.3     1  UNL1        0.1363
     16 C           7.3547   -4.8445   23.5382 C.ar    1  UNL1        0.1024
     17 C           6.8059   -4.3402   24.8399 C.ar    1  UNL1        0.0414
     18 C           6.8444   -5.2135   26.0588 C.ar    1  UNL1        0.1023
     19 N           7.4317   -6.5913   25.9761 N.ar    1  UNL1       -0.2224
     20 C           7.9806   -7.0957   24.6743 C.ar    1  UNL1        0.1989
     21 N           7.9421   -6.2223   23.4554 N.ar    1  UNL1       -0.2224
     22 C           1.4400    1.4655   19.9398 C.ar    1  UNL1        0.0576
     23 C           1.1550    1.9829   18.5610 C.ar    1  UNL1        0.0152
     24 C          -0.0125    2.8956   18.3288 C.ar    1  UNL1        0.0013
     25 C          -0.8952    3.2908   19.4755 C.ar    1  UNL1        0.0008
     26 C          -0.6103    2.7733   20.8542 C.ar    1  UNL1        0.0115
     27 C           0.5573    1.8606   21.0864 C.ar    1  UNL1        0.0817
     28 C           0.8422    1.3432   22.4652 C.1     1  UNL1        0.1017
     29 N           1.1271    0.8257   23.8440 N.1     1  UNL1       -0.1908
@<TRIPOS>BOND
     1     2     1    1
     2     2     3    1
     3     3     4    1
     4     4    22    1
     5    22    23   ar
     6    23    24   ar
     7    24    25   ar
     8    25    26   ar
     9    26    27   ar
    10    27    28    1
    11    28    29    3
    12     4     5    1
    13     5     6    1
    14     6     7    1
    15     7     8    1
    16     8     9   ar
    17     9    10   ar
    18    10    16    1
    19    16    17   ar
    20    17    18   ar
    21    18    19   ar
    22    19    20   ar
    23    20    21   ar
    24    10    11   ar
    25    11    12   ar
    26    12    13    2
    27    12    14   ar
    28    14    15    1
    29     7     2    1
    30    14     8   ar
    31    27    22   ar
    32    21    16   ar
@<TRIPOS>MOLECULE
*****
 29 32 0 0 0
SMALL
GASTEIGER

@<TRIPOS>ATOM
      1 C           4.8284    1.7099   20.8883 C.3     1  UNL1        0.0233
      2 C           3.4250    1.1908   20.7832 C.3     1  UNL1        0.0953
      3 C           2.2647    2.1179   20.9932 C.3     1  UNL1        0.1106
      4 N           0.8613    1.5988   20.8881 N.pl3   1  UNL1       -0.3036
      5 C           0.6183    0.1526   20.5730 C.3     1  UNL1        0.1123
      6 C           1.7786   -0.7745   20.3630 C.3     1  UNL1        0.1149
      7 N           3.1819   -0.2554   20.4682 N.pl3   1  UNL1       -0.2777
      8 C           4.3423   -1.1826   20.2582 C.ar    1  UNL1        0.2035
      9 N           4.8780   -1.9856   21.4063 N.ar    1  UNL1       -0.2133
     10 C           6.0382   -2.9127   21.1964 C.ar    1  UNL1        0.1065
     11 C           6.6629   -3.0370   19.8383 C.ar    1  UNL1        0.0815
     12 C           6.1272   -2.2340   18.6901 C.ar    1  UNL1        0.2646
     13 O           6.7518   -2.3582   17.3320 O.2     1  UNL1       -0.2668
     14 N           4.9669   -1.3068   18.9001 N.ar    1  UNL1       -0.2667
     15 C           4.4312   -0.5038   17.7519 C.3     1  UNL1        0.1363
     16 C           6.5739   -3.7157   22.3446 C.ar    1  UNL1        0.1024
     17 C           6.0732   -3.4619   23.7355 C.ar    1  UNL1        0.0414
     18 C           6.6089   -4.2649   24.8837 C.ar    1  UNL1        0.1023
     19 N           7.6453   -5.3216   24.6409 N.ar    1  UNL1       -0.2224
     20 C           8.1461   -5.5755   23.2499 C.ar    1  UNL1        0.1989
     21 N           7.6104   -4.7725   22.1017 N.ar    1  UNL1       -0.2224
     22 C          -0.2990    2.5260   21.0981 C.ar    1  UNL1        0.0576
     23 C          -1.0442    3.0742   19.9173 C.ar    1  UNL1        0.0152
     24 C          -2.2044    4.0013   20.1272 C.ar    1  UNL1        0.0013
     25 C          -2.6196    4.3803   21.5180 C.ar    1  UNL1        0.0008
     26 C          -1.8744    3.8321   22.6987 C.ar    1  UNL1        0.0115
     27 C          -0.7141    2.9049   22.4887 C.ar    1  UNL1        0.0817
     28 C           0.0311    2.3567   23.6695 C.1     1  UNL1        0.1017
     29 N           0.7762    1.8085   24.8503 N.1     1  UNL1       -0.1908
@<TRIPOS>BOND
     1     2     1    1
     2     2     3    1
     3     3     4    1
     4     4    22    1
     5    22    23   ar
     6    23    24   ar
     7    24    25   ar
     8    25    26   ar
     9    26    27   ar
    10    27    28    1
    11    28    29    3
    12     4     5    1
    13     5     6    1
    14     6     7    1
    15     7     8    1
    16     8     9   ar
    17     9    10   ar
    18    10    16    1
    19    16    17   ar
    20    17    18   ar
    21    18    19   ar
    22    19    20   ar
    23    20    21   ar
    24    10    11   ar
    25    11    12   ar
    26    12    13    2
    27    12    14   ar
    28    14    15    1
    29     7     2    1
    30    14     8   ar
    31    27    22   ar
    32    21    16   ar
@<TRIPOS>MOLECULE
*****
 29 32 0 0 0
SMALL
GASTEIGER

@<TRIPOS>ATOM
      1 C           5.6763    1.2872   28.0182 C.3     1  UNL1        0.0233
      2 C           4.6804    0.6559   28.9454 C.3     1  UNL1        0.0953
      3 C           4.8676    0.7592   30.4300 C.3     1  UNL1        0.1106
      4 N           3.8717    0.1278   31.3572 N.pl3   1  UNL1       -0.3036
      5 C           2.6887   -0.6068   30.7998 C.3     1  UNL1        0.1123
      6 C           2.5016   -0.7101   29.3151 C.3     1  UNL1        0.1149
      7 N           3.4974   -0.0788   28.3879 N.pl3   1  UNL1       -0.2777
      8 C           3.3102   -0.1821   26.9032 C.ar    1  UNL1        0.2035
      9 N           4.0779   -1.2053   26.1199 N.ar    1  UNL1       -0.2133
     10 C           3.8908   -1.3087   24.6352 C.ar    1  UNL1        0.1065
     11 C           2.9358   -0.3888   23.9338 C.ar    1  UNL1        0.0815
     12 C           2.1681    0.6345   24.7171 C.ar    1  UNL1        0.2646
     13 O           1.2132    1.5543   24.0158 O.2     1  UNL1       -0.2668
     14 N           2.3553    0.7378   26.2018 N.ar    1  UNL1       -0.2667
     15 C           1.5875    1.7610   26.9852 C.3     1  UNL1        0.1363
     16 C           4.6585   -2.3319   23.8519 C.ar    1  UNL1        0.1024
     17 C           4.2597   -2.6510   22.4416 C.ar    1  UNL1        0.0414
     18 C           5.0274   -3.6742   21.6583 C.ar    1  UNL1        0.1023
     19 N           6.1940   -4.3783   22.2853 N.ar    1  UNL1       -0.2224
     20 C           6.5930   -4.0592   23.6957 C.ar    1  UNL1        0.1989
     21 N           5.8252   -3.0360   24.4790 N.ar    1  UNL1       -0.2224
     22 C           4.0589    0.2312   32.8420 C.ar    1  UNL1        0.0576
     23 C           3.4931    1.4021   33.5895 C.ar    1  UNL1        0.0152
     24 C           3.6803    1.5054   35.0742 C.ar    1  UNL1        0.0013
     25 C           4.4333    0.4378   35.8114 C.ar    1  UNL1        0.0008
     26 C           4.9991   -0.7331   35.0638 C.ar    1  UNL1        0.0115
     27 C           4.8119   -0.8364   33.5791 C.ar    1  UNL1        0.0817
     28 C           5.3777   -2.0073   32.8315 C.1     1  UNL1        0.1017
     29 N           5.9435   -3.1782   32.0839 N.1     1  UNL1       -0.1908
@<TRIPOS>BOND
     1     2     1    1
     2     2     3    1
     3     3     4    1
     4     4    22    1
     5    22    23   ar
     6    23    24   ar
     7    24    25   ar
     8    25    26   ar
     9    26    27   ar
    10    27    28    1
    11    28    29    3
    12     4     5    1
    13     5     6    1
    14     6     7    1
    15     7     8    1
    16     8     9   ar
    17     9    10   ar
    18    10    16    1
    19    16    17   ar
    20    17    18   ar
    21    18    19   ar
    22    19    20   ar
    23    20    21   ar
    24    10    11   ar
    25    11    12   ar
    26    12    13    2
    27    12    14   ar
    28    14    15    1
    29     7     2    1
    30    14     8   ar
    31    27    22   ar
    32    21    16   ar
@<TRIPOS>MOLECULE
*****
 29 32 0 0 0
SMALL
GASTEIGER

@<TRIPOS>ATOM
      1 C         -14.1925   -2.8474   16.2457 C.3     1  UNL1        0.0233
      2 C         -14.6662   -2.1965   17.5114 C.3     1  UNL1        0.0953
      3 C         -15.2911   -0.8337   17.4655 C.3     1  UNL1        0.1106
      4 N         -15.7649   -0.1828   18.7312 N.pl3   1  UNL1       -0.3036
      5 C         -15.6137   -0.8947   20.0427 C.3     1  UNL1        0.1123
      6 C         -14.9887   -2.2575   20.0886 C.3     1  UNL1        0.1149
      7 N         -14.5150   -2.9084   18.8230 N.pl3   1  UNL1       -0.2777
      8 C         -13.8900   -4.2713   18.8690 C.ar    1  UNL1        0.2035
      9 N         -14.7577   -5.4949   18.8622 N.ar    1  UNL1       -0.2133
     10 C         -14.1327   -6.8577   18.9082 C.ar    1  UNL1        0.1065
     11 C         -12.6401   -6.9970   18.9609 C.ar    1  UNL1        0.0815
     12 C         -11.7725   -5.7734   18.9676 C.ar    1  UNL1        0.2646
     13 O         -10.2799   -5.9127   19.0204 O.2     1  UNL1       -0.2668
     14 N         -12.3974   -4.4106   18.9217 N.ar    1  UNL1       -0.2667
     15 C         -11.5298   -3.1870   18.9284 C.3     1  UNL1        0.1363
     16 C         -15.0004   -8.0813   18.9014 C.ar    1  UNL1        0.1024
     17 C         -14.6805   -9.2225   17.9821 C.ar    1  UNL1        0.0414
     18 C         -15.5481  -10.4461   17.9754 C.ar    1  UNL1        0.1023
     19 N         -16.7357  -10.5284   18.8879 N.ar    1  UNL1       -0.2224
     20 C         -17.0557   -9.3871   19.8073 C.ar    1  UNL1        0.1989
     21 N         -16.1880   -8.1636   19.8141 N.ar    1  UNL1       -0.2224
     22 C         -16.3899    1.1801   18.6852 C.ar    1  UNL1        0.0576
     23 C         -15.5334    2.4031   18.8288 C.ar    1  UNL1        0.0152
     24 C         -16.1583    3.7659   18.7829 C.ar    1  UNL1        0.0013
     25 C         -17.6398    3.9058   18.5933 C.ar    1  UNL1        0.0008
     26 C         -18.4962    2.6827   18.4496 C.ar    1  UNL1        0.0115
     27 C         -17.8712    1.3198   18.4956 C.ar    1  UNL1        0.0817
     28 C         -18.7277    0.0968   18.3519 C.1     1  UNL1        0.1017
     29 N         -19.5841   -1.1263   18.2083 N.1     1  UNL1       -0.1908
@<TRIPOS>BOND
     1     2     1    1
     2     2     3    1
     3     3     4    1
     4     4    22    1
     5    22    23   ar
     6    23    24   ar
     7    24    25   ar
     8    25    26   ar
     9    26    27   ar
    10    27    28    1
    11    28    29    3
    12     4     5    1
    13     5     6    1
    14     6     7    1
    15     7     8    1
    16     8     9   ar
    17     9    10   ar
    18    10    16    1
    19    16    17   ar
    20    17    18   ar
    21    18    19   ar
    22    19    20   ar
    23    20    21   ar
    24    10    11   ar
    25    11    12   ar
    26    12    13    2
    27    12    14   ar
    28    14    15    1
    29     7     2    1
    30    14     8   ar
    31    27    22   ar
    32    21    16   ar
