@<TRIPOS>MOLECULE
*****
 30 33 0 0 0
SMALL
GASTEIGER

@<TRIPOS>ATOM
      1 C         -10.1782  -19.5015   20.5205 C.3     1  UNL1        0.0545
      2 C          -9.8747  -19.7583   19.0741 C.3     1  UNL1        0.0161
      3 C          -8.3870  -19.8814   18.9274 C.3     1  UNL1        0.0058
      4 C          -7.7709  -19.7008   20.2831 C.3     1  UNL1        0.0237
      5 C          -8.8780  -19.4660   21.2677 C.3     1  UNL1        0.0201
      6 C          -6.3053  -19.7468   20.5987 C.ar    1  UNL1       -0.0223
      7 C          -5.3788  -20.5578   19.7420 C.ar    1  UNL1       -0.0012
      8 C          -3.9131  -20.6039   20.0576 C.ar    1  UNL1        0.0366
      9 C          -3.3739  -19.8391   21.2298 C.ar    1  UNL1        0.1391
     10 C          -4.3004  -19.0281   22.0865 C.ar    1  UNL1        0.0366
     11 C          -5.7661  -18.9819   21.7710 C.ar    1  UNL1       -0.0012
     12 O          -1.9082  -19.8851   21.5455 O.3     1  UNL1       -0.4694
     13 C          -0.9833  -18.8567   20.9650 C.3     1  UNL1        0.2469
     14 C          -1.4987  -17.8629   19.9666 C.2     1  UNL1        0.0940
     15 O          -2.2679  -16.6623   20.4320 O.co2   1  UNL1       -0.5454
     16 O          -1.2448  -18.0699   18.5028 O.co2   1  UNL1       -0.5454
     17 N         -11.5423  -19.3134   21.1153 N.3     1  UNL1       -0.2962
     18 H         -12.1867  -19.1767   20.3366 H       1  UNL1        0.1235
     19 C         -12.9122  -17.2292   21.8431 C.3     1  UNL1        0.0220
     20 C         -11.7904  -18.1953   22.0841 C.3     1  UNL1        0.0768
     21 C         -10.9166  -18.0434   23.2938 C.ar    1  UNL1       -0.0080
     22 C         -11.1871  -18.8611   24.5219 C.ar    1  UNL1       -0.0030
     23 C         -10.3134  -18.7092   25.7316 C.ar    1  UNL1       -0.0003
     24 C          -9.1690  -17.7396   25.7133 C.ar    1  UNL1       -0.0000
     25 C          -8.8984  -16.9219   24.4852 C.ar    1  UNL1       -0.0003
     26 C          -7.7541  -15.9523   24.4668 C.ar    1  UNL1       -0.0000
     27 C          -7.4835  -15.1346   23.2388 C.ar    1  UNL1       -0.0000
     28 C          -8.3573  -15.2865   22.0291 C.ar    1  UNL1       -0.0000
     29 C          -9.5017  -16.2561   22.0474 C.ar    1  UNL1       -0.0003
     30 C          -9.7722  -17.0738   23.2754 C.ar    1  UNL1       -0.0027
@<TRIPOS>UNITY_ATOM_ATTR
15 1
charge -1
@<TRIPOS>BOND
     1    20    19    1
     2    20    17    1
     3     1    17    1
     4     1     2    1
     5     2     3    1
     6     3     4    1
     7     4     6    1
     8     6     7   ar
     9     7     8   ar
    10     8     9   ar
    11     9    12    1
    12    12    13    1
    13    13    14    1
    14    14    15   ar
    15    14    16   ar
    16     9    10   ar
    17    10    11   ar
    18     4     5    1
    19    20    21    1
    20    21    22   ar
    21    22    23   ar
    22    23    24   ar
    23    24    25   ar
    24    25    26   ar
    25    26    27   ar
    26    27    28   ar
    27    28    29   ar
    28    29    30   ar
    29     5     1    1
    30    30    21   ar
    31    11     6   ar
    32    30    25   ar
    33    17    18    1
@<TRIPOS>MOLECULE
*****
 30 33 0 0 0
SMALL
GASTEIGER

@<TRIPOS>ATOM
      1 C          -7.6038  -15.8275   24.5450 C.3     1  UNL1        0.0545
      2 C          -6.6910  -15.2218   25.5698 C.3     1  UNL1        0.0161
      3 C          -5.2779  -15.5272   25.1699 C.3     1  UNL1        0.0058
      4 C          -5.3173  -16.3215   23.8981 C.3     1  UNL1        0.0237
      5 C          -6.7548  -16.5071   23.5119 C.3     1  UNL1        0.0201
      6 C          -4.1280  -16.8393   23.1449 C.ar    1  UNL1       -0.0223
      7 C          -3.8713  -18.3153   23.0714 C.ar    1  UNL1       -0.0012
      8 C          -2.6820  -18.8332   22.3182 C.ar    1  UNL1        0.0366
      9 C          -1.7494  -17.8750   21.6384 C.ar    1  UNL1        0.1391
     10 C          -2.0062  -16.3989   21.7118 C.ar    1  UNL1        0.0366
     11 C          -3.1954  -15.8811   22.4651 C.ar    1  UNL1       -0.0012
     12 O          -0.5600  -18.3928   20.8851 O.3     1  UNL1       -0.4694
     13 C          -0.3589  -18.0128   19.4480 C.3     1  UNL1        0.2469
     14 C          -1.4953  -18.1273   18.4758 C.2     1  UNL1        0.0940
     15 O          -1.3043  -17.7138   17.0467 O.co2   1  UNL1       -0.5454
     16 O          -2.8229  -18.6552   18.9329 O.co2   1  UNL1       -0.5454
     17 N          -9.1025  -15.7646   24.5521 N.3     1  UNL1       -0.2962
     18 H          -9.3813  -15.4917   25.4945 H       1  UNL1        0.1235
     19 C         -10.0491  -18.0992   25.1872 C.3     1  UNL1        0.0220
     20 C          -9.9059  -16.9809   24.1980 C.3     1  UNL1        0.0768
     21 C         -10.5660  -17.0787   22.8546 C.ar    1  UNL1       -0.0080
     22 C         -11.8281  -16.3153   22.5818 C.ar    1  UNL1       -0.0030
     23 C         -12.4882  -16.4131   21.2384 C.ar    1  UNL1       -0.0003
     24 C         -11.8863  -17.2743   20.1679 C.ar    1  UNL1       -0.0000
     25 C         -10.6242  -18.0376   20.4407 C.ar    1  UNL1       -0.0003
     26 C         -10.0222  -18.8988   19.3701 C.ar    1  UNL1       -0.0000
     27 C          -8.7602  -19.6621   19.6430 C.ar    1  UNL1       -0.0000
     28 C          -8.1000  -19.5643   20.9863 C.ar    1  UNL1       -0.0000
     29 C          -8.7020  -18.7032   22.0569 C.ar    1  UNL1       -0.0003
     30 C          -9.9640  -17.9398   21.7840 C.ar    1  UNL1       -0.0027
@<TRIPOS>UNITY_ATOM_ATTR
15 1
charge -1
@<TRIPOS>BOND
     1    20    19    1
     2    20    17    1
     3     1    17    1
     4     1     2    1
     5     2     3    1
     6     3     4    1
     7     4     6    1
     8     6     7   ar
     9     7     8   ar
    10     8     9   ar
    11     9    12    1
    12    12    13    1
    13    13    14    1
    14    14    15   ar
    15    14    16   ar
    16     9    10   ar
    17    10    11   ar
    18     4     5    1
    19    20    21    1
    20    21    22   ar
    21    22    23   ar
    22    23    24   ar
    23    24    25   ar
    24    25    26   ar
    25    26    27   ar
    26    27    28   ar
    27    28    29   ar
    28    29    30   ar
    29     5     1    1
    30    30    21   ar
    31    11     6   ar
    32    30    25   ar
    33    17    18    1
@<TRIPOS>MOLECULE
*****
 30 33 0 0 0
SMALL
GASTEIGER

@<TRIPOS>ATOM
      1 C          -8.1827  -15.6392   24.5378 C.3     1  UNL1        0.0545
      2 C          -7.2393  -15.3061   25.6555 C.3     1  UNL1        0.0161
      3 C          -5.8784  -15.8133   25.2800 C.3     1  UNL1        0.0058
      4 C          -5.9807  -16.4598   23.9303 C.3     1  UNL1        0.0237
      5 C          -7.4048  -16.3522   23.4716 C.3     1  UNL1        0.0201
      6 C          -4.8564  -17.1012   23.1725 C.ar    1  UNL1       -0.0223
      7 C          -5.0533  -18.4431   22.5318 C.ar    1  UNL1       -0.0012
      8 C          -3.9290  -19.0846   21.7739 C.ar    1  UNL1        0.0366
      9 C          -2.6077  -18.3842   21.6569 C.ar    1  UNL1        0.1391
     10 C          -2.4108  -17.0423   22.2976 C.ar    1  UNL1        0.0366
     11 C          -3.5352  -16.4008   23.0555 C.ar    1  UNL1       -0.0012
     12 O          -1.4833  -19.0257   20.8990 O.3     1  UNL1       -0.4694
     13 C          -0.8547  -18.3092   19.7407 C.3     1  UNL1        0.2469
     14 C          -1.7089  -17.8186   18.6095 C.2     1  UNL1        0.0940
     15 O          -3.0531  -17.2158   18.8914 O.co2   1  UNL1       -0.5454
     16 O          -1.2187  -17.9307   17.1963 O.co2   1  UNL1       -0.5454
     17 N          -9.6468  -15.3161   24.4940 N.3     1  UNL1       -0.2962
     18 H          -9.9903  -15.3757   25.4525 H       1  UNL1        0.1235
     19 C         -11.6578  -15.4771   22.8569 C.3     1  UNL1        0.0220
     20 C         -10.5722  -16.1419   23.6502 C.3     1  UNL1        0.0768
     21 C         -10.4119  -17.6324   23.5999 C.ar    1  UNL1       -0.0080
     22 C         -10.2385  -18.4114   24.8700 C.ar    1  UNL1       -0.0030
     23 C         -10.0782  -19.9020   24.8197 C.ar    1  UNL1       -0.0003
     24 C         -10.0913  -20.6135   23.4993 C.ar    1  UNL1       -0.0000
     25 C         -10.2647  -19.8346   22.2291 C.ar    1  UNL1       -0.0003
     26 C         -10.2778  -20.5462   20.9088 C.ar    1  UNL1       -0.0000
     27 C         -10.4512  -19.7672   19.6387 C.ar    1  UNL1       -0.0000
     28 C         -10.6115  -18.2766   19.6890 C.ar    1  UNL1       -0.0000
     29 C         -10.5984  -17.5650   21.0094 C.ar    1  UNL1       -0.0003
     30 C         -10.4250  -18.3440   22.2794 C.ar    1  UNL1       -0.0027
@<TRIPOS>UNITY_ATOM_ATTR
15 1
charge -1
@<TRIPOS>BOND
     1    20    19    1
     2    20    17    1
     3     1    17    1
     4     1     2    1
     5     2     3    1
     6     3     4    1
     7     4     6    1
     8     6     7   ar
     9     7     8   ar
    10     8     9   ar
    11     9    12    1
    12    12    13    1
    13    13    14    1
    14    14    15   ar
    15    14    16   ar
    16     9    10   ar
    17    10    11   ar
    18     4     5    1
    19    20    21    1
    20    21    22   ar
    21    22    23   ar
    22    23    24   ar
    23    24    25   ar
    24    25    26   ar
    25    26    27   ar
    26    27    28   ar
    27    28    29   ar
    28    29    30   ar
    29     5     1    1
    30    30    21   ar
    31    11     6   ar
    32    30    25   ar
    33    17    18    1
@<TRIPOS>MOLECULE
*****
 30 33 0 0 0
SMALL
GASTEIGER

@<TRIPOS>ATOM
      1 C          -9.5650  -17.7793   24.3244 C.3     1  UNL1        0.0545
      2 C          -9.0781  -16.3609   24.3606 C.3     1  UNL1        0.0161
      3 C          -7.7078  -16.3257   23.7514 C.3     1  UNL1        0.0058
      4 C          -7.3478  -17.7221   23.3387 C.3     1  UNL1        0.0237
      5 C          -8.4957  -18.6205   23.6929 C.3     1  UNL1        0.0201
      6 C          -6.0653  -18.1458   22.6865 C.ar    1  UNL1       -0.0223
      7 C          -6.0913  -19.1062   21.5345 C.ar    1  UNL1       -0.0012
      8 C          -4.8087  -19.5299   20.8822 C.ar    1  UNL1        0.0366
      9 C          -3.5002  -18.9932   21.3819 C.ar    1  UNL1        0.1391
     10 C          -3.4742  -18.0328   22.5338 C.ar    1  UNL1        0.0366
     11 C          -4.7568  -17.6091   23.1861 C.ar    1  UNL1       -0.0012
     12 O          -2.2175  -19.4169   20.7296 O.3     1  UNL1       -0.4694
     13 C          -1.3979  -18.4179   19.9677 C.3     1  UNL1        0.2469
     14 C          -1.9443  -17.7983   18.7158 C.2     1  UNL1        0.0940
     15 O          -1.1887  -17.9224   17.4260 O.co2   1  UNL1       -0.5454
     16 O          -3.2463  -17.0544   18.7537 O.co2   1  UNL1       -0.5454
     17 N         -10.8889  -18.2702   24.8309 N.3     1  UNL1       -0.2962
     18 H         -10.7774  -19.2642   25.0308 H       1  UNL1        0.1235
     19 C         -13.4518  -18.5545   24.5138 C.3     1  UNL1        0.0220
     20 C         -12.1152  -18.1349   23.9777 C.3     1  UNL1        0.0768
     21 C         -12.0049  -17.5800   22.5885 C.ar    1  UNL1       -0.0080
     22 C         -12.5267  -16.2067   22.2858 C.ar    1  UNL1       -0.0030
     23 C         -12.4163  -15.6518   20.8965 C.ar    1  UNL1       -0.0003
     24 C         -11.7842  -16.4703   19.8100 C.ar    1  UNL1       -0.0000
     25 C         -11.2624  -17.8437   20.1127 C.ar    1  UNL1       -0.0003
     26 C         -10.6303  -18.6622   19.0262 C.ar    1  UNL1       -0.0000
     27 C         -10.1086  -20.0355   19.3289 C.ar    1  UNL1       -0.0000
     28 C         -10.2189  -20.5904   20.7182 C.ar    1  UNL1       -0.0000
     29 C         -10.8510  -19.7719   21.8047 C.ar    1  UNL1       -0.0003
     30 C         -11.3728  -18.3986   21.5019 C.ar    1  UNL1       -0.0027
@<TRIPOS>UNITY_ATOM_ATTR
15 1
charge -1
@<TRIPOS>BOND
     1    20    19    1
     2    20    17    1
     3     1    17    1
     4     1     2    1
     5     2     3    1
     6     3     4    1
     7     4     6    1
     8     6     7   ar
     9     7     8   ar
    10     8     9   ar
    11     9    12    1
    12    12    13    1
    13    13    14    1
    14    14    15   ar
    15    14    16   ar
    16     9    10   ar
    17    10    11   ar
    18     4     5    1
    19    20    21    1
    20    21    22   ar
    21    22    23   ar
    22    23    24   ar
    23    24    25   ar
    24    25    26   ar
    25    26    27   ar
    26    27    28   ar
    27    28    29   ar
    28    29    30   ar
    29     5     1    1
    30    30    21   ar
    31    11     6   ar
    32    30    25   ar
    33    17    18    1
@<TRIPOS>MOLECULE
*****
 30 33 0 0 0
SMALL
GASTEIGER

@<TRIPOS>ATOM
      1 C          -9.3621  -17.3629   24.3749 C.3     1  UNL1        0.0545
      2 C          -8.9880  -15.9388   24.0880 C.3     1  UNL1        0.0161
      3 C          -7.5903  -15.9274   23.5436 C.3     1  UNL1        0.0058
      4 C          -7.1005  -17.3444   23.4941 C.3     1  UNL1        0.0237
      5 C          -8.1956  -18.2315   24.0078 C.3     1  UNL1        0.0201
      6 C          -5.7525  -17.7950   23.0149 C.ar    1  UNL1       -0.0223
      7 C          -5.6428  -18.9428   22.0555 C.ar    1  UNL1       -0.0012
      8 C          -4.2947  -19.3935   21.5762 C.ar    1  UNL1        0.0366
      9 C          -3.0564  -18.6964   22.0564 C.ar    1  UNL1        0.1391
     10 C          -3.1662  -17.5485   23.0159 C.ar    1  UNL1        0.0366
     11 C          -4.5142  -17.0979   23.4951 C.ar    1  UNL1       -0.0012
     12 O          -1.7083  -19.1470   21.5772 O.3     1  UNL1       -0.4694
     13 C          -1.3952  -19.1468   20.1102 C.3     1  UNL1        0.2469
     14 C          -1.2337  -17.8477   19.3781 C.2     1  UNL1        0.0940
     15 O          -1.4714  -17.7862   17.8983 O.co2   1  UNL1       -0.5454
     16 O          -0.8346  -16.6101   20.1257 O.co2   1  UNL1       -0.5454
     17 N         -10.6725  -17.8353   24.9312 N.3     1  UNL1       -0.2962
     18 H         -10.4598  -18.5839   25.5906 H       1  UNL1        0.1235
     19 C         -13.1365  -18.5420   24.5076 C.3     1  UNL1        0.0220
     20 C         -11.7337  -18.3588   24.0092 C.3     1  UNL1        0.0768
     21 C         -11.3918  -18.6992   22.5889 C.ar    1  UNL1       -0.0080
     22 C         -10.8930  -20.0716   22.2458 C.ar    1  UNL1       -0.0030
     23 C         -10.5512  -20.4120   20.8255 C.ar    1  UNL1       -0.0003
     24 C         -10.7081  -19.3801   19.7483 C.ar    1  UNL1       -0.0000
     25 C         -11.2069  -18.0076   20.0914 C.ar    1  UNL1       -0.0003
     26 C         -11.3638  -16.9757   19.0142 C.ar    1  UNL1       -0.0000
     27 C         -11.8626  -15.6033   19.3573 C.ar    1  UNL1       -0.0000
     28 C         -12.2044  -15.2629   20.7776 C.ar    1  UNL1       -0.0000
     29 C         -12.0475  -16.2948   21.8548 C.ar    1  UNL1       -0.0003
     30 C         -11.5488  -17.6672   21.5117 C.ar    1  UNL1       -0.0027
@<TRIPOS>UNITY_ATOM_ATTR
15 1
charge -1
@<TRIPOS>BOND
     1    20    19    1
     2    20    17    1
     3     1    17    1
     4     1     2    1
     5     2     3    1
     6     3     4    1
     7     4     6    1
     8     6     7   ar
     9     7     8   ar
    10     8     9   ar
    11     9    12    1
    12    12    13    1
    13    13    14    1
    14    14    15   ar
    15    14    16   ar
    16     9    10   ar
    17    10    11   ar
    18     4     5    1
    19    20    21    1
    20    21    22   ar
    21    22    23   ar
    22    23    24   ar
    23    24    25   ar
    24    25    26   ar
    25    26    27   ar
    26    27    28   ar
    27    28    29   ar
    28    29    30   ar
    29     5     1    1
    30    30    21   ar
    31    11     6   ar
    32    30    25   ar
    33    17    18    1
@<TRIPOS>MOLECULE
*****
 30 33 0 0 0
SMALL
GASTEIGER

@<TRIPOS>ATOM
      1 C           5.4402   -3.5895   22.1554 C.3     1  UNL1        0.0545
      2 C           6.4355   -3.7561   23.2652 C.3     1  UNL1        0.0161
      3 C           5.9786   -2.9236   24.4264 C.3     1  UNL1        0.0058
      4 C           4.7010   -2.2425   24.0342 C.3     1  UNL1        0.0237
      5 C           4.3683   -2.6540   22.6307 C.3     1  UNL1        0.0201
      6 C           3.8974   -1.3130   24.8945 C.ar    1  UNL1       -0.0223
      7 C           2.9620   -0.3258   24.2617 C.ar    1  UNL1       -0.0012
      8 C           2.1583    0.6037   25.1220 C.ar    1  UNL1        0.0366
      9 C           2.2900    0.5460   26.6151 C.ar    1  UNL1        0.1391
     10 C           3.2254   -0.4413   27.2479 C.ar    1  UNL1        0.0366
     11 C           4.0291   -1.3708   26.3876 C.ar    1  UNL1       -0.0012
     12 O           1.4863    1.4755   27.4754 O.3     1  UNL1       -0.4694
     13 C           0.0887    1.1064   27.8762 C.3     1  UNL1        0.2469
     14 C          -0.1436    0.2559   29.0897 C.2     1  UNL1        0.0940
     15 O          -1.5402   -0.1252   29.4823 O.co2   1  UNL1       -0.5454
     16 O           1.0208   -0.2136   29.9106 O.co2   1  UNL1       -0.5454
     17 N           5.5054   -4.2435   20.8070 N.3     1  UNL1       -0.2962
     18 H           6.4517   -4.0987   20.4550 H       1  UNL1        0.1235
     19 C           3.4176   -4.6926   19.3273 C.3     1  UNL1        0.0220
     20 C           4.5677   -3.8126   19.7183 C.3     1  UNL1        0.0768
     21 C           4.7802   -2.5019   19.0207 C.ar    1  UNL1       -0.0080
     22 C           6.0340   -2.2668   18.2316 C.ar    1  UNL1       -0.0030
     23 C           6.2465   -0.9560   17.5340 C.ar    1  UNL1       -0.0003
     24 C           5.2052    0.1197   17.6255 C.ar    1  UNL1       -0.0000
     25 C           3.9513   -0.1153   18.4146 C.ar    1  UNL1       -0.0003
     26 C           2.9100    0.9605   18.5060 C.ar    1  UNL1       -0.0000
     27 C           1.6562    0.7254   19.2951 C.ar    1  UNL1       -0.0000
     28 C           1.4437   -0.5854   19.9927 C.ar    1  UNL1       -0.0000
     29 C           2.4850   -1.6611   19.9013 C.ar    1  UNL1       -0.0003
     30 C           3.7388   -1.4261   19.1122 C.ar    1  UNL1       -0.0027
@<TRIPOS>UNITY_ATOM_ATTR
15 1
charge -1
@<TRIPOS>BOND
     1    20    19    1
     2    20    17    1
     3     1    17    1
     4     1     2    1
     5     2     3    1
     6     3     4    1
     7     4     6    1
     8     6     7   ar
     9     7     8   ar
    10     8     9   ar
    11     9    12    1
    12    12    13    1
    13    13    14    1
    14    14    15   ar
    15    14    16   ar
    16     9    10   ar
    17    10    11   ar
    18     4     5    1
    19    20    21    1
    20    21    22   ar
    21    22    23   ar
    22    23    24   ar
    23    24    25   ar
    24    25    26   ar
    25    26    27   ar
    26    27    28   ar
    27    28    29   ar
    28    29    30   ar
    29     5     1    1
    30    30    21   ar
    31    11     6   ar
    32    30    25   ar
    33    17    18    1
@<TRIPOS>MOLECULE
*****
 30 33 0 0 0
SMALL
GASTEIGER

@<TRIPOS>ATOM
      1 C          -9.2226  -15.6386   23.6259 C.3     1  UNL1        0.0545
      2 C          -8.5961  -15.4219   24.9715 C.3     1  UNL1        0.0161
      3 C          -7.2188  -16.0156   24.9425 C.3     1  UNL1        0.0058
      4 C          -6.9942  -16.5993   23.5791 C.3     1  UNL1        0.0237
      5 C          -8.2326  -16.3663   22.7654 C.3     1  UNL1        0.0201
      6 C          -5.7498  -17.2939   23.1116 C.ar    1  UNL1       -0.0223
      7 C          -5.8528  -18.5345   22.2746 C.ar    1  UNL1       -0.0012
      8 C          -4.6083  -19.2292   21.8070 C.ar    1  UNL1        0.0366
      9 C          -3.2609  -18.6834   22.1764 C.ar    1  UNL1        0.1391
     10 C          -3.1579  -17.4429   23.0134 C.ar    1  UNL1        0.0366
     11 C          -4.4023  -16.7482   23.4809 C.ar    1  UNL1       -0.0012
     12 O          -2.0163  -19.3782   21.7088 O.3     1  UNL1       -0.4694
     13 C          -1.4791  -19.1100   20.3342 C.3     1  UNL1        0.2469
     14 C          -1.5063  -17.7177   19.7769 C.2     1  UNL1        0.0940
     15 O          -0.7049  -16.6319   20.4317 O.co2   1  UNL1       -0.5454
     16 O          -2.3349  -17.4111   18.5647 O.co2   1  UNL1       -0.5454
     17 N         -10.5977  -15.2040   23.2133 N.3     1  UNL1       -0.2962
     18 H         -11.0641  -14.8648   24.0546 H       1  UNL1        0.1235
     19 C         -13.0009  -15.8907   22.5039 C.3     1  UNL1        0.0220
     20 C         -11.5311  -16.1835   22.5657 C.3     1  UNL1        0.0768
     21 C         -10.9946  -17.4559   21.9798 C.ar    1  UNL1       -0.0080
     22 C         -10.8996  -17.6146   20.4913 C.ar    1  UNL1       -0.0030
     23 C         -10.3631  -18.8870   19.9054 C.ar    1  UNL1       -0.0003
     24 C          -9.9217  -20.0007   20.8080 C.ar    1  UNL1       -0.0000
     25 C         -10.0168  -19.8420   22.2966 C.ar    1  UNL1       -0.0003
     26 C          -9.5754  -20.9557   23.1993 C.ar    1  UNL1       -0.0000
     27 C          -9.6704  -20.7970   24.6878 C.ar    1  UNL1       -0.0000
     28 C         -10.2069  -19.5246   25.2737 C.ar    1  UNL1       -0.0000
     29 C         -10.6483  -18.4109   24.3710 C.ar    1  UNL1       -0.0003
     30 C         -10.5532  -18.5696   22.8825 C.ar    1  UNL1       -0.0027
@<TRIPOS>UNITY_ATOM_ATTR
15 1
charge -1
@<TRIPOS>BOND
     1    20    19    1
     2    20    17    1
     3     1    17    1
     4     1     2    1
     5     2     3    1
     6     3     4    1
     7     4     6    1
     8     6     7   ar
     9     7     8   ar
    10     8     9   ar
    11     9    12    1
    12    12    13    1
    13    13    14    1
    14    14    15   ar
    15    14    16   ar
    16     9    10   ar
    17    10    11   ar
    18     4     5    1
    19    20    21    1
    20    21    22   ar
    21    22    23   ar
    22    23    24   ar
    23    24    25   ar
    24    25    26   ar
    25    26    27   ar
    26    27    28   ar
    27    28    29   ar
    28    29    30   ar
    29     5     1    1
    30    30    21   ar
    31    11     6   ar
    32    30    25   ar
    33    17    18    1
@<TRIPOS>MOLECULE
*****
 30 33 0 0 0
SMALL
GASTEIGER

@<TRIPOS>ATOM
      1 C           5.4080   -4.0016   20.0797 C.3     1  UNL1        0.0545
      2 C           4.2897   -4.7129   19.3771 C.3     1  UNL1        0.0161
      3 C           3.1943   -3.7194   19.1255 C.3     1  UNL1        0.0058
      4 C           3.6356   -2.3943   19.6725 C.3     1  UNL1        0.0237
      5 C           5.0038   -2.5687   20.2622 C.3     1  UNL1        0.0201
      6 C           2.8473   -1.1187   19.6361 C.ar    1  UNL1       -0.0223
      7 C           3.4024    0.0864   18.9364 C.ar    1  UNL1       -0.0012
      8 C           2.6141    1.3620   18.9000 C.ar    1  UNL1        0.0366
      9 C           1.2706    1.4325   19.5633 C.ar    1  UNL1        0.1391
     10 C           0.7154    0.2273   20.2630 C.ar    1  UNL1        0.0366
     11 C           1.5037   -1.0482   20.2994 C.ar    1  UNL1       -0.0012
     12 O           0.4821    2.7081   19.5269 O.3     1  UNL1       -0.4694
     13 C          -0.5924    2.9549   20.5440 C.3     1  UNL1        0.2469
     14 C          -1.9957    3.2409   20.0980 C.2     1  UNL1        0.0940
     15 O          -3.1516    2.8893   20.9870 O.co2   1  UNL1       -0.5454
     16 O          -2.2431    3.8785   18.7630 O.co2   1  UNL1       -0.5454
     17 N           6.7032   -4.6155   20.5221 N.3     1  UNL1       -0.2962
     18 H           6.4771   -5.5302   20.9129 H       1  UNL1        0.1235
     19 C           8.6643   -3.0048   21.0785 C.3     1  UNL1        0.0220
     20 C           7.5599   -3.9124   21.5329 C.3     1  UNL1        0.0768
     21 C           7.3121   -4.1168   22.9981 C.ar    1  UNL1       -0.0080
     22 C           6.5045   -3.1151   23.7690 C.ar    1  UNL1       -0.0030
     23 C           6.2567   -3.3196   25.2342 C.ar    1  UNL1       -0.0003
     24 C           6.8165   -4.5256   25.9285 C.ar    1  UNL1       -0.0000
     25 C           7.6242   -5.5273   25.1575 C.ar    1  UNL1       -0.0003
     26 C           8.1840   -6.7333   25.8518 C.ar    1  UNL1       -0.0000
     27 C           8.9917   -7.7349   25.0808 C.ar    1  UNL1       -0.0000
     28 C           9.2395   -7.5305   23.6156 C.ar    1  UNL1       -0.0000
     29 C           8.6796   -6.3245   22.9214 C.ar    1  UNL1       -0.0003
     30 C           7.8720   -5.3229   23.6923 C.ar    1  UNL1       -0.0027
@<TRIPOS>UNITY_ATOM_ATTR
15 1
charge -1
@<TRIPOS>BOND
     1    20    19    1
     2    20    17    1
     3     1    17    1
     4     1     2    1
     5     2     3    1
     6     3     4    1
     7     4     6    1
     8     6     7   ar
     9     7     8   ar
    10     8     9   ar
    11     9    12    1
    12    12    13    1
    13    13    14    1
    14    14    15   ar
    15    14    16   ar
    16     9    10   ar
    17    10    11   ar
    18     4     5    1
    19    20    21    1
    20    21    22   ar
    21    22    23   ar
    22    23    24   ar
    23    24    25   ar
    24    25    26   ar
    25    26    27   ar
    26    27    28   ar
    27    28    29   ar
    28    29    30   ar
    29     5     1    1
    30    30    21   ar
    31    11     6   ar
    32    30    25   ar
    33    17    18    1
@<TRIPOS>MOLECULE
*****
 30 33 0 0 0
SMALL
GASTEIGER

@<TRIPOS>ATOM
      1 C           5.8409   -3.7351   21.9232 C.3     1  UNL1        0.0545
      2 C           4.6773   -2.9443   22.4437 C.3     1  UNL1        0.0161
      3 C           4.8796   -2.7362   23.9154 C.3     1  UNL1        0.0058
      4 C           6.1680   -3.3984   24.3045 C.3     1  UNL1        0.0237
      5 C           6.7621   -4.0158   23.0732 C.3     1  UNL1        0.0201
      6 C           6.7586   -3.4366   25.6827 C.ar    1  UNL1       -0.0223
      7 C           6.7667   -4.7195   26.4599 C.ar    1  UNL1       -0.0012
      8 C           7.3573   -4.7577   27.8382 C.ar    1  UNL1        0.0366
      9 C           7.9397   -3.5130   28.4393 C.ar    1  UNL1        0.1391
     10 C           7.9315   -2.2300   27.6622 C.ar    1  UNL1        0.0366
     11 C           7.3410   -2.1918   26.2838 C.ar    1  UNL1       -0.0012
     12 O           8.5303   -3.5512   29.8177 O.3     1  UNL1       -0.4694
     13 C           8.3615   -4.7722   30.6724 C.3     1  UNL1        0.2469
     14 C           7.1350   -4.9298   31.5213 C.2     1  UNL1        0.0940
     15 O           6.7023   -6.2947   31.9681 O.co2   1  UNL1       -0.5454
     16 O           6.3410   -3.7223   31.9233 O.co2   1  UNL1       -0.5454
     17 N           6.0469   -4.1691   20.5022 N.3     1  UNL1       -0.2962
     18 H           6.9474   -3.7918   20.2067 H       1  UNL1        0.1235
     19 C           4.0083   -4.7707   19.0082 C.3     1  UNL1        0.0220
     20 C           5.0501   -3.7857   19.4489 C.3     1  UNL1        0.0768
     21 C           5.0952   -2.4172   18.8363 C.ar    1  UNL1       -0.0080
     22 C           6.2871   -1.9958   18.0290 C.ar    1  UNL1       -0.0030
     23 C           6.3322   -0.6273   17.4164 C.ar    1  UNL1       -0.0003
     24 C           5.1853    0.3197   17.6110 C.ar    1  UNL1       -0.0000
     25 C           3.9934   -0.1017   18.4183 C.ar    1  UNL1       -0.0003
     26 C           2.8465    0.8453   18.6130 C.ar    1  UNL1       -0.0000
     27 C           1.6547    0.4238   19.4203 C.ar    1  UNL1       -0.0000
     28 C           1.6096   -0.9446   20.0329 C.ar    1  UNL1       -0.0000
     29 C           2.7564   -1.8916   19.8382 C.ar    1  UNL1       -0.0003
     30 C           3.9483   -1.4702   19.0310 C.ar    1  UNL1       -0.0027
@<TRIPOS>UNITY_ATOM_ATTR
15 1
charge -1
@<TRIPOS>BOND
     1    20    19    1
     2    20    17    1
     3     1    17    1
     4     1     2    1
     5     2     3    1
     6     3     4    1
     7     4     6    1
     8     6     7   ar
     9     7     8   ar
    10     8     9   ar
    11     9    12    1
    12    12    13    1
    13    13    14    1
    14    14    15   ar
    15    14    16   ar
    16     9    10   ar
    17    10    11   ar
    18     4     5    1
    19    20    21    1
    20    21    22   ar
    21    22    23   ar
    22    23    24   ar
    23    24    25   ar
    24    25    26   ar
    25    26    27   ar
    26    27    28   ar
    27    28    29   ar
    28    29    30   ar
    29     5     1    1
    30    30    21   ar
    31    11     6   ar
    32    30    25   ar
    33    17    18    1
