@<TRIPOS>MOLECULE
*****
 21 23 0 0 0
SMALL
GASTEIGER

@<TRIPOS>ATOM
      1 C          -6.6647  -16.2568   23.9442 C.3     1  UNL1        0.0625
      2 C          -5.1685  -16.1579   23.9835 C.3     1  UNL1        0.0210
      3 C          -4.3315  -17.1422   23.2215 C.3     1  UNL1        0.0274
      4 C          -4.9908  -18.2254   22.4201 C.ar    1  UNL1       -0.0257
      5 C          -4.1538  -19.2097   21.6581 C.ar    1  UNL1       -0.0046
      6 C          -4.8131  -20.2929   20.8569 C.ar    1  UNL1       -0.0003
      7 C          -6.3093  -20.3918   20.8176 C.ar    1  UNL1       -0.0003
      8 C          -7.1463  -19.4075   21.5796 C.ar    1  UNL1       -0.0042
      9 C          -6.4870  -18.3243   22.3809 C.ar    1  UNL1       -0.0211
     10 C          -7.3240  -17.3400   23.1430 C.3     1  UNL1        0.0586
     11 C          -8.8202  -17.4389   23.1037 C.ar    1  UNL1       -0.0162
     12 C          -9.5467  -18.2369   24.1457 C.ar    1  UNL1       -0.0030
     13 C         -11.0429  -18.3358   24.1064 C.ar    1  UNL1        0.0119
     14 C         -11.8126  -17.6367   23.0252 C.ar    1  UNL1        0.0682
     15 CL        -13.3088  -17.7356   22.9860 Cl      1  UNL1       -0.0814
     16 C         -11.0861  -16.8388   21.9833 C.ar    1  UNL1        0.0679
     17 CL        -11.8559  -16.1398   20.9021 Cl      1  UNL1       -0.0814
     18 C          -9.5899  -16.7399   22.0226 C.ar    1  UNL1        0.0083
     19 C          -7.8183  -15.5179   26.1518 C.3     1  UNL1        0.0859
     20 N          -7.5016  -15.2725   24.7063 N.3     1  UNL1       -0.2968
     21 H          -7.0179  -14.3758   24.6589 H       1  UNL1        0.1233
@<TRIPOS>BOND
     1    19    20    1
     2     1    20    1
     3     1     2    1
     4     2     3    1
     5     3     4    1
     6     4     5   ar
     7     5     6   ar
     8     6     7   ar
     9     7     8   ar
    10     8     9   ar
    11     9    10    1
    12    10    11    1
    13    11    12   ar
    14    12    13   ar
    15    13    14   ar
    16    14    15    1
    17    14    16   ar
    18    16    17    1
    19    16    18   ar
    20    10     1    1
    21    18    11   ar
    22     9     4   ar
    23    20    21    1
@<TRIPOS>MOLECULE
*****
 21 23 0 0 0
SMALL
GASTEIGER

@<TRIPOS>ATOM
      1 C         -10.3104  -16.9384   21.6956 C.3     1  UNL1        0.0625
      2 C         -10.8751  -17.5636   20.4545 C.3     1  UNL1        0.0210
      3 C         -10.1091  -18.6375   19.7405 C.3     1  UNL1        0.0274
      4 C          -8.7783  -19.0862   20.2676 C.ar    1  UNL1       -0.0257
      5 C          -8.0122  -20.1602   19.5536 C.ar    1  UNL1       -0.0046
      6 C          -6.6815  -20.6088   20.0806 C.ar    1  UNL1       -0.0003
      7 C          -6.1168  -19.9836   21.3216 C.ar    1  UNL1       -0.0003
      8 C          -6.8828  -18.9097   22.0357 C.ar    1  UNL1       -0.0042
      9 C          -8.2136  -18.4610   21.5086 C.ar    1  UNL1       -0.0211
     10 C          -8.9797  -17.3870   22.2226 C.3     1  UNL1        0.0586
     11 C          -8.4150  -16.7618   23.4637 C.ar    1  UNL1       -0.0162
     12 C          -7.3534  -15.7075   23.3560 C.ar    1  UNL1       -0.0030
     13 C          -6.7887  -15.0823   24.5970 C.ar    1  UNL1        0.0119
     14 C          -7.2856  -15.5113   25.9458 C.ar    1  UNL1        0.0682
     15 CL         -6.7209  -14.8861   27.1868 Cl      1  UNL1       -0.0814
     16 C          -8.3472  -16.5655   26.0534 C.ar    1  UNL1        0.0679
     17 CL         -8.8442  -16.9946   27.4022 Cl      1  UNL1       -0.0814
     18 C          -8.9119  -17.1908   24.8124 C.ar    1  UNL1        0.0083
     19 C         -12.5523  -16.0166   22.6307 C.3     1  UNL1        0.0859
     20 N         -11.0765  -15.8644   22.4096 N.3     1  UNL1       -0.2968
     21 H         -10.6500  -15.7610   23.3303 H       1  UNL1        0.1233
@<TRIPOS>BOND
     1    19    20    1
     2     1    20    1
     3     1     2    1
     4     2     3    1
     5     3     4    1
     6     4     5   ar
     7     5     6   ar
     8     6     7   ar
     9     7     8   ar
    10     8     9   ar
    11     9    10    1
    12    10    11    1
    13    11    12   ar
    14    12    13   ar
    15    13    14   ar
    16    14    15    1
    17    14    16   ar
    18    16    17    1
    19    16    18   ar
    20    10     1    1
    21    18    11   ar
    22     9     4   ar
    23    20    21    1
@<TRIPOS>MOLECULE
*****
 21 23 0 0 0
SMALL
GASTEIGER

@<TRIPOS>ATOM
      1 C          -7.1109  -17.1496   22.7796 C.3     1  UNL1        0.0625
      2 C          -5.6642  -16.7917   22.9496 C.3     1  UNL1        0.0210
      3 C          -5.2037  -16.1038   24.2004 C.3     1  UNL1        0.0274
      4 C          -6.1900  -15.7736   25.2814 C.ar    1  UNL1       -0.0257
      5 C          -5.7295  -15.0857   26.5322 C.ar    1  UNL1       -0.0046
      6 C          -6.7157  -14.7556   27.6131 C.ar    1  UNL1       -0.0003
      7 C          -8.1625  -15.1134   27.4431 C.ar    1  UNL1       -0.0003
      8 C          -8.6230  -15.8014   26.1923 C.ar    1  UNL1       -0.0042
      9 C          -7.6367  -16.1315   25.1114 C.ar    1  UNL1       -0.0211
     10 C          -8.0972  -16.8195   23.8605 C.3     1  UNL1        0.0586
     11 C          -9.5439  -17.1774   23.6905 C.ar    1  UNL1       -0.0162
     12 C         -10.1496  -18.2680   24.5235 C.ar    1  UNL1       -0.0030
     13 C         -11.5963  -18.6259   24.3535 C.ar    1  UNL1        0.0119
     14 C         -12.4374  -17.8931   23.3506 C.ar    1  UNL1        0.0682
     15 CL        -13.8841  -18.2510   23.1806 Cl      1  UNL1       -0.0814
     16 C         -11.8317  -16.8025   22.5177 C.ar    1  UNL1        0.0679
     17 CL        -12.6727  -16.0697   21.5148 Cl      1  UNL1       -0.0814
     18 C         -10.3849  -16.4446   22.6877 C.ar    1  UNL1        0.0083
     19 C          -7.4948  -19.3319   21.4230 C.3     1  UNL1        0.0859
     20 N          -7.5714  -17.8376   21.5287 N.3     1  UNL1       -0.2968
     21 H          -8.5501  -17.5828   21.3957 H       1  UNL1        0.1233
@<TRIPOS>BOND
     1    19    20    1
     2     1    20    1
     3     1     2    1
     4     2     3    1
     5     3     4    1
     6     4     5   ar
     7     5     6   ar
     8     6     7   ar
     9     7     8   ar
    10     8     9   ar
    11     9    10    1
    12    10    11    1
    13    11    12   ar
    14    12    13   ar
    15    13    14   ar
    16    14    15    1
    17    14    16   ar
    18    16    17    1
    19    16    18   ar
    20    10     1    1
    21    18    11   ar
    22     9     4   ar
    23    20    21    1
@<TRIPOS>MOLECULE
*****
 21 23 0 0 0
SMALL
GASTEIGER

@<TRIPOS>ATOM
      1 C          -7.7099  -18.5776   21.7898 C.3     1  UNL1        0.0625
      2 C          -8.2349  -19.2836   20.5749 C.3     1  UNL1        0.0210
      3 C          -9.6199  -18.9925   20.0781 C.3     1  UNL1        0.0274
      4 C         -10.4801  -17.9952   20.7962 C.ar    1  UNL1       -0.0257
      5 C         -11.8651  -17.7040   20.2995 C.ar    1  UNL1       -0.0046
      6 C         -12.7252  -16.7067   21.0176 C.ar    1  UNL1       -0.0003
      7 C         -12.2003  -16.0007   22.2324 C.ar    1  UNL1       -0.0003
      8 C         -10.8152  -16.2919   22.7292 C.ar    1  UNL1       -0.0042
      9 C          -9.9551  -17.2891   22.0111 C.ar    1  UNL1       -0.0211
     10 C          -8.5700  -17.5803   22.5079 C.3     1  UNL1        0.0586
     11 C          -8.0451  -16.8743   23.7227 C.ar    1  UNL1       -0.0162
     12 C          -6.9216  -15.8891   23.5907 C.ar    1  UNL1       -0.0030
     13 C          -6.3967  -15.1830   24.8056 C.ar    1  UNL1        0.0119
     14 C          -6.9951  -15.4622   26.1525 C.ar    1  UNL1        0.0682
     15 CL         -6.4702  -14.7561   27.3673 Cl      1  UNL1       -0.0814
     16 C          -8.1185  -16.4473   26.2844 C.ar    1  UNL1        0.0679
     17 CL         -8.7170  -16.7264   27.6313 Cl      1  UNL1       -0.0814
     18 C          -8.6435  -17.1534   25.0695 C.ar    1  UNL1        0.0083
     19 C          -5.2532  -19.2815   21.3215 C.3     1  UNL1        0.0859
     20 N          -6.3248  -18.8688   22.2865 N.3     1  UNL1       -0.2968
     21 H          -5.9940  -18.0223   22.7496 H       1  UNL1        0.1233
@<TRIPOS>BOND
     1    19    20    1
     2     1    20    1
     3     1     2    1
     4     2     3    1
     5     3     4    1
     6     4     5   ar
     7     5     6   ar
     8     6     7   ar
     9     7     8   ar
    10     8     9   ar
    11     9    10    1
    12    10    11    1
    13    11    12   ar
    14    12    13   ar
    15    13    14   ar
    16    14    15    1
    17    14    16   ar
    18    16    17    1
    19    16    18   ar
    20    10     1    1
    21    18    11   ar
    22     9     4   ar
    23    20    21    1
@<TRIPOS>MOLECULE
*****
 21 23 0 0 0
SMALL
GASTEIGER

@<TRIPOS>ATOM
      1 C          -6.4314  -18.8860   21.8129 C.3     1  UNL1        0.0625
      2 C          -4.9496  -18.8528   22.0434 C.3     1  UNL1        0.0210
      3 C          -4.3650  -17.8816   23.0257 C.3     1  UNL1        0.0274
      4 C          -5.2622  -16.9435   23.7775 C.ar    1  UNL1       -0.0257
      5 C          -4.6776  -15.9723   24.7597 C.ar    1  UNL1       -0.0046
      6 C          -5.5748  -15.0343   25.5115 C.ar    1  UNL1       -0.0003
      7 C          -7.0567  -15.0675   25.2809 C.ar    1  UNL1       -0.0003
      8 C          -7.6412  -16.0388   24.2987 C.ar    1  UNL1       -0.0042
      9 C          -6.7440  -16.9768   23.5469 C.ar    1  UNL1       -0.0211
     10 C          -7.3286  -17.9481   22.5646 C.3     1  UNL1        0.0586
     11 C          -8.8104  -17.9813   22.3341 C.ar    1  UNL1       -0.0162
     12 C          -9.6666  -18.9486   23.0967 C.ar    1  UNL1       -0.0030
     13 C         -11.1484  -18.9818   22.8661 C.ar    1  UNL1        0.0119
     14 C         -11.7740  -18.0478   21.8730 C.ar    1  UNL1        0.0682
     15 CL        -13.2558  -18.0810   21.6424 Cl      1  UNL1       -0.0814
     16 C         -10.9179  -17.0806   21.1104 C.ar    1  UNL1        0.0679
     17 CL        -11.5435  -16.1466   20.1173 Cl      1  UNL1       -0.0814
     18 C          -9.4361  -17.0474   21.3410 C.ar    1  UNL1        0.0083
     19 C          -6.1527  -20.9257   20.2279 C.3     1  UNL1        0.0859
     20 N          -7.0160  -19.8574   20.8305 N.3     1  UNL1       -0.2968
     21 H          -7.7828  -20.3322   21.3068 H       1  UNL1        0.1233
@<TRIPOS>BOND
     1    19    20    1
     2     1    20    1
     3     1     2    1
     4     2     3    1
     5     3     4    1
     6     4     5   ar
     7     5     6   ar
     8     6     7   ar
     9     7     8   ar
    10     8     9   ar
    11     9    10    1
    12    10    11    1
    13    11    12   ar
    14    12    13   ar
    15    13    14   ar
    16    14    15    1
    17    14    16   ar
    18    16    17    1
    19    16    18   ar
    20    10     1    1
    21    18    11   ar
    22     9     4   ar
    23    20    21    1
@<TRIPOS>MOLECULE
*****
 21 23 0 0 0
SMALL
GASTEIGER

@<TRIPOS>ATOM
      1 C          -7.2446  -16.3046   23.4698 C.3     1  UNL1        0.0625
      2 C          -8.2320  -15.5944   24.3476 C.3     1  UNL1        0.0210
      3 C          -9.5541  -16.2315   24.6575 C.3     1  UNL1        0.0274
      4 C          -9.8888  -17.5790   24.0896 C.ar    1  UNL1       -0.0257
      5 C         -11.2109  -18.2162   24.3996 C.ar    1  UNL1       -0.0046
      6 C         -11.5455  -19.5635   23.8317 C.ar    1  UNL1       -0.0003
      7 C         -10.5580  -20.2738   22.9539 C.ar    1  UNL1       -0.0003
      8 C          -9.2360  -19.6366   22.6440 C.ar    1  UNL1       -0.0042
      9 C          -8.9014  -18.2892   23.2118 C.ar    1  UNL1       -0.0211
     10 C          -7.5792  -17.6520   22.9019 C.3     1  UNL1        0.0586
     11 C          -6.5918  -18.3622   22.0241 C.ar    1  UNL1       -0.0162
     12 C          -6.9832  -18.7749   20.6361 C.ar    1  UNL1       -0.0030
     13 C          -5.9958  -19.4852   19.7583 C.ar    1  UNL1        0.0119
     14 C          -4.6169  -19.7827   20.2685 C.ar    1  UNL1        0.0682
     15 CL         -3.6294  -20.4929   19.3907 Cl      1  UNL1       -0.0814
     16 C          -4.2255  -19.3700   21.6565 C.ar    1  UNL1        0.0679
     17 CL         -2.8466  -19.6675   22.1667 Cl      1  UNL1       -0.0814
     18 C          -5.2130  -18.6597   22.5343 C.ar    1  UNL1        0.0083
     19 C          -4.9587  -15.3626   24.2680 C.3     1  UNL1        0.0859
     20 N          -5.9225  -15.6674   23.1598 N.3     1  UNL1       -0.2968
     21 H          -5.4396  -16.2907   22.5128 H       1  UNL1        0.1233
@<TRIPOS>BOND
     1    19    20    1
     2     1    20    1
     3     1     2    1
     4     2     3    1
     5     3     4    1
     6     4     5   ar
     7     5     6   ar
     8     6     7   ar
     9     7     8   ar
    10     8     9   ar
    11     9    10    1
    12    10    11    1
    13    11    12   ar
    14    12    13   ar
    15    13    14   ar
    16    14    15    1
    17    14    16   ar
    18    16    17    1
    19    16    18   ar
    20    10     1    1
    21    18    11   ar
    22     9     4   ar
    23    20    21    1
@<TRIPOS>MOLECULE
*****
 21 23 0 0 0
SMALL
GASTEIGER

@<TRIPOS>ATOM
      1 C          -9.3345  -15.6584   21.6677 C.3     1  UNL1        0.0625
      2 C         -10.7956  -15.4215   21.4249 C.3     1  UNL1        0.0210
      3 C         -11.8184  -16.2764   22.1127 C.3     1  UNL1        0.0274
      4 C         -11.3801  -17.3682   23.0433 C.ar    1  UNL1       -0.0257
      5 C         -12.4029  -18.2230   23.7311 C.ar    1  UNL1       -0.0046
      6 C         -11.9645  -19.3147   24.6616 C.ar    1  UNL1       -0.0003
      7 C         -10.5033  -19.5516   24.9043 C.ar    1  UNL1       -0.0003
      8 C          -9.4805  -18.6968   24.2166 C.ar    1  UNL1       -0.0042
      9 C          -9.9189  -17.6050   23.2860 C.ar    1  UNL1       -0.0211
     10 C          -8.8961  -16.7501   22.5982 C.3     1  UNL1        0.0586
     11 C          -7.4350  -16.9870   22.8409 C.ar    1  UNL1       -0.0162
     12 C          -6.6609  -16.0552   23.7257 C.ar    1  UNL1       -0.0030
     13 C          -5.1998  -16.2921   23.9685 C.ar    1  UNL1        0.0119
     14 C          -4.5127  -17.4607   23.3264 C.ar    1  UNL1        0.0682
     15 CL         -3.0515  -17.6976   23.5691 Cl      1  UNL1       -0.0814
     16 C          -5.2867  -18.3924   22.4416 C.ar    1  UNL1        0.0679
     17 CL         -4.5995  -19.5611   21.7996 Cl      1  UNL1       -0.0814
     18 C          -6.7478  -18.1556   22.1989 C.ar    1  UNL1        0.0083
     19 C          -8.7496  -13.7215   20.0378 C.3     1  UNL1        0.0859
     20 N          -8.3117  -14.8035   20.9798 N.3     1  UNL1       -0.2968
     21 H          -7.7643  -14.3521   21.7126 H       1  UNL1        0.1233
@<TRIPOS>BOND
     1    19    20    1
     2     1    20    1
     3     1     2    1
     4     2     3    1
     5     3     4    1
     6     4     5   ar
     7     5     6   ar
     8     6     7   ar
     9     7     8   ar
    10     8     9   ar
    11     9    10    1
    12    10    11    1
    13    11    12   ar
    14    12    13   ar
    15    13    14   ar
    16    14    15    1
    17    14    16   ar
    18    16    17    1
    19    16    18   ar
    20    10     1    1
    21    18    11   ar
    22     9     4   ar
    23    20    21    1
@<TRIPOS>MOLECULE
*****
 21 23 0 0 0
SMALL
GASTEIGER

@<TRIPOS>ATOM
      1 C          -8.9772  -19.6666   19.5955 C.3     1  UNL1        0.0625
      2 C         -10.4510  -19.4396   19.4332 C.3     1  UNL1        0.0210
      3 C         -11.1849  -18.5578   20.3995 C.3     1  UNL1        0.0274
      4 C         -10.4449  -17.9029   21.5281 C.ar    1  UNL1       -0.0257
      5 C         -11.1788  -17.0211   22.4944 C.ar    1  UNL1       -0.0046
      6 C         -10.4389  -16.3663   23.6230 C.ar    1  UNL1       -0.0003
      7 C          -8.9650  -16.5933   23.7852 C.ar    1  UNL1       -0.0003
      8 C          -8.2312  -17.4751   22.8189 C.ar    1  UNL1       -0.0042
      9 C          -8.9711  -18.1299   21.6904 C.ar    1  UNL1       -0.0211
     10 C          -8.2372  -19.0118   20.7240 C.3     1  UNL1        0.0586
     11 C          -6.7634  -19.2388   20.8862 C.ar    1  UNL1       -0.0162
     12 C          -6.2498  -20.0228   22.0574 C.ar    1  UNL1       -0.0030
     13 C          -4.7759  -20.2498   22.2197 C.ar    1  UNL1        0.0119
     14 C          -3.8158  -19.6928   21.2107 C.ar    1  UNL1        0.0682
     15 CL         -2.3419  -19.9198   21.3730 Cl      1  UNL1       -0.0814
     16 C          -4.3294  -18.9088   20.0396 C.ar    1  UNL1        0.0679
     17 CL         -3.3692  -18.3518   19.0307 Cl      1  UNL1       -0.0814
     18 C          -5.8032  -18.6818   19.8774 C.ar    1  UNL1        0.0083
     19 C          -9.0090  -21.4389   17.6959 C.3     1  UNL1        0.0859
     20 N          -8.2433  -20.5485   18.6291 N.3     1  UNL1       -0.2968
     21 H          -7.6706  -19.9362   18.0482 H       1  UNL1        0.1233
@<TRIPOS>BOND
     1    19    20    1
     2     1    20    1
     3     1     2    1
     4     2     3    1
     5     3     4    1
     6     4     5   ar
     7     5     6   ar
     8     6     7   ar
     9     7     8   ar
    10     8     9   ar
    11     9    10    1
    12    10    11    1
    13    11    12   ar
    14    12    13   ar
    15    13    14   ar
    16    14    15    1
    17    14    16   ar
    18    16    17    1
    19    16    18   ar
    20    10     1    1
    21    18    11   ar
    22     9     4   ar
    23    20    21    1
@<TRIPOS>MOLECULE
*****
 21 23 0 0 0
SMALL
GASTEIGER

@<TRIPOS>ATOM
      1 C          -8.1667  -18.6553   21.8474 C.3     1  UNL1        0.0625
      2 C          -8.7429  -19.3218   20.6335 C.3     1  UNL1        0.0210
      3 C         -10.1387  -18.9968   20.1908 C.3     1  UNL1        0.0274
      4 C         -10.9584  -18.0051   20.9621 C.ar    1  UNL1       -0.0257
      5 C         -12.3542  -17.6801   20.5194 C.ar    1  UNL1       -0.0046
      6 C         -13.1738  -16.6885   21.2907 C.ar    1  UNL1       -0.0003
      7 C         -12.5977  -16.0220   22.5046 C.ar    1  UNL1       -0.0003
      8 C         -11.2018  -16.3470   22.9473 C.ar    1  UNL1       -0.0042
      9 C         -10.3822  -17.3386   22.1760 C.ar    1  UNL1       -0.0211
     10 C          -8.9863  -17.6637   22.6187 C.3     1  UNL1        0.0586
     11 C          -8.4102  -16.9971   23.8327 C.ar    1  UNL1       -0.0162
     12 C          -9.1742  -17.0000   25.1236 C.ar    1  UNL1       -0.0030
     13 C          -8.5980  -16.3334   26.3376 C.ar    1  UNL1        0.0119
     14 C          -7.2578  -15.6640   26.2606 C.ar    1  UNL1        0.0682
     15 CL         -6.6816  -14.9975   27.4746 Cl      1  UNL1       -0.0814
     16 C          -6.4939  -15.6612   24.9698 C.ar    1  UNL1        0.0679
     17 CL         -5.1536  -14.9918   24.8929 Cl      1  UNL1       -0.0814
     18 C          -7.0700  -16.3277   23.7558 C.ar    1  UNL1        0.0083
     19 C          -5.9995  -20.0670   21.6015 C.3     1  UNL1        0.0859
     20 N          -6.7708  -18.9803   22.2901 N.3     1  UNL1       -0.2968
     21 H          -6.2243  -18.1246   22.1931 H       1  UNL1        0.1233
@<TRIPOS>BOND
     1    19    20    1
     2     1    20    1
     3     1     2    1
     4     2     3    1
     5     3     4    1
     6     4     5   ar
     7     5     6   ar
     8     6     7   ar
     9     7     8   ar
    10     8     9   ar
    11     9    10    1
    12    10    11    1
    13    11    12   ar
    14    12    13   ar
    15    13    14   ar
    16    14    15    1
    17    14    16   ar
    18    16    17    1
    19    16    18   ar
    20    10     1    1
    21    18    11   ar
    22     9     4   ar
    23    20    21    1
