@<TRIPOS>MOLECULE
*****
 40 45 0 0 0
SMALL
GASTEIGER

@<TRIPOS>ATOM
      1 C           5.4394   -3.3168   22.3172 C.ar    1  UNL1        0.2400
      2 N           4.5118   -2.2084   21.9159 N.ar    1  UNL1       -0.2090
      3 C           3.8632   -1.3561   22.9660 C.ar    1  UNL1        0.1021
      4 C           3.9259   -1.3431   24.5065 C.ar    1  UNL1        0.0207
      5 C           4.7737   -2.4135   23.8855 C.ar    1  UNL1        0.0221
      6 C           5.7184   -3.5728   23.7687 C.ar    1  UNL1        0.1178
      7 N           6.6460   -4.6812   24.1700 N.pl3   1  UNL1       -0.2104
      8 S           7.4446   -5.6049   25.0411 S.O2    1  UNL1        0.0737
      9 O           8.3693   -6.7499   24.7516 O.2     1  UNL1       -0.1499
     10 O           7.6038   -5.8842   23.5759 O.2     1  UNL1       -0.1499
     11 C           8.0180   -6.2327   26.2769 C.ar    1  UNL1        0.1253
     12 C           8.9626   -7.3920   26.1600 C.ar    1  UNL1        0.0202
     13 C           9.5360   -8.0197   27.3958 C.ar    1  UNL1        0.0015
     14 C           9.1647   -7.4882   28.7485 C.ar    1  UNL1        0.0046
     15 C           8.2200   -6.3289   28.8653 C.ar    1  UNL1        0.0547
     16 C           7.6467   -5.7012   27.6295 C.ar    1  UNL1        0.0247
     17 C           7.8765   -5.8106   30.5730 C.2     1  UNL1        0.2461
     18 O           8.6751   -6.7343   31.4441 O.2     1  UNL1       -0.2701
     19 N           7.2277   -4.9582   31.6230 N.am    1  UNL1       -0.2969
     20 C           6.3800   -3.8879   32.2440 C.3     1  UNL1        0.1181
     21 C           5.4353   -2.7285   32.3608 C.ar    1  UNL1        0.0167
     22 C           4.8558   -1.9519   33.5600 C.ar    1  UNL1        0.0962
     23 N           3.9111   -0.7926   33.6768 N.ar    1  UNL1       -0.2425
     24 C           3.3377   -0.1649   32.4410 C.ar    1  UNL1        0.1003
     25 C           3.7090   -0.6964   31.0884 C.ar    1  UNL1        0.0367
     26 C           4.5077   -1.6202   31.9595 C.ar    1  UNL1        0.0020
     27 C           3.1357   -0.0687   29.8526 C.ar    1  UNL1        0.0859
     28 N           2.4870    0.7837   30.9027 N.ar    1  UNL1       -0.2239
     29 C           1.5594    1.8921   30.5013 C.ar    1  UNL1        0.1988
     30 N           1.2804    2.1481   29.0500 N.ar    1  UNL1       -0.2240
     31 C           1.9292    1.2957   27.9998 C.ar    1  UNL1        0.0845
     32 C           1.7292    1.4433   26.3395 C.ar    1  UNL1        0.0192
     33 C           2.3395    0.6345   25.2334 C.ar    1  UNL1        0.0016
     34 C           3.2772   -0.4908   25.5565 C.ar    1  UNL1        0.0017
     35 C           2.9059    0.0407   26.9092 C.ar    1  UNL1        0.0030
     36 C           2.8568    0.1873   28.4011 C.ar    1  UNL1        0.0354
     37 H           6.8897   -5.0300   23.2822 H       1  UNL1        0.1739
     38 H           7.6041   -5.3702   32.4341 H       1  UNL1        0.1501
     39 C           7.3796   -3.7342   20.6405 C.3     1  UNL1        0.2543
     40 O           6.0881   -4.1691   21.2671 O.3     1  UNL1       -0.4553
@<TRIPOS>BOND
     1    39    40    1
     2    40     1    1
     3     1     2   ar
     4     2     3   ar
     5     3     4   ar
     6     4     5   ar
     7     5     6   ar
     8     6     7    1
     9     7     8    1
    10     8     9    2
    11     8    10    2
    12     8    11    1
    13    11    12   ar
    14    12    13   ar
    15    13    14   ar
    16    14    15   ar
    17    15    16   ar
    18    15    17    1
    19    17    18    2
    20    17    19   am
    21    19    20    1
    22    20    21    1
    23    21    22   ar
    24    22    23   ar
    25    23    24   ar
    26    24    25   ar
    27    25    26   ar
    28    25    27    1
    29    27    28   ar
    30    28    29   ar
    31    29    30   ar
    32    30    31   ar
    33    31    32   ar
    34    32    33   ar
    35    33    34   ar
    36    34    35   ar
    37    35    36   ar
    38     6     1   ar
    39    16    11   ar
    40    26    21   ar
    41    36    27   ar
    42    34     4    1
    43    36    31   ar
    44     7    37    1
    45    19    38    1
@<TRIPOS>MOLECULE
*****
 40 45 0 0 0
SMALL
GASTEIGER

@<TRIPOS>ATOM
      1 C           8.3553   -5.3963   28.3229 C.ar    1  UNL1        0.2400
      2 N           8.6813   -5.8603   26.9342 N.ar    1  UNL1       -0.2090
      3 C           7.9571   -5.2748   25.7584 C.ar    1  UNL1        0.1021
      4 C           6.8521   -4.2085   25.6194 C.ar    1  UNL1        0.0207
      5 C           7.2610   -4.4598   27.0406 C.ar    1  UNL1        0.0221
      6 C           7.3051   -4.3466   28.5357 C.ar    1  UNL1        0.1178
      7 N           6.9791   -3.8826   29.9243 N.pl3   1  UNL1       -0.2104
      8 S           6.3223   -3.1236   31.0391 S.O2    1  UNL1        0.0737
      9 O           6.4908   -3.1325   32.5295 O.2     1  UNL1       -0.1499
     10 O           7.3641   -4.0930   31.5134 O.2     1  UNL1       -0.1499
     11 C           5.4140   -2.1612   31.7455 C.ar    1  UNL1        0.1253
     12 C           5.4581   -2.0481   33.2405 C.ar    1  UNL1        0.0202
     13 C           4.5499   -1.0857   33.9469 C.ar    1  UNL1        0.0015
     14 C           3.5975   -0.2366   33.1582 C.ar    1  UNL1        0.0046
     15 C           3.5534   -0.3498   31.6631 C.ar    1  UNL1        0.0547
     16 C           4.4617   -1.3121   30.9568 C.ar    1  UNL1        0.0247
     17 C           2.3459    0.7478   30.8632 C.2     1  UNL1        0.2461
     18 O           1.6891    1.5067   31.9779 O.2     1  UNL1       -0.2701
     19 N           1.6217    1.3332   29.6873 N.am    1  UNL1       -0.2969
     20 C           1.2128    1.5846   28.2662 C.3     1  UNL1        0.1181
     21 C           1.1687    1.4714   26.7711 C.ar    1  UNL1        0.0167
     22 C           0.3349    2.1730   25.6805 C.ar    1  UNL1        0.0962
     23 N           0.2909    2.0597   24.1853 N.ar    1  UNL1       -0.2425
     24 C           1.1991    1.0974   23.4790 C.ar    1  UNL1        0.1003
     25 C           2.1515    0.2483   24.2677 C.ar    1  UNL1        0.0367
     26 C           1.4947    1.0073   25.3824 C.ar    1  UNL1        0.0020
     27 C           3.0597   -0.7140   23.5613 C.ar    1  UNL1        0.0859
     28 N           2.3355   -0.1285   22.3854 N.ar    1  UNL1       -0.2239
     29 C           2.6615   -0.5926   20.9968 C.ar    1  UNL1        0.1988
     30 N           3.7117   -1.6421   20.7839 N.ar    1  UNL1       -0.2240
     31 C           4.4360   -2.2277   21.9599 C.ar    1  UNL1        0.0845
     32 C           5.6324   -3.4040   21.9027 C.ar    1  UNL1        0.0192
     33 C           6.3983   -4.0357   23.0271 C.ar    1  UNL1        0.0016
     34 C           6.1279   -3.6230   24.4437 C.ar    1  UNL1        0.0017
     35 C           5.1755   -2.7739   23.6550 C.ar    1  UNL1        0.0030
     36 C           4.1100   -1.7636   23.3485 C.ar    1  UNL1        0.0354
     37 H           7.6041   -4.4399   30.4420 H       1  UNL1        0.1739
     38 H           1.0255    1.9648   30.1509 H       1  UNL1        0.1501
     39 C           9.5360   -7.4102   29.4631 C.3     1  UNL1        0.2543
     40 O           9.0796   -5.9818   29.4987 O.3     1  UNL1       -0.4553
@<TRIPOS>BOND
     1    39    40    1
     2    40     1    1
     3     1     2   ar
     4     2     3   ar
     5     3     4   ar
     6     4     5   ar
     7     5     6   ar
     8     6     7    1
     9     7     8    1
    10     8     9    2
    11     8    10    2
    12     8    11    1
    13    11    12   ar
    14    12    13   ar
    15    13    14   ar
    16    14    15   ar
    17    15    16   ar
    18    15    17    1
    19    17    18    2
    20    17    19   am
    21    19    20    1
    22    20    21    1
    23    21    22   ar
    24    22    23   ar
    25    23    24   ar
    26    24    25   ar
    27    25    26   ar
    28    25    27    1
    29    27    28   ar
    30    28    29   ar
    31    29    30   ar
    32    30    31   ar
    33    31    32   ar
    34    32    33   ar
    35    33    34   ar
    36    34    35   ar
    37    35    36   ar
    38     6     1   ar
    39    16    11   ar
    40    26    21   ar
    41    36    27   ar
    42    34     4    1
    43    36    31   ar
    44     7    37    1
    45    19    38    1
@<TRIPOS>MOLECULE
*****
 40 45 0 0 0
SMALL
GASTEIGER

@<TRIPOS>ATOM
      1 C           5.2289   -3.2745   21.8958 C.ar    1  UNL1        0.2400
      2 N           4.3118   -2.3848   21.1101 N.ar    1  UNL1       -0.2090
      3 C           3.4546   -1.3783   21.8185 C.ar    1  UNL1        0.1021
      4 C           3.2709   -1.0014   23.3022 C.ar    1  UNL1        0.0207
      5 C           4.2694   -2.0998   23.0867 C.ar    1  UNL1        0.0221
      6 C           5.2887   -3.1577   23.3901 C.ar    1  UNL1        0.1178
      7 N           6.2057   -4.0473   24.1759 N.pl3   1  UNL1       -0.2104
      8 S           6.9100   -4.6615   25.3493 S.O2    1  UNL1        0.0737
      9 O           7.9362   -5.7476   25.4807 O.2     1  UNL1       -0.1499
     10 O           7.3164   -5.2573   24.0340 O.2     1  UNL1       -0.1499
     11 C           7.3166   -4.9262   26.7687 C.ar    1  UNL1        0.1253
     12 C           8.3358   -5.9840   27.0721 C.ar    1  UNL1        0.0202
     13 C           8.7423   -6.2486   28.4915 C.ar    1  UNL1        0.0015
     14 C           8.1296   -5.4554   29.6074 C.ar    1  UNL1        0.0046
     15 C           7.1104   -4.3976   29.3040 C.ar    1  UNL1        0.0547
     16 C           6.7038   -4.1330   27.8847 C.ar    1  UNL1        0.0247
     17 C           6.4694   -3.5319   30.7678 C.2     1  UNL1        0.2461
     18 O           7.1736   -4.1460   31.9411 O.2     1  UNL1       -0.2701
     19 N           5.6120   -2.5253   31.4761 N.am    1  UNL1       -0.2969
     20 C           4.6136   -1.4269   31.6917 C.3     1  UNL1        0.1181
     21 C           3.5943   -0.3690   31.3882 C.ar    1  UNL1        0.0167
     22 C           2.7860    0.6056   32.2679 C.ar    1  UNL1        0.0962
     23 N           1.7667    1.6634   31.9645 N.ar    1  UNL1       -0.2425
     24 C           1.3602    1.9280   30.5451 C.ar    1  UNL1        0.1003
     25 C           1.9729    1.1348   29.4291 C.ar    1  UNL1        0.0367
     26 C           2.6772    0.5207   30.6025 C.ar    1  UNL1        0.0020
     27 C           1.5664    1.3994   28.0097 C.ar    1  UNL1        0.0859
     28 N           0.7090    2.4060   28.7182 N.ar    1  UNL1       -0.2239
     29 C          -0.2080    3.2957   27.9324 C.ar    1  UNL1        0.1988
     30 N          -0.2678    3.1788   26.4382 N.ar    1  UNL1       -0.2240
     31 C           0.5896    2.1723   25.7297 C.ar    1  UNL1        0.0845
     32 C           0.6474    1.9095   24.0726 C.ar    1  UNL1        0.0192
     33 C           1.4731    0.9284   23.2944 C.ar    1  UNL1        0.0016
     34 C           2.4136    0.0051   24.0107 C.ar    1  UNL1        0.0017
     35 C           1.8009    0.7983   25.1266 C.ar    1  UNL1        0.0030
     36 C           1.5067    1.2826   26.5155 C.ar    1  UNL1        0.0354
     37 H           6.6079   -4.5680   23.4434 H       1  UNL1        0.1739
     38 H           5.8788   -2.6990   32.4077 H       1  UNL1        0.1501
     39 C           7.4369   -3.8840   20.6697 C.3     1  UNL1        0.2543
     40 O           6.0862   -4.2810   21.1874 O.3     1  UNL1       -0.4553
@<TRIPOS>BOND
     1    39    40    1
     2    40     1    1
     3     1     2   ar
     4     2     3   ar
     5     3     4   ar
     6     4     5   ar
     7     5     6   ar
     8     6     7    1
     9     7     8    1
    10     8     9    2
    11     8    10    2
    12     8    11    1
    13    11    12   ar
    14    12    13   ar
    15    13    14   ar
    16    14    15   ar
    17    15    16   ar
    18    15    17    1
    19    17    18    2
    20    17    19   am
    21    19    20    1
    22    20    21    1
    23    21    22   ar
    24    22    23   ar
    25    23    24   ar
    26    24    25   ar
    27    25    26   ar
    28    25    27    1
    29    27    28   ar
    30    28    29   ar
    31    29    30   ar
    32    30    31   ar
    33    31    32   ar
    34    32    33   ar
    35    33    34   ar
    36    34    35   ar
    37    35    36   ar
    38     6     1   ar
    39    16    11   ar
    40    26    21   ar
    41    36    27   ar
    42    34     4    1
    43    36    31   ar
    44     7    37    1
    45    19    38    1
@<TRIPOS>MOLECULE
*****
 40 45 0 0 0
SMALL
GASTEIGER

@<TRIPOS>ATOM
      1 C           0.5829    2.3801   27.3771 C.ar    1  UNL1        0.2400
      2 N           0.2549    2.5563   25.9241 N.ar    1  UNL1       -0.2090
      3 C           0.9472    1.7167   24.8917 C.ar    1  UNL1        0.1021
      4 C           2.0176    0.6099   24.9715 C.ar    1  UNL1        0.0207
      5 C           1.6333    1.1635   26.3116 C.ar    1  UNL1        0.0221
      6 C           1.6033    1.3642   27.7978 C.ar    1  UNL1        0.1178
      7 N           1.9313    1.1880   29.2508 N.pl3   1  UNL1       -0.2104
      8 S           2.5778    0.6561   30.4954 S.O2    1  UNL1        0.0737
      9 O           2.4272    0.9793   31.9524 O.2     1  UNL1       -0.1499
     10 O           1.5715    1.7357   30.7635 O.2     1  UNL1       -0.1499
     11 C           3.4647   -0.1675   31.3816 C.ar    1  UNL1        0.1253
     12 C           3.4348    0.0333   32.8678 C.ar    1  UNL1        0.0202
     13 C           4.3216   -0.7903   33.7538 C.ar    1  UNL1        0.0015
     14 C           5.2385   -1.8146   33.1537 C.ar    1  UNL1        0.0046
     15 C           5.2685   -2.0154   31.6675 C.ar    1  UNL1        0.0547
     16 C           4.3816   -1.1918   30.7815 C.ar    1  UNL1        0.0247
     17 C           6.4327   -3.2932   31.1067 C.2     1  UNL1        0.2461
     18 O           7.0792   -3.8251   32.3513 O.2     1  UNL1       -0.2701
     19 N           7.1250   -4.1327   30.0743 N.am    1  UNL1       -0.2969
     20 C           7.5094   -4.6863   28.7342 C.3     1  UNL1        0.1181
     21 C           7.5394   -4.8870   27.2480 C.ar    1  UNL1        0.0167
     22 C           8.3387   -5.8260   26.3225 C.ar    1  UNL1        0.0962
     23 N           8.3686   -6.0267   24.8363 N.ar    1  UNL1       -0.2425
     24 C           7.4817   -5.2032   23.9502 C.ar    1  UNL1        0.1003
     25 C           6.5649   -4.1789   24.5503 C.ar    1  UNL1        0.0367
     26 C           7.2113   -4.7108   25.7949 C.ar    1  UNL1        0.0020
     27 C           5.6780   -3.3553   23.6643 C.ar    1  UNL1        0.0859
     28 N           6.3703   -4.1949   22.6318 N.ar    1  UNL1       -0.2239
     29 C           6.0423   -4.0186   21.1788 C.ar    1  UNL1        0.1988
     30 N           5.0219   -3.0029   20.7581 N.ar    1  UNL1       -0.2240
     31 C           4.3296   -2.1633   21.7905 C.ar    1  UNL1        0.0845
     32 C           3.1688   -0.9866   21.4965 C.ar    1  UNL1        0.0192
     33 C           2.4356   -0.1113   22.4692 C.ar    1  UNL1        0.0016
     34 C           2.7100   -0.2297   23.9392 C.ar    1  UNL1        0.0017
     35 C           3.6268   -1.2540   23.3391 C.ar    1  UNL1        0.0030
     36 C           4.6576   -2.3395   23.2436 C.ar    1  UNL1        0.0354
     37 H           1.3296    1.8603   29.6447 H       1  UNL1        0.1739
     38 H           7.7071   -4.6732   30.6559 H       1  UNL1        0.1501
     39 C           0.4742    4.5400   28.8168 C.3     1  UNL1        0.2543
     40 O          -0.1094    3.2196   28.4094 O.3     1  UNL1       -0.4553
@<TRIPOS>BOND
     1    39    40    1
     2    40     1    1
     3     1     2   ar
     4     2     3   ar
     5     3     4   ar
     6     4     5   ar
     7     5     6   ar
     8     6     7    1
     9     7     8    1
    10     8     9    2
    11     8    10    2
    12     8    11    1
    13    11    12   ar
    14    12    13   ar
    15    13    14   ar
    16    14    15   ar
    17    15    16   ar
    18    15    17    1
    19    17    18    2
    20    17    19   am
    21    19    20    1
    22    20    21    1
    23    21    22   ar
    24    22    23   ar
    25    23    24   ar
    26    24    25   ar
    27    25    26   ar
    28    25    27    1
    29    27    28   ar
    30    28    29   ar
    31    29    30   ar
    32    30    31   ar
    33    31    32   ar
    34    32    33   ar
    35    33    34   ar
    36    34    35   ar
    37    35    36   ar
    38     6     1   ar
    39    16    11   ar
    40    26    21   ar
    41    36    27   ar
    42    34     4    1
    43    36    31   ar
    44     7    37    1
    45    19    38    1
@<TRIPOS>MOLECULE
*****
 40 45 0 0 0
SMALL
GASTEIGER

@<TRIPOS>ATOM
      1 C           2.6624    0.9427   32.4599 C.ar    1  UNL1        0.2400
      2 N           3.5363    0.2099   33.4342 N.ar    1  UNL1       -0.2090
      3 C           4.4998   -0.8294   32.9430 C.ar    1  UNL1        0.1021
      4 C           4.8416   -1.3791   31.5437 C.ar    1  UNL1        0.0207
      5 C           3.7812   -0.3183   31.5234 C.ar    1  UNL1        0.0221
      6 C           2.7521    0.6361   30.9942 C.ar    1  UNL1        0.1178
      7 N           1.8783    1.3688   30.0199 N.pl3   1  UNL1       -0.2104
      8 S           1.2651    1.7916   28.7178 S.O2    1  UNL1        0.0737
      9 O           0.2113    2.7952   28.3541 O.2     1  UNL1       -0.1499
     10 O           0.7088    2.5248   29.9023 O.2     1  UNL1       -0.1499
     11 C           0.9865    1.8534   27.2452 C.ar    1  UNL1        0.1253
     12 C          -0.0426    2.8078   26.7160 C.ar    1  UNL1        0.0202
     13 C          -0.3211    2.8696   25.2434 C.ar    1  UNL1        0.0015
     14 C           0.4294    1.9770   24.3000 C.ar    1  UNL1        0.0046
     15 C           1.4586    1.0227   24.8292 C.ar    1  UNL1        0.0547
     16 C           1.7371    0.9609   26.3018 C.ar    1  UNL1        0.0247
     17 C           2.2739    0.0162   23.5544 C.2     1  UNL1        0.2461
     18 O           1.6607    0.4389   22.2524 O.2     1  UNL1       -0.2701
     19 N           3.2374   -1.0232   23.0633 N.am    1  UNL1       -0.2969
     20 C           4.2977   -2.0840   23.0835 C.3     1  UNL1        0.1181
     21 C           5.3268   -3.0384   23.6128 C.ar    1  UNL1        0.0167
     22 C           6.2568   -4.0703   22.9439 C.ar    1  UNL1        0.0962
     23 N           7.2859   -5.0247   23.4732 N.ar    1  UNL1       -0.2425
     24 C           7.5645   -5.0865   24.9458 C.ar    1  UNL1        0.1003
     25 C           6.8139   -4.1939   25.8891 C.ar    1  UNL1        0.0367
     26 C           6.2007   -3.7712   24.5871 C.ar    1  UNL1        0.0020
     27 C           7.0924   -4.2557   27.3617 C.ar    1  UNL1        0.0859
     28 N           8.0560   -5.2952   26.8705 N.ar    1  UNL1       -0.2239
     29 C           8.9298   -6.0279   27.8450 C.ar    1  UNL1        0.1988
     30 N           8.8402   -5.7213   29.3105 N.ar    1  UNL1       -0.2240
     31 C           7.8766   -4.6819   29.8017 C.ar    1  UNL1        0.0845
     32 C           7.6482   -4.2166   31.3985 C.ar    1  UNL1        0.0192
     33 C           6.7104   -3.1920   31.9647 C.ar    1  UNL1        0.0016
     34 C           5.8051   -2.4185   31.0525 C.ar    1  UNL1        0.0017
     35 C           6.5556   -3.3110   30.1091 C.ar    1  UNL1        0.0030
     36 C           7.0027   -3.9491   28.8273 C.ar    1  UNL1        0.0354
     37 H           1.3856    1.9547   30.6391 H       1  UNL1        0.1739
     38 H           3.0546   -0.9826   22.0968 H       1  UNL1        0.1501
     39 C           2.1269    2.9658   33.9994 C.3     1  UNL1        0.2543
     40 O           1.6989    1.9821   32.9511 O.3     1  UNL1       -0.4553
@<TRIPOS>BOND
     1    39    40    1
     2    40     1    1
     3     1     2   ar
     4     2     3   ar
     5     3     4   ar
     6     4     5   ar
     7     5     6   ar
     8     6     7    1
     9     7     8    1
    10     8     9    2
    11     8    10    2
    12     8    11    1
    13    11    12   ar
    14    12    13   ar
    15    13    14   ar
    16    14    15   ar
    17    15    16   ar
    18    15    17    1
    19    17    18    2
    20    17    19   am
    21    19    20    1
    22    20    21    1
    23    21    22   ar
    24    22    23   ar
    25    23    24   ar
    26    24    25   ar
    27    25    26   ar
    28    25    27    1
    29    27    28   ar
    30    28    29   ar
    31    29    30   ar
    32    30    31   ar
    33    31    32   ar
    34    32    33   ar
    35    33    34   ar
    36    34    35   ar
    37    35    36   ar
    38     6     1   ar
    39    16    11   ar
    40    26    21   ar
    41    36    27   ar
    42    34     4    1
    43    36    31   ar
    44     7    37    1
    45    19    38    1
@<TRIPOS>MOLECULE
*****
 40 45 0 0 0
SMALL
GASTEIGER

@<TRIPOS>ATOM
      1 C          -0.8422    3.0369   24.0249 C.ar    1  UNL1        0.2400
      2 N          -1.1064    3.2189   22.5596 N.ar    1  UNL1       -0.2090
      3 C          -0.2972    2.4581   21.5515 C.ar    1  UNL1        0.1021
      4 C           0.8510    1.4358   21.6693 C.ar    1  UNL1        0.0207
      5 C           0.3547    1.9287   22.9963 C.ar    1  UNL1        0.0221
      6 C           0.2312    2.0941   24.4820 C.ar    1  UNL1        0.1178
      7 N           0.4954    1.9121   25.9473 N.pl3   1  UNL1       -0.2104
      8 S           1.1154    1.4047   27.2154 S.O2    1  UNL1        0.0737
      9 O           0.8637    1.6835   28.6676 O.2     1  UNL1       -0.1499
     10 O           0.0150    2.3972   27.4478 O.2     1  UNL1       -0.1499
     11 C           2.0164    0.6330   28.1335 C.ar    1  UNL1        0.1253
     12 C           1.8930    0.7984   29.6192 C.ar    1  UNL1        0.0202
     13 C           2.7940    0.0268   30.5371 C.ar    1  UNL1        0.0015
     14 C           3.8185   -0.9102   29.9694 C.ar    1  UNL1        0.0046
     15 C           3.9420   -1.0757   28.4837 C.ar    1  UNL1        0.0547
     16 C           3.0409   -0.3040   27.5657 C.ar    1  UNL1        0.0247
     17 C           5.2306   -2.2471   27.9640 C.2     1  UNL1        0.2461
     18 O           5.8506   -2.7545   29.2321 O.2     1  UNL1       -0.2701
     19 N           6.0397   -3.0079   26.9558 N.am    1  UNL1       -0.2969
     20 C           6.5360   -3.5007   25.6289 C.3     1  UNL1        0.1181
     21 C           6.6595   -3.6661   24.1431 C.ar    1  UNL1        0.0167
     22 C           7.5773   -4.5200   23.2457 C.ar    1  UNL1        0.0962
     23 N           7.7008   -4.6854   21.7599 N.ar    1  UNL1       -0.2425
     24 C           6.7998   -3.9138   20.8420 C.ar    1  UNL1        0.1003
     25 C           5.7753   -2.9767   21.4097 C.ar    1  UNL1        0.0367
     26 C           6.3953   -3.4842   22.6778 C.ar    1  UNL1        0.0020
     27 C           4.8743   -2.2051   20.4918 C.ar    1  UNL1        0.0859
     28 N           5.6835   -2.9659   19.4835 N.ar    1  UNL1       -0.2239
     29 C           5.4192   -2.7839   18.0183 C.ar    1  UNL1        0.1988
     30 N           4.3459   -1.8411   17.5611 N.ar    1  UNL1       -0.2240
     31 C           3.5367   -1.0803   18.5693 C.ar    1  UNL1        0.0845
     32 C           2.3043    0.0092   18.2339 C.ar    1  UNL1        0.0192
     33 C           1.4547    0.8039   19.1809 C.ar    1  UNL1        0.0016
     34 C           1.6601    0.6750   20.6612 C.ar    1  UNL1        0.0017
     35 C           2.6846   -0.2620   20.0935 C.ar    1  UNL1        0.0030
     36 C           3.8008   -1.2623   20.0346 C.ar    1  UNL1        0.0354
     37 H          -0.1770    2.5271   26.3199 H       1  UNL1        0.1739
     38 H           6.6311   -3.5143   27.5583 H       1  UNL1        0.1501
     39 C          -3.1481    3.8140   24.9354 C.3     1  UNL1        0.2543
     40 O          -1.6514    3.7977   25.0330 O.3     1  UNL1       -0.4553
@<TRIPOS>BOND
     1    39    40    1
     2    40     1    1
     3     1     2   ar
     4     2     3   ar
     5     3     4   ar
     6     4     5   ar
     7     5     6   ar
     8     6     7    1
     9     7     8    1
    10     8     9    2
    11     8    10    2
    12     8    11    1
    13    11    12   ar
    14    12    13   ar
    15    13    14   ar
    16    14    15   ar
    17    15    16   ar
    18    15    17    1
    19    17    18    2
    20    17    19   am
    21    19    20    1
    22    20    21    1
    23    21    22   ar
    24    22    23   ar
    25    23    24   ar
    26    24    25   ar
    27    25    26   ar
    28    25    27    1
    29    27    28   ar
    30    28    29   ar
    31    29    30   ar
    32    30    31   ar
    33    31    32   ar
    34    32    33   ar
    35    33    34   ar
    36    34    35   ar
    37    35    36   ar
    38     6     1   ar
    39    16    11   ar
    40    26    21   ar
    41    36    27   ar
    42    34     4    1
    43    36    31   ar
    44     7    37    1
    45    19    38    1
@<TRIPOS>MOLECULE
*****
 40 45 0 0 0
SMALL
GASTEIGER

@<TRIPOS>ATOM
      1 C           0.9051    1.6032   23.9305 C.ar    1  UNL1        0.2400
      2 N           1.2580    1.0731   22.5724 N.ar    1  UNL1       -0.2090
      3 C           2.2870   -0.0095   22.4340 C.ar    1  UNL1        0.1021
      4 C           3.1527   -0.7833   23.4484 C.ar    1  UNL1        0.0207
      5 C           2.2495    0.2297   24.0875 C.ar    1  UNL1        0.0221
      6 C           1.5813    1.0507   25.1502 C.ar    1  UNL1        0.1178
      7 N           1.2284    1.5808   26.5083 N.pl3   1  UNL1       -0.2104
      8 S           1.2335    1.7560   27.9980 S.O2    1  UNL1        0.0737
      9 O           0.4764    2.6534   28.9315 O.2     1  UNL1       -0.1499
     10 O           0.2712    2.6677   27.2958 O.2     1  UNL1       -0.1499
     11 C           1.5960    1.5553   29.4397 C.ar    1  UNL1        0.1253
     12 C           0.9277    2.3763   30.5024 C.ar    1  UNL1        0.0202
     13 C           1.2902    2.1756   31.9440 C.ar    1  UNL1        0.0015
     14 C           2.3209    1.1539   32.3229 C.ar    1  UNL1        0.0046
     15 C           2.9892    0.3329   31.2602 C.ar    1  UNL1        0.0547
     16 C           2.6267    0.5336   29.8186 C.ar    1  UNL1        0.0247
     17 C           4.2110   -0.8566   31.8889 C.2     1  UNL1        0.2461
     18 O           4.2161   -0.6813   33.3786 O.2     1  UNL1       -0.2701
     19 N           5.2400   -1.9392   31.7504 N.am    1  UNL1       -0.2969
     20 C           6.1431   -2.9521   31.1114 C.3     1  UNL1        0.1181
     21 C           6.8114   -3.7731   30.0486 C.ar    1  UNL1        0.0167
     22 C           7.8841   -4.8799   30.0841 C.ar    1  UNL1        0.0962
     23 N           8.5524   -5.7009   29.0214 N.ar    1  UNL1       -0.2425
     24 C           8.1899   -5.5002   27.5798 C.ar    1  UNL1        0.1003
     25 C           7.1591   -4.4785   27.2008 C.ar    1  UNL1        0.0367
     26 C           7.1643   -4.3032   28.6905 C.ar    1  UNL1        0.0020
     27 C           6.7967   -4.2777   25.7592 C.ar    1  UNL1        0.0859
     28 N           7.8257   -5.3604   25.6207 N.ar    1  UNL1       -0.2239
     29 C           8.1785   -5.8904   24.2626 C.ar    1  UNL1        0.1988
     30 N           7.5025   -5.3380   23.0429 N.ar    1  UNL1       -0.2240
     31 C           6.4734   -4.2553   23.1814 C.ar    1  UNL1        0.0845
     32 C           5.6244   -3.5277   21.9292 C.ar    1  UNL1        0.0192
     33 C           4.5869   -2.4459   21.9874 C.ar    1  UNL1        0.0016
     34 C           4.1816   -1.8658   23.3100 C.ar    1  UNL1        0.0017
     35 C           5.2124   -2.8876   23.6889 C.ar    1  UNL1        0.0030
     36 C           6.1205   -3.7252   24.5395 C.ar    1  UNL1        0.0354
     37 H           0.5519    2.2514   26.2596 H       1  UNL1        0.1739
     38 H           5.4779   -2.0709   32.6966 H       1  UNL1        0.1501
     39 C          -0.8758    3.1645   22.8626 C.3     1  UNL1        0.2543
     40 O          -0.1238    2.6858   24.0689 O.3     1  UNL1       -0.4553
@<TRIPOS>BOND
     1    39    40    1
     2    40     1    1
     3     1     2   ar
     4     2     3   ar
     5     3     4   ar
     6     4     5   ar
     7     5     6   ar
     8     6     7    1
     9     7     8    1
    10     8     9    2
    11     8    10    2
    12     8    11    1
    13    11    12   ar
    14    12    13   ar
    15    13    14   ar
    16    14    15   ar
    17    15    16   ar
    18    15    17    1
    19    17    18    2
    20    17    19   am
    21    19    20    1
    22    20    21    1
    23    21    22   ar
    24    22    23   ar
    25    23    24   ar
    26    24    25   ar
    27    25    26   ar
    28    25    27    1
    29    27    28   ar
    30    28    29   ar
    31    29    30   ar
    32    30    31   ar
    33    31    32   ar
    34    32    33   ar
    35    33    34   ar
    36    34    35   ar
    37    35    36   ar
    38     6     1   ar
    39    16    11   ar
    40    26    21   ar
    41    36    27   ar
    42    34     4    1
    43    36    31   ar
    44     7    37    1
    45    19    38    1
@<TRIPOS>MOLECULE
*****
 40 45 0 0 0
SMALL
GASTEIGER

@<TRIPOS>ATOM
      1 C           7.1234   -4.6514   24.1717 C.ar    1  UNL1        0.2400
      2 N           6.9372   -4.7683   22.6879 N.ar    1  UNL1       -0.2090
      3 C           5.9213   -3.9135   21.9899 C.ar    1  UNL1        0.1021
      4 C           4.9267   -2.8406   22.4764 C.ar    1  UNL1        0.0207
      5 C           5.7542   -3.4288   23.5805 C.ar    1  UNL1        0.0221
      6 C           6.2937   -3.6796   24.9575 C.ar    1  UNL1        0.1178
      7 N           6.4799   -3.5627   26.4413 N.pl3   1  UNL1       -0.2104
      8 S           6.2904   -3.0922   27.8529 S.O2    1  UNL1        0.0737
      9 O           6.9350   -3.4609   29.1561 O.2     1  UNL1       -0.1499
     10 O           7.3434   -4.1517   27.7161 O.2     1  UNL1       -0.1499
     11 C           5.7481   -2.3248   29.0221 C.ar    1  UNL1        0.1253
     12 C           6.2875   -2.5756   30.3991 C.ar    1  UNL1        0.0202
     13 C           5.7453   -1.8082   31.5683 C.ar    1  UNL1        0.0015
     14 C           4.6636   -0.7900   31.3604 C.ar    1  UNL1        0.0046
     15 C           4.1241   -0.5392   29.9835 C.ar    1  UNL1        0.0547
     16 C           4.6664   -1.3066   28.8143 C.ar    1  UNL1        0.0247
     17 C           2.8197    0.7240   29.9076 C.2     1  UNL1        0.2461
     18 O           2.6302    1.1945   31.3192 O.2     1  UNL1       -0.2701
     19 N           1.8038    1.5787   29.2094 N.am    1  UNL1       -0.2969
     20 C           0.9762    2.1670   28.1054 C.3     1  UNL1        0.1181
     21 C           0.4368    2.4178   26.7283 C.ar    1  UNL1        0.0167
     22 C          -0.6445    3.3651   26.1713 C.ar    1  UNL1        0.0962
     23 N          -1.1839    3.6159   24.7943 N.ar    1  UNL1       -0.2425
     24 C          -0.6416    2.8485   23.6251 C.ar    1  UNL1        0.1003
     25 C           0.4401    1.8303   23.8329 C.ar    1  UNL1        0.0367
     26 C           0.2506    2.3009   25.2445 C.ar    1  UNL1        0.0020
     27 C           0.9824    1.0629   22.6638 C.ar    1  UNL1        0.0859
     28 N          -0.0336    1.9177   21.9656 N.ar    1  UNL1       -0.2239
     29 C          -0.2197    1.8008   20.4819 C.ar    1  UNL1        0.1988
     30 N           0.6099    0.8291   19.6961 N.ar    1  UNL1       -0.2240
     31 C           1.6258   -0.0257   20.3942 C.ar    1  UNL1        0.0845
     32 C           2.6331   -1.1585   19.6728 C.ar    1  UNL1        0.0192
     33 C           3.6676   -2.0459   20.2994 C.ar    1  UNL1        0.0016
     34 C           3.9108   -1.9858   21.7784 C.ar    1  UNL1        0.0017
     35 C           2.8291   -0.9676   21.5705 C.ar    1  UNL1        0.0030
     36 C           1.8121    0.0912   21.8780 C.ar    1  UNL1        0.0354
     37 H           7.1899   -4.2310   26.5777 H       1  UNL1        0.1739
     38 H           1.4479    2.0824   29.9768 H       1  UNL1        0.1501
     39 C           8.0360   -7.0010   24.8013 C.3     1  UNL1        0.2543
     40 O           8.1393   -5.5061   24.8698 O.3     1  UNL1       -0.4553
@<TRIPOS>BOND
     1    39    40    1
     2    40     1    1
     3     1     2   ar
     4     2     3   ar
     5     3     4   ar
     6     4     5   ar
     7     5     6   ar
     8     6     7    1
     9     7     8    1
    10     8     9    2
    11     8    10    2
    12     8    11    1
    13    11    12   ar
    14    12    13   ar
    15    13    14   ar
    16    14    15   ar
    17    15    16   ar
    18    15    17    1
    19    17    18    2
    20    17    19   am
    21    19    20    1
    22    20    21    1
    23    21    22   ar
    24    22    23   ar
    25    23    24   ar
    26    24    25   ar
    27    25    26   ar
    28    25    27    1
    29    27    28   ar
    30    28    29   ar
    31    29    30   ar
    32    30    31   ar
    33    31    32   ar
    34    32    33   ar
    35    33    34   ar
    36    34    35   ar
    37    35    36   ar
    38     6     1   ar
    39    16    11   ar
    40    26    21   ar
    41    36    27   ar
    42    34     4    1
    43    36    31   ar
    44     7    37    1
    45    19    38    1
@<TRIPOS>MOLECULE
*****
 40 45 0 0 0
SMALL
GASTEIGER

@<TRIPOS>ATOM
      1 C           0.1969    1.1647   20.8714 C.ar    1  UNL1        0.2400
      2 N           0.6723    0.5638   19.5818 N.ar    1  UNL1       -0.2090
      3 C           1.8353   -0.3834   19.5795 C.ar    1  UNL1        0.1021
      4 C           2.7478   -0.9421   20.6896 C.ar    1  UNL1        0.0207
      5 C           1.6968   -0.0017   21.2006 C.ar    1  UNL1        0.0221
      6 C           0.8847    0.8183   22.1587 C.ar    1  UNL1        0.1178
      7 N           0.4093    1.4192   23.4482 N.pl3   1  UNL1       -0.2104
      8 S           0.3282    1.7284   24.9138 S.O2    1  UNL1        0.0737
      9 O          -0.5762    2.6005   25.7333 O.2     1  UNL1       -0.1499
     10 O          -0.7110    2.4390   24.0982 O.2     1  UNL1       -0.1499
     11 C           0.6509    1.7086   26.3786 C.ar    1  UNL1        0.1253
     12 C          -0.1613    2.5286   27.3366 C.ar    1  UNL1        0.0202
     13 C           0.1615    2.5088   28.8013 C.ar    1  UNL1        0.0015
     14 C           1.2964    1.6690   29.3080 C.ar    1  UNL1        0.0046
     15 C           2.1085    0.8489   28.3499 C.ar    1  UNL1        0.0547
     16 C           1.7858    0.8687   26.8852 C.ar    1  UNL1        0.0247
     17 C           3.4433   -0.1088   29.1270 C.2     1  UNL1        0.2461
     18 O           3.3621    0.2003   30.5925 O.2     1  UNL1       -0.2701
     19 N           4.6063   -1.0561   29.1246 N.am    1  UNL1       -0.2969
     20 C           5.6573   -1.9964   28.6136 C.3     1  UNL1        0.1181
     21 C           6.4695   -2.8165   27.6555 C.ar    1  UNL1        0.0167
     22 C           7.6715   -3.7661   27.8299 C.ar    1  UNL1        0.0962
     23 N           8.4836   -4.5862   26.8718 N.ar    1  UNL1       -0.2425
     24 C           8.1609   -4.5664   25.4071 C.ar    1  UNL1        0.1003
     25 C           7.0260   -3.7265   24.9004 C.ar    1  UNL1        0.0367
     26 C           6.9448   -3.4174   26.3659 C.ar    1  UNL1        0.0020
     27 C           6.7033   -3.7067   23.4357 C.ar    1  UNL1        0.0859
     28 N           7.8664   -4.6540   23.4333 N.ar    1  UNL1       -0.2239
     29 C           8.3417   -5.2548   22.1437 C.ar    1  UNL1        0.1988
     30 N           7.6540   -4.9085   20.8565 N.ar    1  UNL1       -0.2240
     31 C           6.4909   -3.9612   20.8588 C.ar    1  UNL1        0.0845
     32 C           5.6110   -3.4674   19.5171 C.ar    1  UNL1        0.0192
     33 C           4.4430   -2.5295   19.4394 C.ar    1  UNL1        0.0016
     34 C           3.9109   -1.8893   20.6873 C.ar    1  UNL1        0.0017
     35 C           5.0458   -2.7292   21.1939 C.ar    1  UNL1        0.0030
     36 C           6.0155   -3.3603   22.1484 C.ar    1  UNL1        0.0354
     37 H          -0.3355    1.9704   23.1157 H       1  UNL1        0.1739
     38 H           4.8182   -1.0691   30.0859 H       1  UNL1        0.1501
     39 C          -0.7357    3.5830   20.6927 C.3     1  UNL1        0.2543
     40 O          -0.9661    2.1119   20.8737 O.3     1  UNL1       -0.4553
@<TRIPOS>BOND
     1    39    40    1
     2    40     1    1
     3     1     2   ar
     4     2     3   ar
     5     3     4   ar
     6     4     5   ar
     7     5     6   ar
     8     6     7    1
     9     7     8    1
    10     8     9    2
    11     8    10    2
    12     8    11    1
    13    11    12   ar
    14    12    13   ar
    15    13    14   ar
    16    14    15   ar
    17    15    16   ar
    18    15    17    1
    19    17    18    2
    20    17    19   am
    21    19    20    1
    22    20    21    1
    23    21    22   ar
    24    22    23   ar
    25    23    24   ar
    26    24    25   ar
    27    25    26   ar
    28    25    27    1
    29    27    28   ar
    30    28    29   ar
    31    29    30   ar
    32    30    31   ar
    33    31    32   ar
    34    32    33   ar
    35    33    34   ar
    36    34    35   ar
    37    35    36   ar
    38     6     1   ar
    39    16    11   ar
    40    26    21   ar
    41    36    27   ar
    42    34     4    1
    43    36    31   ar
    44     7    37    1
    45    19    38    1
