@<TRIPOS>MOLECULE
*****
 36 40 0 0 0
SMALL
GASTEIGER

@<TRIPOS>ATOM
      1 C           1.1369    2.9872   18.8206 C.3     1  UNL1        0.1336
      2 N           1.3019    2.3267   20.1572 N.ar    1  UNL1       -0.2922
      3 C           0.7184    2.9615   21.3846 C.ar    1  UNL1        0.2783
      4 O          -0.0302    4.2569   21.2754 O.2     1  UNL1       -0.2653
      5 C           0.8834    2.3011   22.7212 C.ar    1  UNL1        0.1370
      6 C           1.6319    1.0058   22.8305 C.ar    1  UNL1        0.1060
      7 N           1.6334    0.5914   24.2721 N.ar    1  UNL1       -0.2134
      8 C           0.8858    1.6307   25.0538 C.ar    1  UNL1        0.2015
      9 N           0.4223    2.6873   24.0954 N.ar    1  UNL1       -0.2915
     10 C           2.2154    0.3709   21.6031 C.ar    1  UNL1        0.0352
     11 C           2.9639   -0.9244   21.7123 C.ar    1  UNL1        0.0030
     12 C           3.5474   -1.5592   20.4850 C.ar    1  UNL1        0.0013
     13 C           3.3825   -0.8987   19.1483 C.ar    1  UNL1        0.0154
     14 C           2.6340    0.3966   19.0391 C.ar    1  UNL1        0.0184
     15 C           2.0504    1.0314   20.2665 C.ar    1  UNL1        0.0641
     16 N           0.6441    1.6158   26.5342 N.pl3   1  UNL1       -0.2782
     17 C           1.6100    2.2960   27.4586 C.3     1  UNL1        0.0937
     18 C           1.3684    2.2813   28.9389 C.3     1  UNL1        0.0229
     19 C           0.1610    1.5863   29.4949 C.3     1  UNL1        0.0190
     20 C          -0.8048    0.9060   28.5705 C.3     1  UNL1        0.0710
     21 N          -2.0123    0.2110   29.1265 N.3     1  UNL1       -0.3208
     22 C          -0.5633    0.9208   27.0902 C.3     1  UNL1        0.1089
     23 H          -2.0179    0.2998   30.1426 H       1  UNL1        0.1189
     24 H          -1.9838   -0.7762   28.8716 H       1  UNL1        0.1189
     25 C           3.9660   -1.5336   17.9209 C.2     1  UNL1        0.0729
     26 O           4.7962   -2.7770   18.0422 O.co2   1  UNL1       -0.5446
     27 O           3.7194   -0.9250   16.5723 O.co2   1  UNL1       -0.5446
     28 C          -0.3643    3.9147   24.4489 C.3     1  UNL1        0.1365
     29 C          -1.8294    3.8052   24.7516 C.ar    1  UNL1        0.0133
     30 C          -2.7937    3.4303   23.6655 C.ar    1  UNL1        0.0281
     31 C          -4.2587    3.3208   23.9681 C.ar    1  UNL1        0.1399
     32 F          -5.2230    2.9459   22.8820 F       1  UNL1       -0.2042
     33 C          -4.7594    3.5862   25.3569 C.ar    1  UNL1        0.0305
     34 C          -3.7952    3.9611   26.4431 C.ar    1  UNL1        0.0134
     35 C          -2.3301    4.0706   26.1404 C.ar    1  UNL1        0.0557
     36 CL         -1.3658    4.4455   27.2265 Cl      1  UNL1       -0.0825
@<TRIPOS>UNITY_ATOM_ATTR
26 1
charge -1
@<TRIPOS>BOND
     1     1     2    1
     2     2     3   ar
     3     3     4    2
     4     3     5   ar
     5     5     6   ar
     6     6     7   ar
     7     7     8   ar
     8     8    16    1
     9    16    17    1
    10    17    18    1
    11    18    19    1
    12    19    20    1
    13    20    21    1
    14    20    22    1
    15     8     9   ar
    16     9    28    1
    17    28    29    1
    18    29    30   ar
    19    30    31   ar
    20    31    32    1
    21    31    33   ar
    22    33    34   ar
    23    34    35   ar
    24    35    36    1
    25     6    10   ar
    26    10    11   ar
    27    11    12   ar
    28    12    13   ar
    29    13    25    1
    30    25    26   ar
    31    25    27   ar
    32    13    14   ar
    33    14    15   ar
    34    15     2   ar
    35     9     5   ar
    36    35    29   ar
    37    15    10   ar
    38    22    16    1
    39    21    23    1
    40    21    24    1
@<TRIPOS>MOLECULE
*****
 36 40 0 0 0
SMALL
GASTEIGER

@<TRIPOS>ATOM
      1 C           1.5254    0.1107   20.3138 C.3     1  UNL1        0.1336
      2 N           2.2447   -0.2654   21.5751 N.ar    1  UNL1       -0.2922
      3 C           1.9642    0.4766   22.8482 C.ar    1  UNL1        0.2783
      4 O           0.9643    1.5947   22.8600 O.2     1  UNL1       -0.2653
      5 C           2.6835    0.1004   24.1096 C.ar    1  UNL1        0.1370
      6 C           3.6833   -1.0176   24.0979 C.ar    1  UNL1        0.1060
      7 N           4.2333   -1.1623   25.4859 N.ar    1  UNL1       -0.2134
      8 C           3.5733   -0.1336   26.3555 C.ar    1  UNL1        0.2015
      9 N           2.6155    0.6468   25.5049 N.ar    1  UNL1       -0.2915
     10 C           3.9639   -1.7597   22.8248 C.ar    1  UNL1        0.0352
     11 C           4.9637   -2.8777   22.8131 C.ar    1  UNL1        0.0030
     12 C           5.2443   -3.6197   21.5400 C.ar    1  UNL1        0.0013
     13 C           4.5249   -3.2436   20.2787 C.ar    1  UNL1        0.0154
     14 C           3.5251   -2.1255   20.2903 C.ar    1  UNL1        0.0184
     15 C           3.2446   -1.3835   21.5634 C.ar    1  UNL1        0.0641
     16 N           3.8266    0.0777   27.8188 N.pl3   1  UNL1       -0.2782
     17 C           4.8652    1.0635   28.2655 C.3     1  UNL1        0.0937
     18 C           5.1186    1.2747   29.7288 C.3     1  UNL1        0.0229
     19 C           4.3334    0.5001   30.7453 C.3     1  UNL1        0.0190
     20 C           3.2949   -0.4857   30.2986 C.3     1  UNL1        0.0710
     21 N           2.5097   -1.2603   31.3153 N.3     1  UNL1       -0.3208
     22 C           3.0415   -0.6970   28.8354 C.3     1  UNL1        0.1089
     23 H           2.8099   -0.9928   32.2527 H       1  UNL1        0.1189
     24 H           2.6688   -2.2586   31.1793 H       1  UNL1        0.1189
     25 C           4.8055   -3.9856   19.0055 C.2     1  UNL1        0.0729
     26 O           4.5650   -5.4643   18.9307 O.co2   1  UNL1       -0.5446
     27 O           5.3265   -3.2489   17.8073 O.co2   1  UNL1       -0.5446
     28 C           1.7428    1.7755   25.9682 C.3     1  UNL1        0.1365
     29 C           1.0544    1.6940   27.2984 C.ar    1  UNL1        0.0133
     30 C          -0.0401    0.6916   27.5163 C.ar    1  UNL1        0.0281
     31 C          -0.7285    0.6101   28.8465 C.ar    1  UNL1        0.1399
     32 F          -1.8229   -0.3923   29.0645 F       1  UNL1       -0.2042
     33 C          -0.3224    1.5310   29.9588 C.ar    1  UNL1        0.0305
     34 C           0.7720    2.5333   29.7409 C.ar    1  UNL1        0.0134
     35 C           1.4604    2.6149   28.4106 C.ar    1  UNL1        0.0557
     36 CL          2.5549    3.6172   28.1927 Cl      1  UNL1       -0.0825
@<TRIPOS>UNITY_ATOM_ATTR
26 1
charge -1
@<TRIPOS>BOND
     1     1     2    1
     2     2     3   ar
     3     3     4    2
     4     3     5   ar
     5     5     6   ar
     6     6     7   ar
     7     7     8   ar
     8     8    16    1
     9    16    17    1
    10    17    18    1
    11    18    19    1
    12    19    20    1
    13    20    21    1
    14    20    22    1
    15     8     9   ar
    16     9    28    1
    17    28    29    1
    18    29    30   ar
    19    30    31   ar
    20    31    32    1
    21    31    33   ar
    22    33    34   ar
    23    34    35   ar
    24    35    36    1
    25     6    10   ar
    26    10    11   ar
    27    11    12   ar
    28    12    13   ar
    29    13    25    1
    30    25    26   ar
    31    25    27   ar
    32    13    14   ar
    33    14    15   ar
    34    15     2   ar
    35     9     5   ar
    36    35    29   ar
    37    15    10   ar
    38    22    16    1
    39    21    23    1
    40    21    24    1
@<TRIPOS>MOLECULE
*****
 36 40 0 0 0
SMALL
GASTEIGER

@<TRIPOS>ATOM
      1 C           6.0803   -3.5491   24.2090 C.3     1  UNL1        0.1336
      2 N           5.0138   -2.5233   23.9633 N.ar    1  UNL1       -0.2922
      3 C           4.5272   -1.6623   25.0911 C.ar    1  UNL1        0.2783
      4 O           5.1071   -1.8271   26.4646 O.2     1  UNL1       -0.2653
      5 C           3.4607   -0.6366   24.8453 C.ar    1  UNL1        0.1370
      6 C           2.8808   -0.4718   23.4719 C.ar    1  UNL1        0.1060
      7 N           1.8488    0.6151   23.5317 N.ar    1  UNL1       -0.2134
      8 C           1.7909    1.1221   24.9423 C.ar    1  UNL1        0.2015
      9 N           2.7871    0.3485   25.7541 N.ar    1  UNL1       -0.2915
     10 C           3.3674   -1.3328   22.3440 C.ar    1  UNL1        0.0352
     11 C           2.7875   -1.1680   20.9705 C.ar    1  UNL1        0.0030
     12 C           3.2741   -2.0289   19.8427 C.ar    1  UNL1        0.0013
     13 C           4.3406   -3.0547   20.0885 C.ar    1  UNL1        0.0154
     14 C           4.9205   -3.2195   21.4619 C.ar    1  UNL1        0.0184
     15 C           4.4339   -2.3585   22.5897 C.ar    1  UNL1        0.0641
     16 N           0.8941    2.2114   25.4515 N.pl3   1  UNL1       -0.2782
     17 C          -0.5456    1.9180   25.7531 C.3     1  UNL1        0.0937
     18 C          -1.4424    3.0072   26.2623 C.3     1  UNL1        0.0229
     19 C          -0.8993    4.3899   26.4700 C.3     1  UNL1        0.0190
     20 C           0.5405    4.6834   26.1684 C.3     1  UNL1        0.0710
     21 N           1.0835    6.0662   26.3762 N.3     1  UNL1       -0.3208
     22 C           1.4372    3.5941   25.6592 C.3     1  UNL1        0.1089
     23 H           0.3418    6.6742   26.7233 H       1  UNL1        0.1189
     24 H           1.4348    6.4301   25.4904 H       1  UNL1        0.1189
     25 C           4.8272   -3.9157   18.9606 C.2     1  UNL1        0.0729
     26 O           5.4744   -3.2869   17.7624 O.co2   1  UNL1       -0.5446
     27 O           4.6666   -5.4053   19.0310 O.co2   1  UNL1       -0.5446
     28 C           3.0615    0.5284   27.2179 C.3     1  UNL1        0.1365
     29 C           1.9342    0.8277   28.1611 C.ar    1  UNL1        0.0133
     30 C           0.7851   -0.1286   28.2839 C.ar    1  UNL1        0.0281
     31 C          -0.3422    0.1707   29.2271 C.ar    1  UNL1        0.1399
     32 F          -1.4913   -0.7855   29.3499 F       1  UNL1       -0.2042
     33 C          -0.3203    1.4263   30.0474 C.ar    1  UNL1        0.0305
     34 C           0.8288    2.3826   29.9246 C.ar    1  UNL1        0.0134
     35 C           1.9561    2.0833   28.9814 C.ar    1  UNL1        0.0557
     36 CL          3.1052    3.0395   28.8586 Cl      1  UNL1       -0.0825
@<TRIPOS>UNITY_ATOM_ATTR
26 1
charge -1
@<TRIPOS>BOND
     1     1     2    1
     2     2     3   ar
     3     3     4    2
     4     3     5   ar
     5     5     6   ar
     6     6     7   ar
     7     7     8   ar
     8     8    16    1
     9    16    17    1
    10    17    18    1
    11    18    19    1
    12    19    20    1
    13    20    21    1
    14    20    22    1
    15     8     9   ar
    16     9    28    1
    17    28    29    1
    18    29    30   ar
    19    30    31   ar
    20    31    32    1
    21    31    33   ar
    22    33    34   ar
    23    34    35   ar
    24    35    36    1
    25     6    10   ar
    26    10    11   ar
    27    11    12   ar
    28    12    13   ar
    29    13    25    1
    30    25    26   ar
    31    25    27   ar
    32    13    14   ar
    33    14    15   ar
    34    15     2   ar
    35     9     5   ar
    36    35    29   ar
    37    15    10   ar
    38    22    16    1
    39    21    23    1
    40    21    24    1
@<TRIPOS>MOLECULE
*****
 36 40 0 0 0
SMALL
GASTEIGER

@<TRIPOS>ATOM
      1 C           6.2174   -2.6377   27.8547 C.3     1  UNL1        0.1336
      2 N           5.3586   -1.8867   26.8808 N.ar    1  UNL1       -0.2922
      3 C           5.6455   -1.9672   25.4107 C.ar    1  UNL1        0.2783
      4 O           6.7912   -2.7986   24.9145 O.2     1  UNL1       -0.2653
      5 C           4.7867   -1.2163   24.4367 C.ar    1  UNL1        0.1370
      6 C           3.6410   -0.3849   24.9328 C.ar    1  UNL1        0.1060
      7 N           2.9729    0.2401   23.7442 N.ar    1  UNL1       -0.2134
      8 C           3.7057   -0.2050   22.5134 C.ar    1  UNL1        0.2015
      9 N           4.8267   -1.1051   22.9414 N.ar    1  UNL1       -0.2915
     10 C           3.3541   -0.3044   26.4030 C.ar    1  UNL1        0.0352
     11 C           2.2084    0.5269   26.8991 C.ar    1  UNL1        0.0030
     12 C           1.9215    0.6074   28.3692 C.ar    1  UNL1        0.0013
     13 C           2.7803   -0.1435   29.3431 C.ar    1  UNL1        0.0154
     14 C           3.9260   -0.9749   28.8470 C.ar    1  UNL1        0.0184
     15 C           4.2129   -1.0553   27.3769 C.ar    1  UNL1        0.0641
     16 N           3.3755    0.1821   21.1023 N.pl3   1  UNL1       -0.2782
     17 C           2.3100   -0.5596   20.3509 C.3     1  UNL1        0.0937
     18 C           1.9797   -0.1726   18.9399 C.3     1  UNL1        0.0229
     19 C           2.7150    0.9562   18.2802 C.3     1  UNL1        0.0190
     20 C           3.7805    1.6979   19.0315 C.3     1  UNL1        0.0710
     21 N           4.5158    2.8267   18.3718 N.3     1  UNL1       -0.3208
     22 C           4.1108    1.3109   20.4426 C.3     1  UNL1        0.1089
     23 H           4.1658    2.9513   17.4218 H       1  UNL1        0.1189
     24 H           5.5124    2.6117   18.3415 H       1  UNL1        0.1189
     25 C           2.4934   -0.0630   30.8133 C.2     1  UNL1        0.0729
     26 O           1.5522    0.9806   31.3377 O.co2   1  UNL1       -0.5446
     27 O           3.1476   -1.0261   31.7590 O.co2   1  UNL1       -0.5446
     28 C           5.8143   -1.7762   22.0334 C.3     1  UNL1        0.1365
     29 C           5.3304   -2.6329   20.9012 C.ar    1  UNL1        0.0133
     30 C           4.4619   -3.8237   21.1797 C.ar    1  UNL1        0.0281
     31 C           3.9780   -4.6803   20.0475 C.ar    1  UNL1        0.1399
     32 F           3.1094   -5.8711   20.3260 F       1  UNL1       -0.2042
     33 C           4.3627   -4.3461   18.6367 C.ar    1  UNL1        0.0305
     34 C           5.2313   -3.1553   18.3582 C.ar    1  UNL1        0.0134
     35 C           5.7152   -2.2987   19.4904 C.ar    1  UNL1        0.0557
     36 CL          6.5837   -1.1079   19.2119 Cl      1  UNL1       -0.0825
@<TRIPOS>UNITY_ATOM_ATTR
26 1
charge -1
@<TRIPOS>BOND
     1     1     2    1
     2     2     3   ar
     3     3     4    2
     4     3     5   ar
     5     5     6   ar
     6     6     7   ar
     7     7     8   ar
     8     8    16    1
     9    16    17    1
    10    17    18    1
    11    18    19    1
    12    19    20    1
    13    20    21    1
    14    20    22    1
    15     8     9   ar
    16     9    28    1
    17    28    29    1
    18    29    30   ar
    19    30    31   ar
    20    31    32    1
    21    31    33   ar
    22    33    34   ar
    23    34    35   ar
    24    35    36    1
    25     6    10   ar
    26    10    11   ar
    27    11    12   ar
    28    12    13   ar
    29    13    25    1
    30    25    26   ar
    31    25    27   ar
    32    13    14   ar
    33    14    15   ar
    34    15     2   ar
    35     9     5   ar
    36    35    29   ar
    37    15    10   ar
    38    22    16    1
    39    21    23    1
    40    21    24    1
@<TRIPOS>MOLECULE
*****
 36 40 0 0 0
SMALL
GASTEIGER

@<TRIPOS>ATOM
      1 C           6.5087   -1.0771   28.5011 C.3     1  UNL1        0.1336
      2 N           6.4231   -1.8940   27.2460 N.ar    1  UNL1       -0.2922
      3 C           6.0339   -1.2425   25.9522 C.ar    1  UNL1        0.2783
      4 O           5.7303    0.2260   25.9134 O.2     1  UNL1       -0.2653
      5 C           5.9482   -2.0595   24.6971 C.ar    1  UNL1        0.1370
      6 C           6.2518   -3.5279   24.7358 C.ar    1  UNL1        0.1060
      7 N           6.0848   -4.0725   23.3482 N.ar    1  UNL1       -0.2134
      8 C           5.6781   -2.9406   22.4519 C.ar    1  UNL1        0.2015
      9 N           5.5937   -1.6965   23.2855 N.ar    1  UNL1       -0.2915
     10 C           6.6410   -4.1795   26.0297 C.ar    1  UNL1        0.0352
     11 C           6.9445   -5.6479   26.0684 C.ar    1  UNL1        0.0030
     12 C           7.3337   -6.2994   27.3622 C.ar    1  UNL1        0.0013
     13 C           7.4194   -5.4825   28.6174 C.ar    1  UNL1        0.0154
     14 C           7.1158   -4.0140   28.5786 C.ar    1  UNL1        0.0184
     15 C           6.7266   -3.3625   27.2848 C.ar    1  UNL1        0.0641
     16 N           5.4039   -3.0362   20.9802 N.pl3   1  UNL1       -0.2782
     17 C           4.1140   -3.6278   20.4945 C.3     1  UNL1        0.0937
     18 C           3.8398   -3.7233   19.0229 C.3     1  UNL1        0.0229
     19 C           4.8556   -3.2273   18.0370 C.3     1  UNL1        0.0190
     20 C           6.1456   -2.6356   18.5227 C.3     1  UNL1        0.0710
     21 N           7.1614   -2.1396   17.5367 N.3     1  UNL1       -0.3208
     22 C           6.4197   -2.5401   19.9943 C.3     1  UNL1        0.1089
     23 H           6.8126   -2.2815   16.5888 H       1  UNL1        0.1189
     24 H           8.0334   -2.6544   17.6588 H       1  UNL1        0.1189
     25 C           7.8086   -6.1340   29.9112 C.2     1  UNL1        0.0729
     26 O           9.1177   -6.8579   30.0224 O.co2   1  UNL1       -0.5446
     27 O           6.8887   -6.0617   31.0938 O.co2   1  UNL1       -0.5446
     28 C           5.2203   -0.3294   22.7939 C.3     1  UNL1        0.1365
     29 C           4.3030   -0.1804   21.6165 C.ar    1  UNL1        0.0133
     30 C           2.8792   -0.6428   21.7117 C.ar    1  UNL1        0.0281
     31 C           1.9619   -0.4938   20.5343 C.ar    1  UNL1        0.1399
     32 F           0.5381   -0.9562   20.6295 F       1  UNL1       -0.2042
     33 C           2.4684    0.1175   19.2616 C.ar    1  UNL1        0.0305
     34 C           3.8922    0.5799   19.1664 C.ar    1  UNL1        0.0134
     35 C           4.8095    0.4309   20.3438 C.ar    1  UNL1        0.0557
     36 CL          6.2333    0.8933   20.2486 Cl      1  UNL1       -0.0825
@<TRIPOS>UNITY_ATOM_ATTR
26 1
charge -1
@<TRIPOS>BOND
     1     1     2    1
     2     2     3   ar
     3     3     4    2
     4     3     5   ar
     5     5     6   ar
     6     6     7   ar
     7     7     8   ar
     8     8    16    1
     9    16    17    1
    10    17    18    1
    11    18    19    1
    12    19    20    1
    13    20    21    1
    14    20    22    1
    15     8     9   ar
    16     9    28    1
    17    28    29    1
    18    29    30   ar
    19    30    31   ar
    20    31    32    1
    21    31    33   ar
    22    33    34   ar
    23    34    35   ar
    24    35    36    1
    25     6    10   ar
    26    10    11   ar
    27    11    12   ar
    28    12    13   ar
    29    13    25    1
    30    25    26   ar
    31    25    27   ar
    32    13    14   ar
    33    14    15   ar
    34    15     2   ar
    35     9     5   ar
    36    35    29   ar
    37    15    10   ar
    38    22    16    1
    39    21    23    1
    40    21    24    1
@<TRIPOS>MOLECULE
*****
 36 40 0 0 0
SMALL
GASTEIGER

@<TRIPOS>ATOM
      1 C           6.1045   -3.5058   28.0304 C.3     1  UNL1        0.1336
      2 N           6.3978   -3.6562   26.5671 N.ar    1  UNL1       -0.2922
      3 C           6.0532   -2.5492   25.6154 C.ar    1  UNL1        0.2783
      4 O           5.4152   -1.2916   26.1271 O.2     1  UNL1       -0.2653
      5 C           6.3465   -2.6996   24.1521 C.ar    1  UNL1        0.1370
      6 C           6.9844   -3.9570   23.6404 C.ar    1  UNL1        0.1060
      7 N           7.1533   -3.8204   22.1563 N.ar    1  UNL1       -0.2134
      8 C           6.6198   -2.4784   21.7507 C.ar    1  UNL1        0.2015
      9 N           6.1212   -1.7857   22.9841 N.ar    1  UNL1       -0.2915
     10 C           7.3290   -5.0641   24.5921 C.ar    1  UNL1        0.0352
     11 C           7.9670   -6.3216   24.0804 C.ar    1  UNL1        0.0030
     12 C           8.3116   -7.4286   25.0321 C.ar    1  UNL1        0.0013
     13 C           8.0183   -7.2782   26.4954 C.ar    1  UNL1        0.0154
     14 C           7.3804   -6.0207   27.0071 C.ar    1  UNL1        0.0184
     15 C           7.0358   -4.9137   26.0554 C.ar    1  UNL1        0.0641
     16 N           6.5902   -1.9261   20.3563 N.pl3   1  UNL1       -0.2782
     17 C           7.7107   -1.0551   19.8707 C.3     1  UNL1        0.0937
     18 C           7.6811   -0.5029   18.4764 C.3     1  UNL1        0.0229
     19 C           6.5310   -0.8215   17.5677 C.3     1  UNL1        0.0190
     20 C           5.4105   -1.6925   18.0534 C.3     1  UNL1        0.0710
     21 N           4.2604   -2.0112   17.1447 N.3     1  UNL1       -0.3208
     22 C           5.4401   -2.2448   19.4477 C.3     1  UNL1        0.1089
     23 H           4.4035   -1.5566   16.2429 H       1  UNL1        0.1189
     24 H           3.3933   -1.6729   17.5621 H       1  UNL1        0.1189
     25 C           8.3629   -8.3853   27.4471 C.2     1  UNL1        0.0729
     26 O           7.6256   -9.6898   27.3787 O.co2   1  UNL1       -0.5446
     27 O           9.4449   -8.1879   28.4671 O.co2   1  UNL1       -0.5446
     28 C           5.5053   -0.4191   23.0399 C.3     1  UNL1        0.1365
     29 C           4.5451    0.0150   21.9724 C.ar    1  UNL1        0.0133
     30 C           3.2345   -0.6958   21.8083 C.ar    1  UNL1        0.0281
     31 C           2.2743   -0.2617   20.7407 C.ar    1  UNL1        0.1399
     32 F           0.9637   -0.9725   20.5767 F       1  UNL1       -0.2042
     33 C           2.6249    0.8832   19.8373 C.ar    1  UNL1        0.0305
     34 C           3.9356    1.5940   20.0013 C.ar    1  UNL1        0.0134
     35 C           4.8957    1.1599   21.0689 C.ar    1  UNL1        0.0557
     36 CL          6.2064    1.8707   21.2329 Cl      1  UNL1       -0.0825
@<TRIPOS>UNITY_ATOM_ATTR
26 1
charge -1
@<TRIPOS>BOND
     1     1     2    1
     2     2     3   ar
     3     3     4    2
     4     3     5   ar
     5     5     6   ar
     6     6     7   ar
     7     7     8   ar
     8     8    16    1
     9    16    17    1
    10    17    18    1
    11    18    19    1
    12    19    20    1
    13    20    21    1
    14    20    22    1
    15     8     9   ar
    16     9    28    1
    17    28    29    1
    18    29    30   ar
    19    30    31   ar
    20    31    32    1
    21    31    33   ar
    22    33    34   ar
    23    34    35   ar
    24    35    36    1
    25     6    10   ar
    26    10    11   ar
    27    11    12   ar
    28    12    13   ar
    29    13    25    1
    30    25    26   ar
    31    25    27   ar
    32    13    14   ar
    33    14    15   ar
    34    15     2   ar
    35     9     5   ar
    36    35    29   ar
    37    15    10   ar
    38    22    16    1
    39    21    23    1
    40    21    24    1
@<TRIPOS>MOLECULE
*****
 36 40 0 0 0
SMALL
GASTEIGER

@<TRIPOS>ATOM
      1 C           7.7834   -1.8474   29.6197 C.3     1  UNL1        0.1336
      2 N           6.7443   -1.7979   28.5391 N.ar    1  UNL1       -0.2922
      3 C           7.1045   -2.1799   27.1341 C.ar    1  UNL1        0.2783
      4 O           8.5040   -2.6116   26.8096 O.2     1  UNL1       -0.2653
      5 C           6.0654   -2.1304   26.0535 C.ar    1  UNL1        0.1370
      6 C           4.6660   -1.6987   26.3779 C.ar    1  UNL1        0.1060
      7 N           3.8607   -1.7479   25.1134 N.ar    1  UNL1       -0.2134
      8 C           4.7625   -2.2100   24.0073 C.ar    1  UNL1        0.2015
      9 N           6.1250   -2.4463   24.5883 N.ar    1  UNL1       -0.2915
     10 C           4.3056   -1.3166   27.7830 C.ar    1  UNL1        0.0352
     11 C           2.9062   -0.8850   28.1075 C.ar    1  UNL1        0.0030
     12 C           2.5460   -0.5030   29.5125 C.ar    1  UNL1        0.0013
     13 C           3.5851   -0.5525   30.5931 C.ar    1  UNL1        0.0154
     14 C           4.9846   -0.9841   30.2687 C.ar    1  UNL1        0.0184
     15 C           5.3448   -1.3662   28.8636 C.ar    1  UNL1        0.0641
     16 N           4.3705   -2.4020   22.5722 N.pl3   1  UNL1       -0.2782
     17 C           3.7399   -1.2746   21.8097 C.3     1  UNL1        0.0937
     18 C           3.3479   -1.4665   20.3746 C.3     1  UNL1        0.0229
     19 C           3.5865   -2.7858   19.7020 C.3     1  UNL1        0.0190
     20 C           4.2171   -3.9132   20.4645 C.3     1  UNL1        0.0710
     21 N           4.4557   -5.2326   19.7918 N.3     1  UNL1       -0.3208
     22 C           4.6091   -3.7213   21.8996 C.3     1  UNL1        0.1089
     23 H           4.1313   -5.1853   18.8259 H       1  UNL1        0.1189
     24 H           3.9450   -5.9638   20.2867 H       1  UNL1        0.1189
     25 C           3.2248   -0.1704   31.9982 C.2     1  UNL1        0.0729
     26 O           3.6175   -1.0589   33.1412 O.co2   1  UNL1       -0.5446
     27 O           2.4719    1.1001   32.2603 O.co2   1  UNL1       -0.5446
     28 C           7.3349   -2.9162   23.8363 C.3     1  UNL1        0.1365
     29 C           7.7090   -4.3688   23.8496 C.ar    1  UNL1        0.0133
     30 C           7.3208   -5.2325   25.0128 C.ar    1  UNL1        0.0281
     31 C           7.6949   -6.6851   25.0262 C.ar    1  UNL1        0.1399
     32 F           7.3067   -7.5489   26.1894 F       1  UNL1       -0.2042
     33 C           8.4571   -7.2738   23.8763 C.ar    1  UNL1        0.0305
     34 C           8.8453   -6.4100   22.7130 C.ar    1  UNL1        0.0134
     35 C           8.4713   -4.9574   22.6997 C.ar    1  UNL1        0.0557
     36 CL          8.8595   -4.0936   21.5364 Cl      1  UNL1       -0.0825
@<TRIPOS>UNITY_ATOM_ATTR
26 1
charge -1
@<TRIPOS>BOND
     1     1     2    1
     2     2     3   ar
     3     3     4    2
     4     3     5   ar
     5     5     6   ar
     6     6     7   ar
     7     7     8   ar
     8     8    16    1
     9    16    17    1
    10    17    18    1
    11    18    19    1
    12    19    20    1
    13    20    21    1
    14    20    22    1
    15     8     9   ar
    16     9    28    1
    17    28    29    1
    18    29    30   ar
    19    30    31   ar
    20    31    32    1
    21    31    33   ar
    22    33    34   ar
    23    34    35   ar
    24    35    36    1
    25     6    10   ar
    26    10    11   ar
    27    11    12   ar
    28    12    13   ar
    29    13    25    1
    30    25    26   ar
    31    25    27   ar
    32    13    14   ar
    33    14    15   ar
    34    15     2   ar
    35     9     5   ar
    36    35    29   ar
    37    15    10   ar
    38    22    16    1
    39    21    23    1
    40    21    24    1
@<TRIPOS>MOLECULE
*****
 36 40 0 0 0
SMALL
GASTEIGER

@<TRIPOS>ATOM
      1 C           2.9992    4.1678   33.7025 C.3     1  UNL1        0.1336
      2 N           3.6780    2.8482   33.9207 N.ar    1  UNL1       -0.2922
      3 C           4.4470    2.2066   32.8041 C.ar    1  UNL1        0.2783
      4 O           4.5372    2.8847   31.4691 O.2     1  UNL1       -0.2653
      5 C           5.1259    0.8869   33.0223 C.ar    1  UNL1        0.1370
      6 C           5.0357    0.2088   34.3572 C.ar    1  UNL1        0.1060
      7 N           5.8028   -1.0776   34.2764 N.ar    1  UNL1       -0.2134
      8 C           6.3671   -1.1946   32.8915 C.ar    1  UNL1        0.2015
      9 N           5.9487    0.0196   32.1164 N.ar    1  UNL1       -0.2915
     10 C           4.2667    0.8504   35.4739 C.ar    1  UNL1        0.0352
     11 C           4.1765    0.1722   36.8088 C.ar    1  UNL1        0.0030
     12 C           3.4075    0.8138   37.9255 C.ar    1  UNL1        0.0013
     13 C           2.7287    2.1335   37.7073 C.ar    1  UNL1        0.0154
     14 C           2.8188    2.8116   36.3724 C.ar    1  UNL1        0.0184
     15 C           3.5878    2.1700   35.2557 C.ar    1  UNL1        0.0641
     16 N           7.2031   -2.3269   32.3727 N.pl3   1  UNL1       -0.2782
     17 C           8.6996   -2.2273   32.3981 C.3     1  UNL1        0.0937
     18 C           9.5355   -3.3596   31.8795 C.3     1  UNL1        0.0229
     19 C           8.8750   -4.5915   31.3354 C.3     1  UNL1        0.0190
     20 C           7.3785   -4.6911   31.3099 C.3     1  UNL1        0.0710
     21 N           6.7180   -5.9231   30.7658 N.3     1  UNL1       -0.3208
     22 C           6.5425   -3.5588   31.8286 C.3     1  UNL1        0.1089
     23 H           7.4316   -6.5846   30.4599 H       1  UNL1        0.1189
     24 H           6.1268   -5.6704   29.9739 H       1  UNL1        0.1189
     25 C           1.9597    2.7750   38.8240 C.2     1  UNL1        0.0729
     26 O           0.4600    2.7821   38.7946 O.co2   1  UNL1       -0.5446
     27 O           2.6903    3.4095   39.9701 O.co2   1  UNL1       -0.5446
     28 C           6.2928    0.3147   30.6865 C.3     1  UNL1        0.1365
     29 C           5.5036   -0.3186   29.5791 C.ar    1  UNL1        0.0133
     30 C           4.0648    0.0534   29.3758 C.ar    1  UNL1        0.0281
     31 C           3.2756   -0.5799   28.2685 C.ar    1  UNL1        0.1399
     32 F           1.8368   -0.2079   28.0652 F       1  UNL1       -0.2042
     33 C           3.9254   -1.5852   27.3645 C.ar    1  UNL1        0.0305
     34 C           5.3642   -1.9572   27.5678 C.ar    1  UNL1        0.0134
     35 C           6.1534   -1.3239   28.6752 C.ar    1  UNL1        0.0557
     36 CL          7.5922   -1.6959   28.8785 Cl      1  UNL1       -0.0825
@<TRIPOS>UNITY_ATOM_ATTR
26 1
charge -1
@<TRIPOS>BOND
     1     1     2    1
     2     2     3   ar
     3     3     4    2
     4     3     5   ar
     5     5     6   ar
     6     6     7   ar
     7     7     8   ar
     8     8    16    1
     9    16    17    1
    10    17    18    1
    11    18    19    1
    12    19    20    1
    13    20    21    1
    14    20    22    1
    15     8     9   ar
    16     9    28    1
    17    28    29    1
    18    29    30   ar
    19    30    31   ar
    20    31    32    1
    21    31    33   ar
    22    33    34   ar
    23    34    35   ar
    24    35    36    1
    25     6    10   ar
    26    10    11   ar
    27    11    12   ar
    28    12    13   ar
    29    13    25    1
    30    25    26   ar
    31    25    27   ar
    32    13    14   ar
    33    14    15   ar
    34    15     2   ar
    35     9     5   ar
    36    35    29   ar
    37    15    10   ar
    38    22    16    1
    39    21    23    1
    40    21    24    1
@<TRIPOS>MOLECULE
*****
 36 40 0 0 0
SMALL
GASTEIGER

@<TRIPOS>ATOM
      1 C           4.8560   -1.1328   24.2599 C.3     1  UNL1        0.1336
      2 N           3.6321   -0.3963   23.8020 N.ar    1  UNL1       -0.2922
      3 C           2.9719    0.5985   24.7099 C.ar    1  UNL1        0.2783
      4 O           3.5355    0.8569   26.0758 O.2     1  UNL1       -0.2653
      5 C           1.7480    1.3350   24.2520 C.ar    1  UNL1        0.1370
      6 C           1.1844    1.0768   22.8861 C.ar    1  UNL1        0.1060
      7 N          -0.0243    1.9476   22.7111 N.ar    1  UNL1       -0.2134
      8 C          -0.2077    2.7441   23.9689 C.ar    1  UNL1        0.2015
      9 N           0.8876    2.3655   24.9212 N.ar    1  UNL1       -0.2915
     10 C           1.8447    0.0819   21.9781 C.ar    1  UNL1        0.0352
     11 C           1.2811   -0.1764   20.6123 C.ar    1  UNL1        0.0030
     12 C           1.9413   -1.1711   19.7043 C.ar    1  UNL1        0.0013
     13 C           3.1652   -1.9077   20.1623 C.ar    1  UNL1        0.0154
     14 C           3.7288   -1.6494   21.5281 C.ar    1  UNL1        0.0184
     15 C           3.0685   -0.6546   22.4360 C.ar    1  UNL1        0.0641
     16 N          -1.2956    3.7437   24.2287 N.pl3   1  UNL1       -0.2782
     17 C          -1.1870    5.1321   23.6715 C.3     1  UNL1        0.0937
     18 C          -2.2748    6.1317   23.9313 C.3     1  UNL1        0.0229
     19 C          -3.4712    5.7429   24.7482 C.3     1  UNL1        0.0190
     20 C          -3.5797    4.3544   25.3055 C.3     1  UNL1        0.0710
     21 N          -4.7762    3.9656   26.1225 N.3     1  UNL1       -0.3208
     22 C          -2.4920    3.3548   25.0457 C.3     1  UNL1        0.1089
     23 H          -5.4098    4.7614   26.1976 H       1  UNL1        0.1189
     24 H          -4.4739    3.6825   27.0546 H       1  UNL1        0.1189
     25 C           3.8255   -2.9025   19.2542 C.2     1  UNL1        0.0729
     26 O           3.3271   -4.3163   19.2019 O.co2   1  UNL1       -0.5446
     27 O           4.9840   -2.4835   18.3986 O.co2   1  UNL1       -0.5446
     28 C           1.0875    2.9201   26.3006 C.3     1  UNL1        0.1365
     29 C           0.5658    2.1730   27.4921 C.ar    1  UNL1        0.0133
     30 C          -0.2819    0.9507   27.2988 C.ar    1  UNL1        0.0281
     31 C          -0.8035    0.2036   28.4904 C.ar    1  UNL1        0.1399
     32 F          -1.6513   -1.0186   28.2971 F       1  UNL1       -0.2042
     33 C          -0.4774    0.6789   29.8752 C.ar    1  UNL1        0.0305
     34 C           0.3703    1.9012   30.0685 C.ar    1  UNL1        0.0134
     35 C           0.8920    2.6483   28.8769 C.ar    1  UNL1        0.0557
     36 CL          1.7397    3.8705   29.0702 Cl      1  UNL1       -0.0825
@<TRIPOS>UNITY_ATOM_ATTR
26 1
charge -1
@<TRIPOS>BOND
     1     1     2    1
     2     2     3   ar
     3     3     4    2
     4     3     5   ar
     5     5     6   ar
     6     6     7   ar
     7     7     8   ar
     8     8    16    1
     9    16    17    1
    10    17    18    1
    11    18    19    1
    12    19    20    1
    13    20    21    1
    14    20    22    1
    15     8     9   ar
    16     9    28    1
    17    28    29    1
    18    29    30   ar
    19    30    31   ar
    20    31    32    1
    21    31    33   ar
    22    33    34   ar
    23    34    35   ar
    24    35    36    1
    25     6    10   ar
    26    10    11   ar
    27    11    12   ar
    28    12    13   ar
    29    13    25    1
    30    25    26   ar
    31    25    27   ar
    32    13    14   ar
    33    14    15   ar
    34    15     2   ar
    35     9     5   ar
    36    35    29   ar
    37    15    10   ar
    38    22    16    1
    39    21    23    1
    40    21    24    1
