@<TRIPOS>MOLECULE
*****
 34 37 0 0 0
SMALL
GASTEIGER

@<TRIPOS>ATOM
      1 C          -3.6709  -19.9917   20.5596 C.2     1  UNL1        0.2383
      2 O          -3.8502  -21.3821   20.0261 O.2     1  UNL1       -0.2735
      3 N          -4.8375  -19.2607   21.1553 N.am    1  UNL1       -0.2695
      4 C          -4.6582  -17.8704   21.6889 C.3     1  UNL1        0.1184
      5 C          -5.8248  -17.1394   22.2846 C.3     1  UNL1        0.1299
      6 N          -7.1706  -17.7988   22.3467 N.ar    1  UNL1       -0.3005
      7 C          -7.3499  -19.1892   21.8132 C.ar    1  UNL1        0.1416
      8 N          -8.7848  -19.5796   22.0096 N.ar    1  UNL1       -0.2279
      9 C          -9.4924  -18.4305   22.6645 C.ar    1  UNL1        0.1125
     10 C          -8.4947  -17.3299   22.8728 C.ar    1  UNL1        0.1318
     11 C          -6.1833  -19.9201   21.2175 C.3     1  UNL1        0.1578
     12 C         -10.9429  -18.3891   23.0443 C.ar    1  UNL1        0.0205
     13 C         -11.9637  -17.9087   22.0557 C.ar    1  UNL1        0.0039
     14 C         -13.4142  -17.8674   22.4355 C.ar    1  UNL1        0.0297
     15 C         -13.8439  -18.3064   23.8039 C.ar    1  UNL1        0.1401
     16 F         -15.2945  -18.2651   24.1837 F       1  UNL1       -0.2042
     17 C         -12.8232  -18.7868   24.7925 C.ar    1  UNL1        0.0297
     18 C         -11.3727  -18.8282   24.4127 C.ar    1  UNL1        0.0039
     19 C          -2.6021  -18.8999   19.0881 C.3     1  UNL1        0.0249
     20 C          -2.3251  -19.3323   20.4975 C.3     1  UNL1        0.1089
     21 C          -2.0481  -19.7647   21.9068 C.3     1  UNL1        0.0249
     22 N          -0.9792  -18.6729   20.4352 N.3     1  UNL1       -0.3164
     23 H          -0.4966  -18.8006   21.3247 H       1  UNL1        0.1192
     24 H          -1.0970  -17.6763   20.2524 H       1  UNL1        0.1192
     25 N          -8.7724  -15.9948   23.4976 N.pl3   1  UNL1       -0.2980
     26 H          -9.3780  -15.3592   23.0520 H       1  UNL1        0.1536
     27 C          -8.1275  -15.6280   24.8013 C.ar    1  UNL1        0.0518
     28 C          -8.9367  -15.6267   26.0642 C.ar    1  UNL1        0.0171
     29 C          -8.2917  -15.2599   27.3679 C.ar    1  UNL1        0.0332
     30 C          -6.8375  -14.8944   27.4086 C.ar    1  UNL1        0.1675
     31 F          -6.1925  -14.5277   28.7122 F       1  UNL1       -0.2018
     32 C          -6.0282  -14.8957   26.1456 C.ar    1  UNL1        0.1686
     33 F          -4.5740  -14.5303   26.1862 F       1  UNL1       -0.2018
     34 C          -6.6732  -15.2625   24.8420 C.ar    1  UNL1        0.0466
@<TRIPOS>BOND
     1    19    20    1
     2    20    21    1
     3    20    22    1
     4    20     1    1
     5     1     2    2
     6     1     3   am
     7     3     4    1
     8     4     5    1
     9     5     6    1
    10     6     7   ar
    11     7     8   ar
    12     8     9   ar
    13     9    12    1
    14    12    13   ar
    15    13    14   ar
    16    14    15   ar
    17    15    16    1
    18    15    17   ar
    19    17    18   ar
    20     9    10   ar
    21    10    25    1
    22    25    27    1
    23    27    28   ar
    24    28    29   ar
    25    29    30   ar
    26    30    31    1
    27    30    32   ar
    28    32    33    1
    29    32    34   ar
    30     7    11    1
    31    11     3    1
    32    10     6   ar
    33    34    27   ar
    34    18    12   ar
    35    22    23    1
    36    22    24    1
    37    25    26    1
@<TRIPOS>MOLECULE
*****
 34 37 0 0 0
SMALL
GASTEIGER

@<TRIPOS>ATOM
      1 C           3.9868   -2.1429   20.5964 C.2     1  UNL1        0.2383
      2 O           2.7304   -1.3420   20.7697 O.2     1  UNL1       -0.2735
      3 N           4.8260   -2.4893   21.7904 N.am    1  UNL1       -0.2695
      4 C           6.0824   -3.2902   21.6172 C.3     1  UNL1        0.1184
      5 C           6.9216   -3.6367   22.8112 C.3     1  UNL1        0.1299
      6 N           6.5045   -3.1822   24.1784 N.ar    1  UNL1       -0.3005
      7 C           5.2482   -2.3813   24.3517 C.ar    1  UNL1        0.1416
      8 N           5.0917   -2.0744   25.8117 N.ar    1  UNL1       -0.2279
      9 C           6.2513   -2.6857   26.5407 C.ar    1  UNL1        0.1125
     10 C           7.1245   -3.3703   25.5313 C.ar    1  UNL1        0.1318
     11 C           4.4089   -2.0349   23.1577 C.3     1  UNL1        0.1578
     12 C           6.4951   -2.6233   28.0195 C.ar    1  UNL1        0.0205
     13 C           6.8530   -1.3181   28.6662 C.ar    1  UNL1        0.0039
     14 C           7.0967   -1.2557   30.1449 C.ar    1  UNL1        0.0297
     15 C           6.9826   -2.4985   30.9769 C.ar    1  UNL1        0.1401
     16 F           7.2263   -2.4361   32.4557 F       1  UNL1       -0.2042
     17 C           6.6247   -3.8038   30.3302 C.ar    1  UNL1        0.0297
     18 C           6.3809   -3.8662   28.8515 C.ar    1  UNL1        0.0039
     19 C           3.5805   -3.8406   19.3912 C.3     1  UNL1        0.0249
     20 C           4.4039   -2.5974   19.2292 C.3     1  UNL1        0.1089
     21 C           5.2273   -1.3541   19.0671 C.3     1  UNL1        0.0249
     22 N           4.8210   -3.0519   17.8618 N.3     1  UNL1       -0.3164
     23 H           5.4435   -2.3579   17.4480 H       1  UNL1        0.1192
     24 H           3.9951   -3.1617   17.2734 H       1  UNL1        0.1192
     25 N           8.3947   -4.1128   25.8234 N.pl3   1  UNL1       -0.2980
     26 H           9.2641   -3.6657   25.7070 H       1  UNL1        0.1536
     27 C           8.3404   -5.5364   26.2929 C.ar    1  UNL1        0.0518
     28 C           7.6613   -6.5776   25.4534 C.ar    1  UNL1        0.0171
     29 C           7.6070   -8.0013   25.9229 C.ar    1  UNL1        0.0332
     30 C           8.2318   -8.3836   27.2319 C.ar    1  UNL1        0.1675
     31 F           8.1775   -9.8072   27.7014 F       1  UNL1       -0.2018
     32 C           8.9109   -7.3424   28.0714 C.ar    1  UNL1        0.1686
     33 F           9.5357   -7.7247   29.3804 F       1  UNL1       -0.2018
     34 C           8.9652   -5.9188   27.6019 C.ar    1  UNL1        0.0466
@<TRIPOS>BOND
     1    19    20    1
     2    20    21    1
     3    20    22    1
     4    20     1    1
     5     1     2    2
     6     1     3   am
     7     3     4    1
     8     4     5    1
     9     5     6    1
    10     6     7   ar
    11     7     8   ar
    12     8     9   ar
    13     9    12    1
    14    12    13   ar
    15    13    14   ar
    16    14    15   ar
    17    15    16    1
    18    15    17   ar
    19    17    18   ar
    20     9    10   ar
    21    10    25    1
    22    25    27    1
    23    27    28   ar
    24    28    29   ar
    25    29    30   ar
    26    30    31    1
    27    30    32   ar
    28    32    33    1
    29    32    34   ar
    30     7    11    1
    31    11     3    1
    32    10     6   ar
    33    34    27   ar
    34    18    12   ar
    35    22    23    1
    36    22    24    1
    37    25    26    1
@<TRIPOS>MOLECULE
*****
 34 37 0 0 0
SMALL
GASTEIGER

@<TRIPOS>ATOM
      1 C           3.9839   -0.2100   30.7656 C.2     1  UNL1        0.2383
      2 O           2.6213    0.4117   30.8478 O.2     1  UNL1       -0.2735
      3 N           4.4846   -0.7493   29.4585 N.am    1  UNL1       -0.2695
      4 C           5.8472   -1.3709   29.3763 C.3     1  UNL1        0.1184
      5 C           6.3480   -1.9102   28.0692 C.3     1  UNL1        0.1299
      6 N           5.4861   -1.8278   26.8444 N.ar    1  UNL1       -0.3005
      7 C           4.1235   -1.2061   26.9266 C.ar    1  UNL1        0.1416
      8 N           3.5041   -1.2648   25.5616 N.ar    1  UNL1       -0.2279
      9 C           4.4839   -1.9228   24.6359 C.ar    1  UNL1        0.1125
     10 C           5.7089   -2.2707   25.4287 C.ar    1  UNL1        0.1318
     11 C           3.6228   -0.6669   28.2336 C.3     1  UNL1        0.1578
     12 C           4.2754   -2.1866   23.1740 C.ar    1  UNL1        0.0205
     13 C           3.6752   -1.1265   22.2988 C.ar    1  UNL1        0.0039
     14 C           3.4667   -1.3903   20.8370 C.ar    1  UNL1        0.0297
     15 C           3.8584   -2.7140   20.2504 C.ar    1  UNL1        0.1401
     16 F           3.6500   -2.9778   18.7885 F       1  UNL1       -0.2042
     17 C           4.4586   -3.7741   21.1256 C.ar    1  UNL1        0.0297
     18 C           4.6671   -3.5104   22.5875 C.ar    1  UNL1        0.0039
     19 C           4.2535   -1.6312   32.3171 C.3     1  UNL1        0.0249
     20 C           4.8457   -0.2924   31.9905 C.3     1  UNL1        0.1089
     21 C           5.4380    1.0464   31.6638 C.3     1  UNL1        0.0249
     22 N           5.7076   -0.3749   33.2154 N.3     1  UNL1       -0.3164
     23 H           6.2827    0.4648   33.2837 H       1  UNL1        0.1192
     24 H           6.3102   -1.1955   33.1526 H       1  UNL1        0.1192
     25 N           6.9404   -2.9435   24.8988 N.pl3   1  UNL1       -0.2980
     26 H           7.5780   -2.4376   24.3449 H       1  UNL1        0.1536
     27 C           7.2005   -4.3870   25.2127 C.ar    1  UNL1        0.0518
     28 C           6.9156   -4.9190   26.5860 C.ar    1  UNL1        0.0171
     29 C           7.1758   -6.3627   26.8999 C.ar    1  UNL1        0.0332
     30 C           7.7207   -7.2741   25.8405 C.ar    1  UNL1        0.1675
     31 F           7.9808   -8.7176   26.1545 F       1  UNL1       -0.2018
     32 C           8.0055   -6.7421   24.4673 C.ar    1  UNL1        0.1686
     33 F           8.5505   -7.6536   23.4079 F       1  UNL1       -0.2018
     34 C           7.7454   -5.2985   24.1534 C.ar    1  UNL1        0.0466
@<TRIPOS>BOND
     1    19    20    1
     2    20    21    1
     3    20    22    1
     4    20     1    1
     5     1     2    2
     6     1     3   am
     7     3     4    1
     8     4     5    1
     9     5     6    1
    10     6     7   ar
    11     7     8   ar
    12     8     9   ar
    13     9    12    1
    14    12    13   ar
    15    13    14   ar
    16    14    15   ar
    17    15    16    1
    18    15    17   ar
    19    17    18   ar
    20     9    10   ar
    21    10    25    1
    22    25    27    1
    23    27    28   ar
    24    28    29   ar
    25    29    30   ar
    26    30    31    1
    27    30    32   ar
    28    32    33    1
    29    32    34   ar
    30     7    11    1
    31    11     3    1
    32    10     6   ar
    33    34    27   ar
    34    18    12   ar
    35    22    23    1
    36    22    24    1
    37    25    26    1
@<TRIPOS>MOLECULE
*****
 34 37 0 0 0
SMALL
GASTEIGER

@<TRIPOS>ATOM
      1 C          -0.4197    1.7047   27.6673 C.2     1  UNL1        0.2383
      2 O          -1.7080    2.3383   27.2327 O.2     1  UNL1       -0.2735
      3 N           0.5784    1.2551   26.6418 N.am    1  UNL1       -0.2695
      4 C           1.8666    0.6215   27.0763 C.3     1  UNL1        0.1184
      5 C           2.8647    0.1719   26.0508 C.3     1  UNL1        0.1299
      6 N           2.5745    0.3559   24.5907 N.ar    1  UNL1       -0.3005
      7 C           1.2862    0.9894   24.1562 C.ar    1  UNL1        0.1416
      8 N           1.2768    1.0394   22.6570 N.ar    1  UNL1       -0.2279
      9 C           2.5592    0.4367   22.1651 C.ar    1  UNL1        0.1125
     10 C           3.3613    0.0142   23.3602 C.ar    1  UNL1        0.1318
     11 C           0.2882    1.4391   25.1817 C.3     1  UNL1        0.1578
     12 C           2.9679    0.2833   20.7299 C.ar    1  UNL1        0.0205
     13 C           3.7973    1.3440   20.0689 C.ar    1  UNL1        0.0039
     14 C           4.2060    1.1906   18.6338 C.ar    1  UNL1        0.0297
     15 C           3.7854   -0.0234   17.8599 C.ar    1  UNL1        0.1401
     16 F           4.1941   -0.1768   16.4247 F       1  UNL1       -0.2042
     17 C           2.9560   -1.0841   18.5209 C.ar    1  UNL1        0.0297
     18 C           2.5472   -0.9308   19.9560 C.ar    1  UNL1        0.0039
     19 C          -0.8579    0.2097   29.1070 C.3     1  UNL1        0.0249
     20 C          -0.1295    1.5208   29.1274 C.3     1  UNL1        0.1089
     21 C           0.5989    2.8318   29.1478 C.3     1  UNL1        0.0249
     22 N           0.1607    1.3368   30.5876 N.3     1  UNL1       -0.3164
     23 H           0.6935    2.1356   30.9316 H       1  UNL1        0.1192
     24 H           0.7029    0.4833   30.7215 H       1  UNL1        0.1192
     25 N           4.7128   -0.6357   23.3301 N.pl3   1  UNL1       -0.2980
     26 H           5.4111   -0.3490   23.9621 H       1  UNL1        0.1536
     27 C           5.0004   -1.7225   22.3371 C.ar    1  UNL1        0.0518
     28 C           4.2860   -3.0377   22.4365 C.ar    1  UNL1        0.0171
     29 C           4.5737   -4.1245   21.4433 C.ar    1  UNL1        0.0332
     30 C           5.5759   -3.8961   20.3509 C.ar    1  UNL1        0.1675
     31 F           5.8636   -4.9829   19.3579 F       1  UNL1       -0.2018
     32 C           6.2904   -2.5809   20.2515 C.ar    1  UNL1        0.1686
     33 F           7.2926   -2.3525   19.1590 F       1  UNL1       -0.2018
     34 C           6.0026   -1.4942   21.2445 C.ar    1  UNL1        0.0466
@<TRIPOS>BOND
     1    19    20    1
     2    20    21    1
     3    20    22    1
     4    20     1    1
     5     1     2    2
     6     1     3   am
     7     3     4    1
     8     4     5    1
     9     5     6    1
    10     6     7   ar
    11     7     8   ar
    12     8     9   ar
    13     9    12    1
    14    12    13   ar
    15    13    14   ar
    16    14    15   ar
    17    15    16    1
    18    15    17   ar
    19    17    18   ar
    20     9    10   ar
    21    10    25    1
    22    25    27    1
    23    27    28   ar
    24    28    29   ar
    25    29    30   ar
    26    30    31    1
    27    30    32   ar
    28    32    33    1
    29    32    34   ar
    30     7    11    1
    31    11     3    1
    32    10     6   ar
    33    34    27   ar
    34    18    12   ar
    35    22    23    1
    36    22    24    1
    37    25    26    1
@<TRIPOS>MOLECULE
*****
 34 37 0 0 0
SMALL
GASTEIGER

@<TRIPOS>ATOM
      1 C           3.2620   -1.4514   19.9209 C.2     1  UNL1        0.2383
      2 O           1.9154   -0.8030   19.7938 O.2     1  UNL1       -0.2735
      3 N           3.8904   -1.6164   21.2729 N.am    1  UNL1       -0.2695
      4 C           5.2370   -2.2648   21.4000 C.3     1  UNL1        0.1184
      5 C           5.8654   -2.4297   22.7520 C.3     1  UNL1        0.1299
      6 N           5.1472   -1.9462   23.9769 N.ar    1  UNL1       -0.3005
      7 C           3.8006   -1.2978   23.8498 C.ar    1  UNL1        0.1416
      8 N           3.3351   -0.9225   25.2255 N.ar    1  UNL1       -0.2279
      9 C           4.3941   -1.3390   26.2028 C.ar    1  UNL1        0.1125
     10 C           5.5140   -1.9717   25.4311 C.ar    1  UNL1        0.1318
     11 C           3.1722   -1.1329   22.4978 C.3     1  UNL1        0.1578
     12 C           4.3423   -1.1550   27.6906 C.ar    1  UNL1        0.0205
     13 C           3.0530   -0.7715   28.3545 C.ar    1  UNL1        0.0039
     14 C           3.0012   -0.5875   29.8422 C.ar    1  UNL1        0.0297
     15 C           4.2386   -0.7872   30.6661 C.ar    1  UNL1        0.1401
     16 F           4.1868   -0.6033   32.1540 F       1  UNL1       -0.2042
     17 C           5.5278   -1.1708   30.0023 C.ar    1  UNL1        0.0297
     18 C           5.5797   -1.3547   28.5146 C.ar    1  UNL1        0.0039
     19 C           4.4307   -0.5337   18.4071 C.3     1  UNL1        0.0249
     20 C           3.9802   -1.9349   18.6960 C.3     1  UNL1        0.1089
     21 C           3.5296   -3.3361   18.9849 C.3     1  UNL1        0.0249
     22 N           4.6984   -2.4184   17.4710 N.3     1  UNL1       -0.3164
     23 H           4.5723   -3.4263   17.3786 H       1  UNL1        0.1192
     24 H           5.6926   -2.2063   17.5539 H       1  UNL1        0.1192
     25 N           6.7787   -2.5315   26.0117 N.pl3   1  UNL1       -0.2980
     26 H           7.4884   -1.9243   26.3230 H       1  UNL1        0.1536
     27 C           6.9621   -4.0164   26.1181 C.ar    1  UNL1        0.0518
     28 C           6.6301   -4.7233   27.3987 C.ar    1  UNL1        0.0171
     29 C           6.8135   -6.2084   27.5051 C.ar    1  UNL1        0.0332
     30 C           7.3290   -6.9864   26.3307 C.ar    1  UNL1        0.1675
     31 F           7.5124   -8.4713   26.4371 F       1  UNL1       -0.2018
     32 C           7.6610   -6.2795   25.0501 C.ar    1  UNL1        0.1686
     33 F           8.1765   -7.0575   23.8758 F       1  UNL1       -0.2018
     34 C           7.4776   -4.7945   24.9438 C.ar    1  UNL1        0.0466
@<TRIPOS>BOND
     1    19    20    1
     2    20    21    1
     3    20    22    1
     4    20     1    1
     5     1     2    2
     6     1     3   am
     7     3     4    1
     8     4     5    1
     9     5     6    1
    10     6     7   ar
    11     7     8   ar
    12     8     9   ar
    13     9    12    1
    14    12    13   ar
    15    13    14   ar
    16    14    15   ar
    17    15    16    1
    18    15    17   ar
    19    17    18   ar
    20     9    10   ar
    21    10    25    1
    22    25    27    1
    23    27    28   ar
    24    28    29   ar
    25    29    30   ar
    26    30    31    1
    27    30    32   ar
    28    32    33    1
    29    32    34   ar
    30     7    11    1
    31    11     3    1
    32    10     6   ar
    33    34    27   ar
    34    18    12   ar
    35    22    23    1
    36    22    24    1
    37    25    26    1
@<TRIPOS>MOLECULE
*****
 34 37 0 0 0
SMALL
GASTEIGER

@<TRIPOS>ATOM
      1 C           3.4061   -1.8627   20.0328 C.2     1  UNL1        0.2383
      2 O           2.0237   -1.3613   19.7371 O.2     1  UNL1       -0.2735
      3 N           3.9655   -1.7461   21.4196 N.am    1  UNL1       -0.2695
      4 C           5.3480   -2.2475   21.7153 C.3     1  UNL1        0.1184
      5 C           5.9074   -2.1309   23.1021 C.3     1  UNL1        0.1299
      6 N           5.0845   -1.5129   24.1934 N.ar    1  UNL1       -0.3005
      7 C           3.7021   -1.0115   23.8977 C.ar    1  UNL1        0.1416
      8 N           3.1301   -0.4531   25.1671 N.ar    1  UNL1       -0.2279
      9 C           4.1591   -0.6095   26.2472 C.ar    1  UNL1        0.1125
     10 C           5.3670   -1.2645   25.6454 C.ar    1  UNL1        0.1318
     11 C           3.1426   -1.1281   22.5108 C.3     1  UNL1        0.1578
     12 C           4.0070   -0.1853   27.6780 C.ar    1  UNL1        0.0205
     13 C           2.9755   -0.8397   28.5486 C.ar    1  UNL1        0.0039
     14 C           2.8234   -0.4156   29.9793 C.ar    1  UNL1        0.0297
     15 C           3.7027    0.6628   30.5394 C.ar    1  UNL1        0.1401
     16 F           3.5506    1.0869   31.9702 F       1  UNL1       -0.2042
     17 C           4.7342    1.3171   29.6688 C.ar    1  UNL1        0.0297
     18 C           4.8864    0.8930   28.2381 C.ar    1  UNL1        0.0039
     19 C           3.6197   -3.8185   19.2397 C.3     1  UNL1        0.0249
     20 C           4.2290   -2.4807   18.9415 C.3     1  UNL1        0.1089
     21 C           4.8384   -1.1429   18.6434 C.3     1  UNL1        0.0249
     22 N           5.0520   -3.0988   17.8503 N.3     1  UNL1       -0.3164
     23 H           5.6292   -2.3812   17.4118 H       1  UNL1        0.1192
     24 H           4.4346   -3.5124   17.1516 H       1  UNL1        0.1192
     25 N           6.6347   -1.6103   26.3687 N.pl3   1  UNL1       -0.2980
     26 H           7.4589   -1.1031   26.1874 H       1  UNL1        0.1536
     27 C           6.6469   -2.7287   27.3681 C.ar    1  UNL1        0.0518
     28 C           6.6603   -4.1535   26.8992 C.ar    1  UNL1        0.0171
     29 C           6.6724   -5.2719   27.8988 C.ar    1  UNL1        0.0332
     30 C           6.6712   -4.9656   29.3672 C.ar    1  UNL1        0.1675
     31 F           6.6834   -6.0840   30.3666 F       1  UNL1       -0.2018
     32 C           6.6579   -3.5408   29.8361 C.ar    1  UNL1        0.1686
     33 F           6.6567   -3.2344   31.3044 F       1  UNL1       -0.2018
     34 C           6.6457   -2.4224   28.8365 C.ar    1  UNL1        0.0466
@<TRIPOS>BOND
     1    19    20    1
     2    20    21    1
     3    20    22    1
     4    20     1    1
     5     1     2    2
     6     1     3   am
     7     3     4    1
     8     4     5    1
     9     5     6    1
    10     6     7   ar
    11     7     8   ar
    12     8     9   ar
    13     9    12    1
    14    12    13   ar
    15    13    14   ar
    16    14    15   ar
    17    15    16    1
    18    15    17   ar
    19    17    18   ar
    20     9    10   ar
    21    10    25    1
    22    25    27    1
    23    27    28   ar
    24    28    29   ar
    25    29    30   ar
    26    30    31    1
    27    30    32   ar
    28    32    33    1
    29    32    34   ar
    30     7    11    1
    31    11     3    1
    32    10     6   ar
    33    34    27   ar
    34    18    12   ar
    35    22    23    1
    36    22    24    1
    37    25    26    1
@<TRIPOS>MOLECULE
*****
 34 37 0 0 0
SMALL
GASTEIGER

@<TRIPOS>ATOM
      1 C           7.2378   -4.8899   25.9476 C.2     1  UNL1        0.2383
      2 O           7.4688   -6.1002   25.0922 O.2     1  UNL1       -0.2735
      3 N           6.4317   -3.7407   25.4190 N.am    1  UNL1       -0.2695
      4 C           6.2007   -2.5304   26.2743 C.3     1  UNL1        0.1184
      5 C           5.3946   -1.3811   25.7457 C.3     1  UNL1        0.1299
      6 N           4.8195   -1.4422   24.3617 N.ar    1  UNL1       -0.3005
      7 C           5.0505   -2.6525   23.5063 C.ar    1  UNL1        0.1416
      8 N           4.3635   -2.4290   22.1917 N.ar    1  UNL1       -0.2279
      9 C           3.7079   -1.0806   22.2347 C.ar    1  UNL1        0.1125
     10 C           3.9897   -0.4707   23.5758 C.ar    1  UNL1        0.1318
     11 C           5.8566   -3.8017   24.0350 C.3     1  UNL1        0.1578
     12 C           2.9105   -0.4523   21.1304 C.ar    1  UNL1        0.0205
     13 C           1.4115   -0.4791   21.1789 C.ar    1  UNL1        0.0039
     14 C           0.6140    0.1492   20.0747 C.ar    1  UNL1        0.0297
     15 C           1.3155    0.8042   18.9220 C.ar    1  UNL1        0.1401
     16 F           0.5181    1.4325   17.8177 F       1  UNL1       -0.2042
     17 C           2.8145    0.8311   18.8735 C.ar    1  UNL1        0.0297
     18 C           3.6120    0.2028   19.9777 C.ar    1  UNL1        0.0039
     19 C           6.5424   -5.4031   27.8848 C.3     1  UNL1        0.0249
     20 C           7.8129   -4.8289   27.3316 C.3     1  UNL1        0.1089
     21 C           9.0834   -4.2547   26.7783 C.3     1  UNL1        0.0249
     22 N           8.3879   -4.7678   28.7157 N.3     1  UNL1       -0.3164
     23 H           9.3328   -4.3858   28.6747 H       1  UNL1        0.1192
     24 H           8.4177   -5.7067   29.1132 H       1  UNL1        0.1192
     25 N           3.5236    0.8745   24.0482 N.pl3   1  UNL1       -0.2980
     26 H           4.0013    1.6879   23.7663 H       1  UNL1        0.1536
     27 C           2.3297    0.9806   24.9499 C.ar    1  UNL1        0.0518
     28 C           0.9670    1.2093   24.3664 C.ar    1  UNL1        0.0171
     29 C          -0.2270    1.3154   25.2683 C.ar    1  UNL1        0.0332
     30 C          -0.0581    1.1926   26.7538 C.ar    1  UNL1        0.1675
     31 F          -1.2520    1.2986   27.6555 F       1  UNL1       -0.2018
     32 C           1.3047    0.9639   27.3373 C.ar    1  UNL1        0.1686
     33 F           1.4736    0.8411   28.8227 F       1  UNL1       -0.2018
     34 C           2.4985    0.8578   26.4354 C.ar    1  UNL1        0.0466
@<TRIPOS>BOND
     1    19    20    1
     2    20    21    1
     3    20    22    1
     4    20     1    1
     5     1     2    2
     6     1     3   am
     7     3     4    1
     8     4     5    1
     9     5     6    1
    10     6     7   ar
    11     7     8   ar
    12     8     9   ar
    13     9    12    1
    14    12    13   ar
    15    13    14   ar
    16    14    15   ar
    17    15    16    1
    18    15    17   ar
    19    17    18   ar
    20     9    10   ar
    21    10    25    1
    22    25    27    1
    23    27    28   ar
    24    28    29   ar
    25    29    30   ar
    26    30    31    1
    27    30    32   ar
    28    32    33    1
    29    32    34   ar
    30     7    11    1
    31    11     3    1
    32    10     6   ar
    33    34    27   ar
    34    18    12   ar
    35    22    23    1
    36    22    24    1
    37    25    26    1
@<TRIPOS>MOLECULE
*****
 34 37 0 0 0
SMALL
GASTEIGER

@<TRIPOS>ATOM
      1 C          -1.7513    3.5913   21.9024 C.2     1  UNL1        0.2383
      2 O          -2.3325    3.6520   23.2838 O.2     1  UNL1       -0.2735
      3 N          -0.5114    2.7872   21.6451 N.am    1  UNL1       -0.2695
      4 C           0.0699    2.7265   20.2636 C.3     1  UNL1        0.1184
      5 C           1.3098    1.9225   20.0063 C.3     1  UNL1        0.1299
      6 N           1.9684    1.1792   21.1304 N.ar    1  UNL1       -0.3005
      7 C           1.3872    1.2400   22.5119 C.ar    1  UNL1        0.1416
      8 N           2.2501    0.4091   23.4148 N.ar    1  UNL1       -0.2279
      9 C           3.3646   -0.1651   22.5914 C.ar    1  UNL1        0.1125
     10 C           3.1905    0.3109   21.1795 C.ar    1  UNL1        0.1318
     11 C           0.1473    2.0440   22.7692 C.3     1  UNL1        0.1578
     12 C           4.4608   -1.0584   23.0918 C.ar    1  UNL1        0.0205
     13 C           4.2892   -2.5482   23.0564 C.ar    1  UNL1        0.0039
     14 C           5.3853   -3.4415   23.5568 C.ar    1  UNL1        0.0297
     15 C           6.6530   -2.8451   24.0927 C.ar    1  UNL1        0.1401
     16 F           7.7492   -3.7385   24.5931 F       1  UNL1       -0.2042
     17 C           6.8246   -1.3554   24.1281 C.ar    1  UNL1        0.0297
     18 C           5.7285   -0.4620   23.6277 C.ar    1  UNL1        0.0039
     19 C          -3.3747    3.2008   20.5940 C.3     1  UNL1        0.0249
     20 C          -2.4099    4.3345   20.7783 C.3     1  UNL1        0.1089
     21 C          -1.4452    5.4682   20.9625 C.3     1  UNL1        0.0249
     22 N          -3.0686    5.0778   19.6541 N.3     1  UNL1       -0.3164
     23 H          -2.5994    5.9731   19.5174 H       1  UNL1        0.1192
     24 H          -4.0496    5.2393   19.8820 H       1  UNL1        0.1192
     25 N           4.0820   -0.0230   20.0203 N.pl3   1  UNL1       -0.2980
     26 H           4.5063    0.6985   19.5020 H       1  UNL1        0.1536
     27 C           4.3270   -1.4559   19.6509 C.ar    1  UNL1        0.0518
     28 C           5.7289   -1.9482   19.4447 C.ar    1  UNL1        0.0171
     29 C           5.9738   -3.3813   19.0752 C.ar    1  UNL1        0.0332
     30 C           4.8170   -4.3220   18.9119 C.ar    1  UNL1        0.1675
     31 F           5.0620   -5.7550   18.5425 F       1  UNL1       -0.2018
     32 C           3.4151   -3.8297   19.1181 C.ar    1  UNL1        0.1686
     33 F           2.2582   -4.7704   18.9548 F       1  UNL1       -0.2018
     34 C           3.1702   -2.3967   19.4875 C.ar    1  UNL1        0.0466
@<TRIPOS>BOND
     1    19    20    1
     2    20    21    1
     3    20    22    1
     4    20     1    1
     5     1     2    2
     6     1     3   am
     7     3     4    1
     8     4     5    1
     9     5     6    1
    10     6     7   ar
    11     7     8   ar
    12     8     9   ar
    13     9    12    1
    14    12    13   ar
    15    13    14   ar
    16    14    15   ar
    17    15    16    1
    18    15    17   ar
    19    17    18   ar
    20     9    10   ar
    21    10    25    1
    22    25    27    1
    23    27    28   ar
    24    28    29   ar
    25    29    30   ar
    26    30    31    1
    27    30    32   ar
    28    32    33    1
    29    32    34   ar
    30     7    11    1
    31    11     3    1
    32    10     6   ar
    33    34    27   ar
    34    18    12   ar
    35    22    23    1
    36    22    24    1
    37    25    26    1
@<TRIPOS>MOLECULE
*****
 34 37 0 0 0
SMALL
GASTEIGER

@<TRIPOS>ATOM
      1 C           7.8292   -4.7792   29.9921 C.2     1  UNL1        0.2383
      2 O           7.9592   -6.2729   30.0347 O.2     1  UNL1       -0.2735
      3 N           7.4808   -4.0931   28.7045 N.am    1  UNL1       -0.2695
      4 C           7.3508   -2.5994   28.6619 C.3     1  UNL1        0.1184
      5 C           7.0024   -1.9133   27.3744 C.3     1  UNL1        0.1299
      6 N           6.7839   -2.7209   26.1294 N.ar    1  UNL1       -0.3005
      7 C           6.9139   -4.2146   26.1720 C.ar    1  UNL1        0.1416
      8 N           6.6428   -4.7430   24.7945 N.ar    1  UNL1       -0.2279
      9 C           6.3453   -3.5758   23.9006 C.ar    1  UNL1        0.1125
     10 C           6.4325   -2.3261   24.7256 C.ar    1  UNL1        0.1318
     11 C           7.2623   -4.9007   27.4596 C.3     1  UNL1        0.1578
     12 C           6.0179   -3.6459   22.4384 C.ar    1  UNL1        0.0205
     13 C           4.6096   -3.9142   21.9971 C.ar    1  UNL1        0.0039
     14 C           4.2823   -3.9843   20.5350 C.ar    1  UNL1        0.0297
     15 C           5.3633   -3.7862   19.5141 C.ar    1  UNL1        0.1401
     16 F           5.0360   -3.8563   18.0519 F       1  UNL1       -0.2042
     17 C           6.7716   -3.5179   19.9554 C.ar    1  UNL1        0.0297
     18 C           7.0989   -3.4478   21.4175 C.ar    1  UNL1        0.0039
     19 C           9.5209   -3.9384   30.9570 C.3     1  UNL1        0.0249
     20 C           8.0477   -3.9716   31.2371 C.3     1  UNL1        0.1089
     21 C           6.5745   -4.0048   31.5172 C.3     1  UNL1        0.0249
     22 N           8.2662   -3.1639   32.4821 N.3     1  UNL1       -0.3164
     23 H           7.3712   -3.0022   32.9439 H       1  UNL1        0.1192
     24 H           8.6889   -2.2687   32.2368 H       1  UNL1        0.1192
     25 N           6.2078   -0.9271   24.2333 N.pl3   1  UNL1       -0.2980
     26 H           6.8083   -0.2018   24.5206 H       1  UNL1        0.1536
     27 C           5.0682   -0.6332   23.3033 C.ar    1  UNL1        0.0518
     28 C           3.6537   -0.7873   23.7782 C.ar    1  UNL1        0.0171
     29 C           2.5140   -0.4934   22.8481 C.ar    1  UNL1        0.0332
     30 C           2.7890   -0.0454   21.4432 C.ar    1  UNL1        0.1675
     31 F           1.6494    0.2485   20.5132 F       1  UNL1       -0.2018
     32 C           4.2034    0.1086   20.9683 C.ar    1  UNL1        0.1686
     33 F           4.4784    0.5566   19.5634 F       1  UNL1       -0.2018
     34 C           5.3430   -0.1853   21.8984 C.ar    1  UNL1        0.0466
@<TRIPOS>BOND
     1    19    20    1
     2    20    21    1
     3    20    22    1
     4    20     1    1
     5     1     2    2
     6     1     3   am
     7     3     4    1
     8     4     5    1
     9     5     6    1
    10     6     7   ar
    11     7     8   ar
    12     8     9   ar
    13     9    12    1
    14    12    13   ar
    15    13    14   ar
    16    14    15   ar
    17    15    16    1
    18    15    17   ar
    19    17    18   ar
    20     9    10   ar
    21    10    25    1
    22    25    27    1
    23    27    28   ar
    24    28    29   ar
    25    29    30   ar
    26    30    31    1
    27    30    32   ar
    28    32    33    1
    29    32    34   ar
    30     7    11    1
    31    11     3    1
    32    10     6   ar
    33    34    27   ar
    34    18    12   ar
    35    22    23    1
    36    22    24    1
    37    25    26    1
