@<TRIPOS>MOLECULE
*****
 30 32 0 0 0
SMALL
GASTEIGER

@<TRIPOS>ATOM
      1 C         -11.5848   -4.9535   18.6420 C.3     1  UNL1        0.0952
      2 C         -10.6892   -3.7522   18.5735 C.3     1  UNL1        0.0233
      3 C          -9.6751   -3.9911   17.4943 C.3     1  UNL1        0.0233
      4 C          -9.9441   -5.3399   16.8958 C.3     1  UNL1        0.0935
      5 N         -11.1244   -5.9348   17.6051 N.am    1  UNL1       -0.2794
      6 C         -11.7366   -7.2754   17.3264 C.2     1  UNL1        0.2270
      7 O         -11.1646   -8.1526   16.2525 O.2     1  UNL1       -0.2748
      8 C         -12.7385   -5.1407   19.5823 C.3     1  UNL1        0.1131
      9 C         -13.7722   -3.2083   20.9777 C.3     1  UNL1        0.1149
     10 N         -13.7615   -4.0550   19.7396 N.am    1  UNL1       -0.2761
     11 C         -14.7739   -3.8161   18.6588 C.2     1  UNL1        0.2252
     12 O         -14.7631   -4.6629   17.4207 O.2     1  UNL1       -0.2749
     13 C         -15.7969   -2.7305   18.8162 C.3     1  UNL1        0.0767
     14 C         -16.1455   -1.2728   18.8759 C.3     1  UNL1        0.0096
     15 C         -17.2203   -2.3078   19.0292 C.3     1  UNL1        0.0096
     16 C         -12.9210   -7.7389   18.1217 C.3     1  UNL1        0.1010
     17 C         -14.0818   -8.3890   17.4288 C.3     1  UNL1        0.0644
     18 N         -14.3506   -8.0976   15.9822 N.3     1  UNL1       -0.3215
     19 H         -13.6518   -7.4424   15.6317 H       1  UNL1        0.1188
     20 H         -15.2797   -7.6880   15.8848 H       1  UNL1        0.1188
     21 C         -14.9736   -9.3304   18.1826 C.3     1  UNL1        0.0447
     22 C         -16.2430   -8.8263   18.8029 C.ar    1  UNL1        0.0090
     23 C         -16.4346   -7.3559   19.0293 C.ar    1  UNL1        0.0300
     24 C         -17.7039   -6.8518   19.6497 C.ar    1  UNL1        0.1672
     25 F         -17.8956   -5.3814   19.8761 F       1  UNL1       -0.2018
     26 C         -18.7815   -7.8181   20.0435 C.ar    1  UNL1        0.1696
     27 F         -20.0508   -7.3139   20.6639 F       1  UNL1       -0.2017
     28 C         -18.5898   -9.2884   19.8171 C.ar    1  UNL1        0.0612
     29 C         -17.3205   -9.7925   19.1968 C.ar    1  UNL1        0.1386
     30 F         -17.1288  -11.2629   18.9704 F       1  UNL1       -0.2044
@<TRIPOS>BOND
     1     9    10    1
     2    10     8    1
     3     1     8    1
     4     1     2    1
     5     2     3    1
     6     3     4    1
     7     4     5    1
     8     5     6   am
     9     6     7    2
    10     6    16    1
    11    16    17    1
    12    17    18    1
    13    17    21    1
    14    21    22    1
    15    22    23   ar
    16    23    24   ar
    17    24    25    1
    18    24    26   ar
    19    26    27    1
    20    26    28   ar
    21    28    29   ar
    22    29    30    1
    23    10    11   am
    24    11    12    2
    25    11    13    1
    26    13    14    1
    27    14    15    1
    28     5     1    1
    29    29    22   ar
    30    15    13    1
    31    18    19    1
    32    18    20    1
@<TRIPOS>MOLECULE
*****
 30 32 0 0 0
SMALL
GASTEIGER

@<TRIPOS>ATOM
      1 C         -12.1676   -1.7440   17.2088 C.3     1  UNL1        0.0952
      2 C         -11.3175   -0.6156   16.7047 C.3     1  UNL1        0.0233
      3 C         -11.7990    0.6508   17.3485 C.3     1  UNL1        0.0233
      4 C         -12.9466    0.3051   18.2503 C.3     1  UNL1        0.0935
      5 N         -13.1745   -1.1749   18.1640 N.am    1  UNL1       -0.2794
      6 C         -14.2247   -1.9499   18.9031 C.2     1  UNL1        0.2270
      7 O         -15.1668   -1.2406   19.8302 O.2     1  UNL1       -0.2748
      8 C         -12.0343   -3.1879   16.8250 C.3     1  UNL1        0.1131
      9 C         -10.5253   -3.6010   18.8992 C.3     1  UNL1        0.1149
     10 N         -11.1891   -4.1092   17.6538 N.am    1  UNL1       -0.2761
     11 C         -11.0078   -5.5388   17.2371 C.2     1  UNL1        0.2252
     12 O         -11.6716   -6.0469   15.9917 O.2     1  UNL1       -0.2749
     13 C         -10.1626   -6.4600   18.0659 C.3     1  UNL1        0.0767
     14 C          -9.6351   -7.8350   18.3507 C.3     1  UNL1        0.0096
     15 C          -9.2262   -6.6807   19.2168 C.3     1  UNL1        0.0096
     16 C         -14.3329   -3.4341   18.7152 C.3     1  UNL1        0.1010
     17 C         -14.1652   -4.3529   19.8890 C.3     1  UNL1        0.0644
     18 N         -14.3909   -3.8407   21.2807 N.3     1  UNL1       -0.3215
     19 H         -14.6497   -2.8548   21.2423 H       1  UNL1        0.1188
     20 H         -13.5348   -3.9465   21.8250 H       1  UNL1        0.1188
     21 C         -13.7718   -5.7839   19.6712 C.3     1  UNL1        0.0447
     22 C         -14.7981   -6.7851   19.2302 C.ar    1  UNL1        0.0090
     23 C         -16.2358   -6.6061   19.6186 C.ar    1  UNL1        0.0300
     24 C         -17.2620   -7.6073   19.1776 C.ar    1  UNL1        0.1672
     25 F         -18.6998   -7.4283   19.5660 F       1  UNL1       -0.2018
     26 C         -16.8506   -8.7874   18.3481 C.ar    1  UNL1        0.1696
     27 F         -17.8769   -9.7886   17.9071 F       1  UNL1       -0.2017
     28 C         -15.4129   -8.9663   17.9597 C.ar    1  UNL1        0.0612
     29 C         -14.3866   -7.9652   18.4007 C.ar    1  UNL1        0.1386
     30 F         -12.9489   -8.1441   18.0122 F       1  UNL1       -0.2044
@<TRIPOS>BOND
     1     9    10    1
     2    10     8    1
     3     1     8    1
     4     1     2    1
     5     2     3    1
     6     3     4    1
     7     4     5    1
     8     5     6   am
     9     6     7    2
    10     6    16    1
    11    16    17    1
    12    17    18    1
    13    17    21    1
    14    21    22    1
    15    22    23   ar
    16    23    24   ar
    17    24    25    1
    18    24    26   ar
    19    26    27    1
    20    26    28   ar
    21    28    29   ar
    22    29    30    1
    23    10    11   am
    24    11    12    2
    25    11    13    1
    26    13    14    1
    27    14    15    1
    28     5     1    1
    29    29    22   ar
    30    15    13    1
    31    18    19    1
    32    18    20    1
@<TRIPOS>MOLECULE
*****
 30 32 0 0 0
SMALL
GASTEIGER

@<TRIPOS>ATOM
      1 C         -11.2954   -5.8643   18.6923 C.3     1  UNL1        0.0952
      2 C          -9.9516   -6.4733   18.9633 C.3     1  UNL1        0.0233
      3 C          -9.8188   -7.7008   18.1114 C.3     1  UNL1        0.0233
      4 C         -11.0804   -7.8503   17.3139 C.3     1  UNL1        0.0935
      5 N         -11.9930   -6.7153   17.6730 N.am    1  UNL1       -0.2794
      6 C         -13.3627   -6.4738   17.1113 C.2     1  UNL1        0.2270
      7 O         -13.9325   -7.4160   16.0927 O.2     1  UNL1       -0.2748
      8 C         -11.8450   -4.6223   19.3290 C.3     1  UNL1        0.1131
      9 C         -10.5313   -3.0942   17.6892 C.3     1  UNL1        0.1149
     10 N         -11.6539   -3.2913   18.6643 N.am    1  UNL1       -0.2761
     11 C         -12.5855   -2.1573   18.9747 C.2     1  UNL1        0.2252
     12 O         -13.7081   -2.3543   19.9498 O.2     1  UNL1       -0.2749
     13 C         -12.3943   -0.8263   18.3099 C.3     1  UNL1        0.0767
     14 C         -12.8055    0.6043   18.1248 C.3     1  UNL1        0.0096
     15 C         -11.6519    0.0485   17.3436 C.3     1  UNL1        0.0096
     16 C         -14.1626   -5.2901   17.5682 C.3     1  UNL1        0.1010
     17 C         -15.0885   -5.4182   18.7414 C.3     1  UNL1        0.0644
     18 N         -15.9542   -4.2611   19.1435 N.3     1  UNL1       -0.3215
     19 H         -15.7854   -3.4756   18.5150 H       1  UNL1        0.1188
     20 H         -15.7307   -3.9854   20.0998 H       1  UNL1        0.1188
     21 C         -15.1488   -6.7034   19.5124 C.3     1  UNL1        0.0447
     22 C         -16.1771   -7.7389   19.1652 C.ar    1  UNL1        0.0090
     23 C         -17.6365   -7.4260   19.3141 C.ar    1  UNL1        0.0300
     24 C         -18.6647   -8.4614   18.9668 C.ar    1  UNL1        0.1672
     25 F         -20.1242   -8.1485   19.1157 F       1  UNL1       -0.2018
     26 C         -18.2336   -9.8097   18.4707 C.ar    1  UNL1        0.1696
     27 F         -19.2619  -10.8451   18.1235 F       1  UNL1       -0.2017
     28 C         -16.7742  -10.1226   18.3218 C.ar    1  UNL1        0.0612
     29 C         -15.7460   -9.0872   18.6691 C.ar    1  UNL1        0.1386
     30 F         -14.2865   -9.4001   18.5202 F       1  UNL1       -0.2044
@<TRIPOS>BOND
     1     9    10    1
     2    10     8    1
     3     1     8    1
     4     1     2    1
     5     2     3    1
     6     3     4    1
     7     4     5    1
     8     5     6   am
     9     6     7    2
    10     6    16    1
    11    16    17    1
    12    17    18    1
    13    17    21    1
    14    21    22    1
    15    22    23   ar
    16    23    24   ar
    17    24    25    1
    18    24    26   ar
    19    26    27    1
    20    26    28   ar
    21    28    29   ar
    22    29    30    1
    23    10    11   am
    24    11    12    2
    25    11    13    1
    26    13    14    1
    27    14    15    1
    28     5     1    1
    29    29    22   ar
    30    15    13    1
    31    18    19    1
    32    18    20    1
@<TRIPOS>MOLECULE
*****
 30 32 0 0 0
SMALL
GASTEIGER

@<TRIPOS>ATOM
      1 C         -15.7422   -2.0277   18.6952 C.3     1  UNL1        0.0952
      2 C         -17.0177   -1.8984   19.4739 C.3     1  UNL1        0.0233
      3 C         -17.0460   -0.5325   20.0935 C.3     1  UNL1        0.0233
      4 C         -15.7880    0.1821   19.6977 C.3     1  UNL1        0.0935
      5 N         -14.9822   -0.7419   18.8336 N.am    1  UNL1       -0.2794
      6 C         -13.6503   -0.4342   18.2161 C.2     1  UNL1        0.2270
      7 O         -13.0089    0.9025   18.4440 O.2     1  UNL1       -0.2748
      8 C         -15.3037   -3.2316   17.9152 C.3     1  UNL1        0.1131
      9 C         -17.1232   -4.9516   17.2217 C.3     1  UNL1        0.1149
     10 N         -15.9912   -4.5490   18.1197 N.am    1  UNL1       -0.2761
     11 C         -15.5466   -5.4637   19.2223 C.2     1  UNL1        0.2252
     12 O         -14.4146   -5.0611   20.1203 O.2     1  UNL1       -0.2749
     13 C         -16.2341   -6.7811   19.4267 C.3     1  UNL1        0.0767
     14 C         -16.1955   -8.2806   19.4252 C.3     1  UNL1        0.0096
     15 C         -17.4636   -7.5634   19.7823 C.3     1  UNL1        0.0096
     16 C         -12.9598   -1.4631   17.3709 C.3     1  UNL1        0.1010
     17 C         -11.6909   -2.1013   17.8533 C.3     1  UNL1        0.0644
     18 N         -10.3687   -1.6436   17.3128 N.3     1  UNL1       -0.3215
     19 H         -10.5189   -0.8980   16.6331 H       1  UNL1        0.1188
     20 H          -9.8970   -2.4265   16.8600 H       1  UNL1        0.1188
     21 C         -11.7443   -3.1971   18.8762 C.3     1  UNL1        0.0447
     22 C         -11.3009   -4.5835   18.5139 C.ar    1  UNL1        0.0090
     23 C         -10.2169   -5.2548   19.3041 C.ar    1  UNL1        0.0300
     24 C          -9.7735   -6.6412   18.9418 C.ar    1  UNL1        0.1672
     25 F          -8.6895   -7.3125   19.7320 F       1  UNL1       -0.2018
     26 C         -10.4141   -7.3563   17.7893 C.ar    1  UNL1        0.1696
     27 F          -9.9706   -8.7427   17.4270 F       1  UNL1       -0.2017
     28 C         -11.4980   -6.6850   16.9991 C.ar    1  UNL1        0.0612
     29 C         -11.9414   -5.2987   17.3614 C.ar    1  UNL1        0.1386
     30 F         -13.0254   -4.6273   16.5712 F       1  UNL1       -0.2044
@<TRIPOS>BOND
     1     9    10    1
     2    10     8    1
     3     1     8    1
     4     1     2    1
     5     2     3    1
     6     3     4    1
     7     4     5    1
     8     5     6   am
     9     6     7    2
    10     6    16    1
    11    16    17    1
    12    17    18    1
    13    17    21    1
    14    21    22    1
    15    22    23   ar
    16    23    24   ar
    17    24    25    1
    18    24    26   ar
    19    26    27    1
    20    26    28   ar
    21    28    29   ar
    22    29    30    1
    23    10    11   am
    24    11    12    2
    25    11    13    1
    26    13    14    1
    27    14    15    1
    28     5     1    1
    29    29    22   ar
    30    15    13    1
    31    18    19    1
    32    18    20    1
@<TRIPOS>MOLECULE
*****
 30 32 0 0 0
SMALL
GASTEIGER

@<TRIPOS>ATOM
      1 C           7.3302   -4.2370   23.9773 C.3     1  UNL1        0.0952
      2 C           7.8691   -5.6248   23.7942 C.3     1  UNL1        0.0233
      3 C           7.7690   -6.3383   25.1099 C.3     1  UNL1        0.0233
      4 C           7.1682   -5.3914   26.1061 C.3     1  UNL1        0.0935
      5 N           6.8970   -4.0928   25.4061 N.am    1  UNL1       -0.2794
      6 C           6.2978   -2.8654   26.0261 C.2     1  UNL1        0.2270
      7 O           5.9115   -2.8695   27.4755 O.2     1  UNL1       -0.2748
      8 C           7.2403   -3.1792   22.9176 C.3     1  UNL1        0.1131
      9 C           7.4955   -3.5452   20.3581 C.3     1  UNL1        0.1149
     10 N           6.6331   -3.5027   21.5847 N.am    1  UNL1       -0.2761
     11 C           5.1634   -3.7836   21.4783 C.2     1  UNL1        0.2252
     12 O           4.3010   -3.7411   22.7049 O.2     1  UNL1       -0.2749
     13 C           4.5563   -4.1070   20.1454 C.3     1  UNL1        0.0767
     14 C           4.6978   -4.2888   18.6632 C.3     1  UNL1        0.0096
     15 C           3.3631   -4.4854   19.3188 C.3     1  UNL1        0.0096
     16 C           6.0849   -1.6338   25.1967 C.3     1  UNL1        0.1010
     17 C           4.7120   -1.0430   25.0700 C.3     1  UNL1        0.0644
     18 N           3.5819   -1.5885   25.8919 N.3     1  UNL1       -0.3215
     19 H           3.9239   -2.3514   26.4761 H       1  UNL1        0.1188
     20 H           2.8488   -1.9360   25.2737 H       1  UNL1        0.1188
     21 C           4.4691    0.0933   24.1214 C.3     1  UNL1        0.0447
     22 C           4.2217   -0.1828   22.6679 C.ar    1  UNL1        0.0090
     23 C           2.8521   -0.5799   22.2025 C.ar    1  UNL1        0.0300
     24 C           2.6048   -0.8560   20.7490 C.ar    1  UNL1        0.1672
     25 F           1.2352   -1.2531   20.2835 F       1  UNL1       -0.2018
     26 C           3.7270   -0.7351   19.7611 C.ar    1  UNL1        0.1696
     27 F           3.4796   -1.0112   18.3075 F       1  UNL1       -0.2017
     28 C           5.0965   -0.3380   20.2265 C.ar    1  UNL1        0.0612
     29 C           5.3438   -0.0619   21.6799 C.ar    1  UNL1        0.1386
     30 F           6.7134    0.3351   22.1455 F       1  UNL1       -0.2044
@<TRIPOS>BOND
     1     9    10    1
     2    10     8    1
     3     1     8    1
     4     1     2    1
     5     2     3    1
     6     3     4    1
     7     4     5    1
     8     5     6   am
     9     6     7    2
    10     6    16    1
    11    16    17    1
    12    17    18    1
    13    17    21    1
    14    21    22    1
    15    22    23   ar
    16    23    24   ar
    17    24    25    1
    18    24    26   ar
    19    26    27    1
    20    26    28   ar
    21    28    29   ar
    22    29    30    1
    23    10    11   am
    24    11    12    2
    25    11    13    1
    26    13    14    1
    27    14    15    1
    28     5     1    1
    29    29    22   ar
    30    15    13    1
    31    18    19    1
    32    18    20    1
@<TRIPOS>MOLECULE
*****
 30 32 0 0 0
SMALL
GASTEIGER

@<TRIPOS>ATOM
      1 C         -17.0010   -3.1253   17.4879 C.3     1  UNL1        0.0952
      2 C         -18.4984   -3.0760   17.4149 C.3     1  UNL1        0.0233
      3 C         -18.9384   -1.7072   17.8428 C.3     1  UNL1        0.0233
      4 C         -17.7130   -0.9107   18.1801 C.3     1  UNL1        0.0935
      5 N         -16.5156   -1.7870   17.9608 N.am    1  UNL1       -0.2794
      6 C         -15.0841   -1.3942   18.1764 C.2     1  UNL1        0.2270
      7 O         -14.7495   -0.0124   18.6548 O.2     1  UNL1       -0.2748
      8 C         -16.1401   -4.3056   17.1477 C.3     1  UNL1        0.1131
      9 C         -16.9344   -6.7356   16.6853 C.3     1  UNL1        0.1149
     10 N         -16.5060   -5.6705   17.6507 N.am    1  UNL1       -0.2761
     11 C         -16.4435   -5.9704   19.1191 C.2     1  UNL1        0.2252
     12 O         -16.0151   -4.9053   20.0845 O.2     1  UNL1       -0.2749
     13 C         -16.8094   -7.3353   19.6220 C.3     1  UNL1        0.0767
     14 C         -17.8173   -8.2735   20.2169 C.3     1  UNL1        0.0096
     15 C         -16.4352   -8.7615   19.8982 C.3     1  UNL1        0.0096
     16 C         -13.9873   -2.3831   17.9138 C.3     1  UNL1        0.1010
     17 C         -12.7834   -2.4228   18.8077 C.3     1  UNL1        0.0644
     18 N         -11.8142   -1.2780   18.8118 N.3     1  UNL1       -0.3215
     19 H         -12.1270   -0.5653   18.1525 H       1  UNL1        0.1188
     20 H         -10.8908   -1.6132   18.5373 H       1  UNL1        0.1188
     21 C         -12.5486   -3.6073   19.6975 C.3     1  UNL1        0.0447
     22 C         -11.9540   -4.8634   19.1328 C.ar    1  UNL1        0.0090
     23 C         -12.8412   -6.0201   18.7792 C.ar    1  UNL1        0.0300
     24 C         -12.2465   -7.2761   18.2146 C.ar    1  UNL1        0.1672
     25 F         -13.1337   -8.4328   17.8609 F       1  UNL1       -0.2018
     26 C         -10.7648   -7.3754   18.0036 C.ar    1  UNL1        0.1696
     27 F         -10.1701   -8.6315   17.4390 F       1  UNL1       -0.2017
     28 C          -9.8776   -6.2188   18.3573 C.ar    1  UNL1        0.0612
     29 C         -10.4723   -4.9628   18.9219 C.ar    1  UNL1        0.1386
     30 F          -9.5851   -3.8061   19.2756 F       1  UNL1       -0.2044
@<TRIPOS>BOND
     1     9    10    1
     2    10     8    1
     3     1     8    1
     4     1     2    1
     5     2     3    1
     6     3     4    1
     7     4     5    1
     8     5     6   am
     9     6     7    2
    10     6    16    1
    11    16    17    1
    12    17    18    1
    13    17    21    1
    14    21    22    1
    15    22    23   ar
    16    23    24   ar
    17    24    25    1
    18    24    26   ar
    19    26    27    1
    20    26    28   ar
    21    28    29   ar
    22    29    30    1
    23    10    11   am
    24    11    12    2
    25    11    13    1
    26    13    14    1
    27    14    15    1
    28     5     1    1
    29    29    22   ar
    30    15    13    1
    31    18    19    1
    32    18    20    1
@<TRIPOS>MOLECULE
*****
 30 32 0 0 0
SMALL
GASTEIGER

@<TRIPOS>ATOM
      1 C         -16.9808   -3.8348   16.6783 C.3     1  UNL1        0.0952
      2 C         -18.3325   -4.1152   16.0915 C.3     1  UNL1        0.0233
      3 C         -19.0771   -2.8161   16.0013 C.3     1  UNL1        0.0233
      4 C         -18.1856   -1.7330   16.5323 C.3     1  UNL1        0.0935
      5 N         -16.8900   -2.3625   16.9508 N.am    1  UNL1       -0.2794
      6 C         -15.7108   -1.6457   17.5384 C.2     1  UNL1        0.2270
      7 O         -15.7660   -0.1623   17.7541 O.2     1  UNL1       -0.2748
      8 C         -15.9082   -4.8487   16.9458 C.3     1  UNL1        0.1131
      9 C         -16.2018   -7.4176   16.6918 C.3     1  UNL1        0.1149
     10 N         -16.2654   -6.1801   17.5371 N.am    1  UNL1       -0.2761
     11 C         -16.6863   -6.2741   18.9738 C.2     1  UNL1        0.2252
     12 O         -16.7500   -5.0366   19.8192 O.2     1  UNL1       -0.2749
     13 C         -17.0435   -7.6055   19.5650 C.3     1  UNL1        0.0767
     14 C         -18.0807   -8.5846   20.0295 C.3     1  UNL1        0.0096
     15 C         -16.6249   -8.9328   20.1247 C.3     1  UNL1        0.0096
     16 C         -14.4763   -2.4122   17.9104 C.3     1  UNL1        0.1010
     17 C         -14.1250   -2.6132   19.3549 C.3     1  UNL1        0.0644
     18 N         -15.1920   -2.5252   20.4055 N.3     1  UNL1       -0.3215
     19 H         -16.0888   -2.3240   19.9632 H       1  UNL1        0.1188
     20 H         -14.9619   -1.7795   21.0622 H       1  UNL1        0.1188
     21 C         -12.7067   -2.9020   19.7486 C.3     1  UNL1        0.0447
     22 C         -12.0168   -4.1258   19.2229 C.ar    1  UNL1        0.0090
     23 C         -10.7699   -3.9888   18.4004 C.ar    1  UNL1        0.0300
     24 C         -10.0800   -5.2126   17.8748 C.ar    1  UNL1        0.1672
     25 F          -8.8331   -5.0757   17.0522 F       1  UNL1       -0.2018
     26 C         -10.6370   -6.5734   18.1716 C.ar    1  UNL1        0.1696
     27 F          -9.9471   -7.7972   17.6458 F       1  UNL1       -0.2017
     28 C         -11.8839   -6.7104   18.9940 C.ar    1  UNL1        0.0612
     29 C         -12.5738   -5.4866   19.5197 C.ar    1  UNL1        0.1386
     30 F         -13.8207   -5.6236   20.3422 F       1  UNL1       -0.2044
@<TRIPOS>BOND
     1     9    10    1
     2    10     8    1
     3     1     8    1
     4     1     2    1
     5     2     3    1
     6     3     4    1
     7     4     5    1
     8     5     6   am
     9     6     7    2
    10     6    16    1
    11    16    17    1
    12    17    18    1
    13    17    21    1
    14    21    22    1
    15    22    23   ar
    16    23    24   ar
    17    24    25    1
    18    24    26   ar
    19    26    27    1
    20    26    28   ar
    21    28    29   ar
    22    29    30    1
    23    10    11   am
    24    11    12    2
    25    11    13    1
    26    13    14    1
    27    14    15    1
    28     5     1    1
    29    29    22   ar
    30    15    13    1
    31    18    19    1
    32    18    20    1
@<TRIPOS>MOLECULE
*****
 30 32 0 0 0
SMALL
GASTEIGER

@<TRIPOS>ATOM
      1 C         -13.1751   -2.5009   17.7046 C.3     1  UNL1        0.0952
      2 C         -12.0776   -1.4787   17.7280 C.3     1  UNL1        0.0233
      3 C         -12.6495   -0.1967   18.2566 C.3     1  UNL1        0.0233
      4 C         -14.1004   -0.4266   18.5599 C.3     1  UNL1        0.0935
      5 N         -14.4252   -1.8507   18.2188 N.am    1  UNL1       -0.2794
      6 C         -15.7650   -2.5090   18.3660 C.2     1  UNL1        0.2270
      7 O         -16.9301   -1.7279   18.8974 O.2     1  UNL1       -0.2748
      8 C         -13.0452   -3.9236   17.2474 C.3     1  UNL1        0.1131
      9 C         -10.5888   -4.4664   16.5983 C.3     1  UNL1        0.1149
     10 N         -11.7724   -4.6778   17.4951 N.am    1  UNL1       -0.2761
     11 C         -11.6834   -5.6433   18.6396 C.2     1  UNL1        0.2252
     12 O         -12.8670   -5.8547   19.5364 O.2     1  UNL1       -0.2749
     13 C         -10.4106   -6.3974   18.8872 C.3     1  UNL1        0.0767
     14 C          -9.5980   -7.6518   18.7598 C.3     1  UNL1        0.0096
     15 C          -9.0185   -6.4491   19.4435 C.3     1  UNL1        0.0096
     16 C         -15.9396   -3.9484   17.9818 C.3     1  UNL1        0.1010
     17 C         -17.1225   -4.7210   18.4858 C.3     1  UNL1        0.0644
     18 N         -18.4638   -4.5463   17.8375 N.3     1  UNL1       -0.3215
     19 H         -18.3887   -3.8702   17.0776 H       1  UNL1        0.1188
     20 H         -19.1339   -4.2084   18.5283 H       1  UNL1        0.1188
     21 C         -16.9640   -5.6682   19.6380 C.3     1  UNL1        0.0447
     22 C         -16.9905   -7.1492   19.4006 C.ar    1  UNL1        0.0090
     23 C         -15.8489   -7.8156   18.6916 C.ar    1  UNL1        0.0300
     24 C         -15.8755   -9.2965   18.4543 C.ar    1  UNL1        0.1672
     25 F         -14.7339   -9.9630   17.7453 F       1  UNL1       -0.2018
     26 C         -17.0436  -10.1108   18.9258 C.ar    1  UNL1        0.1696
     27 F         -17.0701  -11.5917   18.6884 F       1  UNL1       -0.2017
     28 C         -18.1851   -9.4443   19.6348 C.ar    1  UNL1        0.0612
     29 C         -18.1586   -7.9635   19.8721 C.ar    1  UNL1        0.1386
     30 F         -19.3002   -7.2970   20.5811 F       1  UNL1       -0.2044
@<TRIPOS>BOND
     1     9    10    1
     2    10     8    1
     3     1     8    1
     4     1     2    1
     5     2     3    1
     6     3     4    1
     7     4     5    1
     8     5     6   am
     9     6     7    2
    10     6    16    1
    11    16    17    1
    12    17    18    1
    13    17    21    1
    14    21    22    1
    15    22    23   ar
    16    23    24   ar
    17    24    25    1
    18    24    26   ar
    19    26    27    1
    20    26    28   ar
    21    28    29   ar
    22    29    30    1
    23    10    11   am
    24    11    12    2
    25    11    13    1
    26    13    14    1
    27    14    15    1
    28     5     1    1
    29    29    22   ar
    30    15    13    1
    31    18    19    1
    32    18    20    1
@<TRIPOS>MOLECULE
*****
 30 32 0 0 0
SMALL
GASTEIGER

@<TRIPOS>ATOM
      1 C         -16.1158   -4.8062   18.1619 C.3     1  UNL1        0.0952
      2 C         -17.2407   -3.9451   17.6689 C.3     1  UNL1        0.0233
      3 C         -17.2841   -2.7087   18.5173 C.3     1  UNL1        0.0233
      4 C         -16.1860   -2.8058   19.5345 C.3     1  UNL1        0.0935
      5 N         -15.4639   -4.1020   19.3149 N.am    1  UNL1       -0.2794
      6 C         -14.2952   -4.6057   20.1088 C.2     1  UNL1        0.2270
      7 O         -13.7484   -3.7869   21.2404 O.2     1  UNL1       -0.2748
      8 C         -15.7134   -6.1377   17.6005 C.3     1  UNL1        0.1131
      9 C         -18.0340   -7.2223   18.0343 C.3     1  UNL1        0.1149
     10 N         -16.5476   -7.3525   17.8799 N.am    1  UNL1       -0.2761
     11 C         -15.8955   -8.6976   18.0050 C.2     1  UNL1        0.2252
     12 O         -14.4092   -8.8278   17.8506 O.2     1  UNL1       -0.2749
     13 C         -16.7298   -9.9124   18.2845 C.3     1  UNL1        0.0767
     14 C         -18.0680  -10.5891   18.3204 C.3     1  UNL1        0.0096
     15 C         -16.8367  -11.3399   18.7327 C.3     1  UNL1        0.0096
     16 C         -13.6733   -5.9283   19.7711 C.3     1  UNL1        0.1010
     17 C         -12.3771   -5.9770   19.0177 C.3     1  UNL1        0.0644
     18 N         -12.1859   -6.9795   17.9184 N.3     1  UNL1       -0.3215
     19 H         -13.0313   -7.5416   17.8200 H       1  UNL1        0.1188
     20 H         -11.3983   -7.5867   18.1451 H       1  UNL1        0.1188
     21 C         -11.2722   -5.0234   19.3637 C.3     1  UNL1        0.0447
     22 C         -11.0434   -3.8033   18.5216 C.ar    1  UNL1        0.0090
     23 C         -11.6672   -2.4958   18.9105 C.ar    1  UNL1        0.0300
     24 C         -11.4383   -1.2758   18.0685 C.ar    1  UNL1        0.1672
     25 F         -12.0621    0.0318   18.4574 F       1  UNL1       -0.2018
     26 C         -10.5858   -1.3632   16.8374 C.ar    1  UNL1        0.1696
     27 F         -10.3570   -0.1431   15.9953 F       1  UNL1       -0.2017
     28 C          -9.9620   -2.6707   16.4485 C.ar    1  UNL1        0.0612
     29 C         -10.1908   -3.8907   17.2905 C.ar    1  UNL1        0.1386
     30 F          -9.5670   -5.1983   16.9016 F       1  UNL1       -0.2044
@<TRIPOS>BOND
     1     9    10    1
     2    10     8    1
     3     1     8    1
     4     1     2    1
     5     2     3    1
     6     3     4    1
     7     4     5    1
     8     5     6   am
     9     6     7    2
    10     6    16    1
    11    16    17    1
    12    17    18    1
    13    17    21    1
    14    21    22    1
    15    22    23   ar
    16    23    24   ar
    17    24    25    1
    18    24    26   ar
    19    26    27    1
    20    26    28   ar
    21    28    29   ar
    22    29    30    1
    23    10    11   am
    24    11    12    2
    25    11    13    1
    26    13    14    1
    27    14    15    1
    28     5     1    1
    29    29    22   ar
    30    15    13    1
    31    18    19    1
    32    18    20    1
