@<TRIPOS>MOLECULE
*****
 39 43 0 0 0
SMALL
GASTEIGER

@<TRIPOS>ATOM
      1 C           1.2951    1.0180   22.4007 C.ar    1  UNL1        0.0611
      2 C           0.5910    2.1642   23.0643 C.ar    1  UNL1        0.1037
      3 N           1.0883    2.2587   24.4763 N.ar    1  UNL1       -0.2269
      4 C           2.0997    1.1709   24.6854 C.ar    1  UNL1        0.1407
      5 N           2.9208    0.7795   25.8781 N.ar    1  UNL1       -0.3374
      6 C           3.8697   -0.3787   25.7880 C.ar    1  UNL1        0.0735
      7 C           3.9975   -1.1455   24.5052 C.ar    1  UNL1        0.0201
      8 C           3.1764   -0.7542   23.3125 C.ar    1  UNL1        0.0047
      9 C           2.2275    0.4041   23.4026 C.ar    1  UNL1        0.0386
     10 H           2.8370    1.2828   26.7200 H       1  UNL1        0.1674
     11 C           4.9464   -2.3038   24.4151 C.ar    1  UNL1        0.0399
     12 C           5.8723   -2.6053   25.5560 C.ar    1  UNL1        0.1034
     13 N           6.8212   -3.7635   25.4660 N.ar    1  UNL1       -0.2121
     14 C           6.8442   -4.6203   24.2349 C.ar    1  UNL1        0.2202
     15 N           5.9182   -4.3187   23.0939 N.ar    1  UNL1       -0.2121
     16 C           4.9694   -3.1605   23.1840 C.ar    1  UNL1        0.1034
     17 N           7.7930   -5.7785   24.1448 N.pl3   1  UNL1       -0.2782
     18 C           8.6850   -6.0991   22.9822 C.3     1  UNL1        0.0937
     19 C           9.4598   -7.3382   23.3203 C.3     1  UNL1        0.0233
     20 C           9.0466   -7.7834   24.6919 C.3     1  UNL1        0.0233
     21 C           8.0165   -6.8194   25.2014 C.3     1  UNL1        0.0937
     22 C           1.1008    0.5651   20.9840 C.2     1  UNL1        0.2015
     23 O          -0.2224    0.0085   20.5492 O.2     1  UNL1       -0.2864
     24 C           4.0425   -0.4691   18.5289 C.ar    1  UNL1        0.0920
     25 C           4.4881    0.8764   18.0378 C.ar    1  UNL1        0.0204
     26 C           3.8046    2.1181   18.5288 C.ar    1  UNL1        0.0312
     27 C           2.6756    2.0144   19.5108 C.ar    1  UNL1        0.1454
     28 F           1.9921    3.2561   20.0018 F       1  UNL1       -0.2040
     29 C           2.2300    0.6689   20.0019 C.ar    1  UNL1        0.0951
     30 C           2.9135   -0.5728   19.5109 C.ar    1  UNL1        0.1598
     31 F           2.4678   -1.9182   20.0020 F       1  UNL1       -0.2026
     32 N           4.7260   -1.7108   18.0379 N.pl3   1  UNL1       -0.2166
     33 H           4.2541   -2.3249   17.4302 H       1  UNL1        0.1734
     34 S           6.1285   -2.0168   18.4730 S.O2    1  UNL1        0.0540
     35 O           6.6461   -1.5143   17.1578 O.2     1  UNL1       -0.1545
     36 O           5.6110   -2.5192   19.7881 O.2     1  UNL1       -0.1545
     37 C           7.5310   -2.3228   18.9081 C.3     1  UNL1        0.1724
     38 C           9.1849   -3.2183   20.7006 C.3     1  UNL1        0.0019
     39 C           7.7800   -2.9596   20.2433 C.3     1  UNL1        0.0273
@<TRIPOS>BOND
     1    38    39    1
     2    39    37    1
     3    37    34    1
     4    34    35    2
     5    34    36    2
     6    34    32    1
     7    32    24    1
     8    24    25   ar
     9    25    26   ar
    10    26    27   ar
    11    27    28    1
    12    27    29   ar
    13    29    22    1
    14    22    23    2
    15    22     1    1
    16     1     2   ar
    17     2     3   ar
    18     3     4   ar
    19     4     5   ar
    20     5     6   ar
    21     6     7   ar
    22     7    11    1
    23    11    12   ar
    24    12    13   ar
    25    13    14   ar
    26    14    17    1
    27    17    18    1
    28    18    19    1
    29    19    20    1
    30    20    21    1
    31    14    15   ar
    32    15    16   ar
    33     7     8   ar
    34     8     9   ar
    35    29    30   ar
    36    30    31    1
    37    30    24   ar
    38     9     1   ar
    39     9     4    1
    40    16    11   ar
    41    21    17    1
    42    32    33    1
    43     5    10    1
@<TRIPOS>MOLECULE
*****
 39 43 0 0 0
SMALL
GASTEIGER

@<TRIPOS>ATOM
      1 C           6.6860   -3.3214   29.9389 C.ar    1  UNL1        0.0611
      2 C           6.8351   -4.2687   31.0923 C.ar    1  UNL1        0.1037
      3 N           6.9947   -5.6531   30.5375 N.ar    1  UNL1       -0.2269
      4 C           6.9442   -5.5615   29.0411 C.ar    1  UNL1        0.1407
      5 N           7.0474   -6.6041   27.9677 N.ar    1  UNL1       -0.3374
      6 C           6.9597   -6.2056   26.5243 C.ar    1  UNL1        0.0735
      7 C           6.7689   -4.7646   26.1543 C.ar    1  UNL1        0.0201
      8 C           6.6658   -3.7220   27.2277 C.ar    1  UNL1        0.0047
      9 C           6.7534   -4.1204   28.6711 C.ar    1  UNL1        0.0386
     10 H           7.1726   -7.5499   28.2106 H       1  UNL1        0.1674
     11 C           6.6813   -4.3661   24.7108 C.ar    1  UNL1        0.0399
     12 C           5.7801   -3.2408   24.2968 C.ar    1  UNL1        0.1034
     13 N           5.6924   -2.8424   22.8533 N.ar    1  UNL1       -0.2121
     14 C           6.5060   -3.5693   21.8239 C.ar    1  UNL1        0.2202
     15 N           7.4072   -4.6946   22.2380 N.ar    1  UNL1       -0.2121
     16 C           7.4949   -5.0930   23.6814 C.ar    1  UNL1        0.1034
     17 N           6.4184   -3.1709   20.3804 N.pl3   1  UNL1       -0.2782
     18 C           7.4780   -2.4533   19.5979 C.3     1  UNL1        0.0937
     19 C           6.9703   -2.2590   18.1999 C.3     1  UNL1        0.0233
     20 C           5.5968   -2.8566   18.1184 C.3     1  UNL1        0.0233
     21 C           5.2558   -3.4201   19.4660 C.3     1  UNL1        0.0937
     22 C           6.5017   -1.8360   30.0360 C.2     1  UNL1        0.2015
     23 O           7.6819   -0.9224   29.8858 O.2     1  UNL1       -0.2864
     24 C           2.7958   -0.5668   29.3993 C.ar    1  UNL1        0.0920
     25 C           2.4083   -0.1201   30.7778 C.ar    1  UNL1        0.0204
     26 C           3.3853   -0.2454   31.9091 C.ar    1  UNL1        0.0312
     27 C           4.7498   -0.8174   31.6619 C.ar    1  UNL1        0.1454
     28 F           5.7268   -0.9427   32.7931 F       1  UNL1       -0.2040
     29 C           5.1372   -1.2640   30.2833 C.ar    1  UNL1        0.0951
     30 C           4.1602   -1.1387   29.1520 C.ar    1  UNL1        0.1598
     31 F           4.5477   -1.5854   27.7735 F       1  UNL1       -0.2026
     32 N           1.8188   -0.4415   28.2680 N.pl3   1  UNL1       -0.2166
     33 H           1.7531   -1.1551   27.5930 H       1  UNL1        0.1734
     34 S           0.9419    0.7711   28.1652 S.O2    1  UNL1        0.0540
     35 O          -0.2498   -0.0588   28.5407 O.2     1  UNL1       -0.1545
     36 O           2.1336    1.6011   27.7898 O.2     1  UNL1       -0.1545
     37 C           0.0650    1.9838   28.0624 C.3     1  UNL1        0.1724
     38 C          -0.6467    1.9898   25.5637 C.3     1  UNL1        0.0019
     39 C          -1.0099    2.0458   27.0180 C.3     1  UNL1        0.0273
@<TRIPOS>BOND
     1    38    39    1
     2    39    37    1
     3    37    34    1
     4    34    35    2
     5    34    36    2
     6    34    32    1
     7    32    24    1
     8    24    25   ar
     9    25    26   ar
    10    26    27   ar
    11    27    28    1
    12    27    29   ar
    13    29    22    1
    14    22    23    2
    15    22     1    1
    16     1     2   ar
    17     2     3   ar
    18     3     4   ar
    19     4     5   ar
    20     5     6   ar
    21     6     7   ar
    22     7    11    1
    23    11    12   ar
    24    12    13   ar
    25    13    14   ar
    26    14    17    1
    27    17    18    1
    28    18    19    1
    29    19    20    1
    30    20    21    1
    31    14    15   ar
    32    15    16   ar
    33     7     8   ar
    34     8     9   ar
    35    29    30   ar
    36    30    31    1
    37    30    24   ar
    38     9     1   ar
    39     9     4    1
    40    16    11   ar
    41    21    17    1
    42    32    33    1
    43     5    10    1
@<TRIPOS>MOLECULE
*****
 39 43 0 0 0
SMALL
GASTEIGER

@<TRIPOS>ATOM
      1 C           4.9010   -3.2349   22.4924 C.ar    1  UNL1        0.0611
      2 C           5.8778   -3.8150   23.4718 C.ar    1  UNL1        0.1037
      3 N           5.7825   -3.0261   24.7440 N.ar    1  UNL1       -0.2269
      4 C           4.7468   -1.9583   24.5508 C.ar    1  UNL1        0.1407
      5 N           4.2294   -0.8853   25.4623 N.ar    1  UNL1       -0.3374
      6 C           3.1673    0.0587   24.9822 C.ar    1  UNL1        0.0735
      7 C           2.6224   -0.0703   23.5906 C.ar    1  UNL1        0.0201
      8 C           3.1398   -1.1434   22.6791 C.ar    1  UNL1        0.0047
      9 C           4.2020   -2.0874   23.1592 C.ar    1  UNL1        0.0386
     10 H           4.5870   -0.8006   26.3756 H       1  UNL1        0.1674
     11 C           1.5602    0.8738   23.1105 C.ar    1  UNL1        0.0399
     12 C           0.8760    0.6284   21.7984 C.ar    1  UNL1        0.1034
     13 N          -0.1862    1.5725   21.3183 N.ar    1  UNL1       -0.2121
     14 C          -0.5642    2.7619   22.1504 C.ar    1  UNL1        0.2202
     15 N           0.1200    3.0073   23.4625 N.ar    1  UNL1       -0.2121
     16 C           1.1822    2.0632   23.9426 C.ar    1  UNL1        0.1034
     17 N          -1.6264    3.7060   21.6703 N.pl3   1  UNL1       -0.2782
     18 C          -1.4988    4.6694   20.5277 C.3     1  UNL1        0.0937
     19 C          -2.7962    5.4113   20.3998 C.3     1  UNL1        0.0233
     20 C          -3.7257    4.9062   21.4634 C.3     1  UNL1        0.0233
     21 C          -3.0027    3.8523   22.2486 C.3     1  UNL1        0.0937
     22 C           4.6646   -3.7175   21.0919 C.2     1  UNL1        0.2015
     23 O           4.0590   -5.0693   20.8566 O.2     1  UNL1       -0.2864
     24 C           4.3647   -1.1119   18.1134 C.ar    1  UNL1        0.0920
     25 C           5.7727   -1.1093   17.5962 C.ar    1  UNL1        0.0204
     26 C           6.8113   -1.9761   18.2442 C.ar    1  UNL1        0.0312
     27 C           6.4420   -2.8455   19.4094 C.ar    1  UNL1        0.1454
     28 F           7.4807   -3.7123   20.0574 F       1  UNL1       -0.2040
     29 C           5.0340   -2.8480   19.9266 C.ar    1  UNL1        0.0951
     30 C           3.9954   -1.9812   19.2786 C.ar    1  UNL1        0.1598
     31 F           2.5874   -1.9839   19.7960 F       1  UNL1       -0.2026
     32 N           3.3261   -0.2451   17.4655 N.pl3   1  UNL1       -0.2166
     33 H           2.9688   -0.4836   16.5796 H       1  UNL1        0.1734
     34 S           2.8319    0.9851   18.1671 S.O2    1  UNL1        0.0540
     35 O           4.2176    1.5585   18.1379 O.2     1  UNL1       -0.1545
     36 O           1.4461    0.4117   18.1964 O.2     1  UNL1       -0.1545
     37 C           2.3376    2.2153   18.8688 C.3     1  UNL1        0.1724
     38 C           2.6271    4.0027   20.7320 C.3     1  UNL1        0.0019
     39 C           3.1813    2.8670   19.9240 C.3     1  UNL1        0.0273
@<TRIPOS>BOND
     1    38    39    1
     2    39    37    1
     3    37    34    1
     4    34    35    2
     5    34    36    2
     6    34    32    1
     7    32    24    1
     8    24    25   ar
     9    25    26   ar
    10    26    27   ar
    11    27    28    1
    12    27    29   ar
    13    29    22    1
    14    22    23    2
    15    22     1    1
    16     1     2   ar
    17     2     3   ar
    18     3     4   ar
    19     4     5   ar
    20     5     6   ar
    21     6     7   ar
    22     7    11    1
    23    11    12   ar
    24    12    13   ar
    25    13    14   ar
    26    14    17    1
    27    17    18    1
    28    18    19    1
    29    19    20    1
    30    20    21    1
    31    14    15   ar
    32    15    16   ar
    33     7     8   ar
    34     8     9   ar
    35    29    30   ar
    36    30    31    1
    37    30    24   ar
    38     9     1   ar
    39     9     4    1
    40    16    11   ar
    41    21    17    1
    42    32    33    1
    43     5    10    1
@<TRIPOS>MOLECULE
*****
 39 43 0 0 0
SMALL
GASTEIGER

@<TRIPOS>ATOM
      1 C          -3.1881    4.5286   21.2637 C.ar    1  UNL1        0.0611
      2 C          -3.6484    5.9302   20.9924 C.ar    1  UNL1        0.1037
      3 N          -2.7057    6.5437   20.0001 N.ar    1  UNL1       -0.2269
      4 C          -1.6627    5.5213   19.6581 C.ar    1  UNL1        0.1407
      5 N          -0.4800    5.5635   18.7364 N.ar    1  UNL1       -0.3374
      6 C           0.4044    4.3602   18.5958 C.ar    1  UNL1        0.0735
      7 C           0.1063    3.1148   19.3768 C.ar    1  UNL1        0.0201
      8 C          -1.0764    3.0726   20.2984 C.ar    1  UNL1        0.0047
      9 C          -1.9609    4.2759   20.4391 C.ar    1  UNL1        0.0386
     10 H          -0.2843    6.3809   18.2238 H       1  UNL1        0.1674
     11 C           0.9908    1.9115   19.2361 C.ar    1  UNL1        0.0399
     12 C           0.6062    0.6174   19.8896 C.ar    1  UNL1        0.1034
     13 N           1.4907   -0.5859   19.7490 N.ar    1  UNL1       -0.2121
     14 C           2.7600   -0.4950   18.9548 C.ar    1  UNL1        0.2202
     15 N           3.1446    0.7993   18.3012 N.ar    1  UNL1       -0.2121
     16 C           2.2601    2.0025   18.4419 C.ar    1  UNL1        0.1034
     17 N           3.6445   -1.6982   18.8141 N.pl3   1  UNL1       -0.2782
     18 C           3.3969   -3.0498   19.4156 C.3     1  UNL1        0.0937
     19 C           4.5313   -3.9480   19.0205 C.3     1  UNL1        0.0233
     20 C           5.4801   -3.1515   18.1746 C.3     1  UNL1        0.0233
     21 C           4.9320   -1.7610   18.0471 C.3     1  UNL1        0.0937
     22 C          -3.8405    3.5512   22.1960 C.2     1  UNL1        0.2015
     23 O          -4.7372    2.4792   21.6515 O.2     1  UNL1       -0.2864
     24 C          -1.9619    3.5837   25.6918 C.ar    1  UNL1        0.0920
     25 C          -3.1074    3.8353   26.6269 C.ar    1  UNL1        0.0204
     26 C          -4.4973    3.9922   26.0850 C.ar    1  UNL1        0.0312
     27 C          -4.7417    3.8975   24.6081 C.ar    1  UNL1        0.1454
     28 F          -6.1316    4.0544   24.0663 F       1  UNL1       -0.2040
     29 C          -3.5961    3.6459   23.6730 C.ar    1  UNL1        0.0951
     30 C          -2.2063    3.4890   24.2149 C.ar    1  UNL1        0.1598
     31 F          -1.0607    3.2374   23.2797 F       1  UNL1       -0.2026
     32 N          -0.5720    3.4268   26.2336 N.pl3   1  UNL1       -0.2166
     33 H           0.0971    4.1335   26.0846 H       1  UNL1        0.1734
     34 S          -0.2016    2.1933   27.0024 S.O2    1  UNL1        0.0540
     35 O          -0.1288    3.0014   28.2640 O.2     1  UNL1       -0.1545
     36 O          -0.2743    1.3851   25.7409 O.2     1  UNL1       -0.1545
     37 C           0.1688    0.9597   27.7712 C.3     1  UNL1        0.1724
     38 C          -1.6988   -0.3551   29.0096 C.3     1  UNL1        0.0019
     39 C          -0.5584    0.6189   29.0381 C.3     1  UNL1        0.0273
@<TRIPOS>BOND
     1    38    39    1
     2    39    37    1
     3    37    34    1
     4    34    35    2
     5    34    36    2
     6    34    32    1
     7    32    24    1
     8    24    25   ar
     9    25    26   ar
    10    26    27   ar
    11    27    28    1
    12    27    29   ar
    13    29    22    1
    14    22    23    2
    15    22     1    1
    16     1     2   ar
    17     2     3   ar
    18     3     4   ar
    19     4     5   ar
    20     5     6   ar
    21     6     7   ar
    22     7    11    1
    23    11    12   ar
    24    12    13   ar
    25    13    14   ar
    26    14    17    1
    27    17    18    1
    28    18    19    1
    29    19    20    1
    30    20    21    1
    31    14    15   ar
    32    15    16   ar
    33     7     8   ar
    34     8     9   ar
    35    29    30   ar
    36    30    31    1
    37    30    24   ar
    38     9     1   ar
    39     9     4    1
    40    16    11   ar
    41    21    17    1
    42    32    33    1
    43     5    10    1
@<TRIPOS>MOLECULE
*****
 39 43 0 0 0
SMALL
GASTEIGER

@<TRIPOS>ATOM
      1 C           5.0593   -2.2154   18.9969 C.ar    1  UNL1        0.0611
      2 C           5.4497   -1.5095   17.7323 C.ar    1  UNL1        0.1037
      3 N           6.9428   -1.5769   17.6060 N.ar    1  UNL1       -0.2269
      4 C           7.4752   -2.3244   18.7924 C.ar    1  UNL1        0.1407
      5 N           8.8696   -2.6967   19.2010 N.ar    1  UNL1       -0.3374
      6 C           9.0999   -3.4637   20.4693 C.ar    1  UNL1        0.0735
      7 C           7.9358   -3.8584   21.3290 C.ar    1  UNL1        0.0201
      8 C           6.5414   -3.4861   20.9204 C.ar    1  UNL1        0.0047
      9 C           6.3111   -2.7191   19.6521 C.ar    1  UNL1        0.0386
     10 H           9.6336   -2.4377   18.6368 H       1  UNL1        0.1674
     11 C           8.1661   -4.6254   22.5974 C.ar    1  UNL1        0.0399
     12 C           7.2584   -4.4196   23.7737 C.ar    1  UNL1        0.1034
     13 N           7.4888   -5.1866   25.0421 N.ar    1  UNL1       -0.2121
     14 C           8.6268   -6.1595   25.1341 C.ar    1  UNL1        0.2202
     15 N           9.5345   -6.3653   23.9577 N.ar    1  UNL1       -0.2121
     16 C           9.3041   -5.5983   22.6894 C.ar    1  UNL1        0.1034
     17 N           8.8572   -6.9265   26.4023 N.pl3   1  UNL1       -0.2782
     18 C           8.9270   -6.3458   27.7836 C.3     1  UNL1        0.0937
     19 C           9.1711   -7.4693   28.7470 C.3     1  UNL1        0.0233
     20 C           9.2522   -8.7444   27.9611 C.3     1  UNL1        0.0233
     21 C           9.0581   -8.4089   26.5120 C.3     1  UNL1        0.0937
     22 C           3.6623   -2.3875   19.5154 C.2     1  UNL1        0.2015
     23 O           2.8892   -3.6309   19.1896 O.2     1  UNL1       -0.2864
     24 C           2.5131   -0.3156   22.6992 C.ar    1  UNL1        0.0920
     25 C           1.7905    0.8265   22.0485 C.ar    1  UNL1        0.0204
     26 C           1.6918    0.8973   20.5534 C.ar    1  UNL1        0.0312
     27 C           2.3157   -0.1740   19.7090 C.ar    1  UNL1        0.1454
     28 F           2.2170   -0.1033   18.2140 F       1  UNL1       -0.2040
     29 C           3.0383   -1.3161   20.3598 C.ar    1  UNL1        0.0951
     30 C           3.1370   -1.3869   21.8549 C.ar    1  UNL1        0.1598
     31 F           3.8596   -2.5290   22.5055 F       1  UNL1       -0.2026
     32 N           2.6118   -0.3863   24.1943 N.pl3   1  UNL1       -0.2166
     33 H           1.8047   -0.5504   24.7337 H       1  UNL1        0.1734
     34 S           3.9402   -0.2071   24.8676 S.O2    1  UNL1        0.0540
     35 O           4.0253    1.1898   24.3278 O.2     1  UNL1       -0.1545
     36 O           3.8551   -1.6041   25.4073 O.2     1  UNL1       -0.1545
     37 C           5.2685   -0.0280   25.5408 C.3     1  UNL1        0.1724
     38 C           6.5617   -0.7411   23.4032 C.3     1  UNL1        0.0019
     39 C           6.5155   -0.5493   24.8901 C.3     1  UNL1        0.0273
@<TRIPOS>BOND
     1    38    39    1
     2    39    37    1
     3    37    34    1
     4    34    35    2
     5    34    36    2
     6    34    32    1
     7    32    24    1
     8    24    25   ar
     9    25    26   ar
    10    26    27   ar
    11    27    28    1
    12    27    29   ar
    13    29    22    1
    14    22    23    2
    15    22     1    1
    16     1     2   ar
    17     2     3   ar
    18     3     4   ar
    19     4     5   ar
    20     5     6   ar
    21     6     7   ar
    22     7    11    1
    23    11    12   ar
    24    12    13   ar
    25    13    14   ar
    26    14    17    1
    27    17    18    1
    28    18    19    1
    29    19    20    1
    30    20    21    1
    31    14    15   ar
    32    15    16   ar
    33     7     8   ar
    34     8     9   ar
    35    29    30   ar
    36    30    31    1
    37    30    24   ar
    38     9     1   ar
    39     9     4    1
    40    16    11   ar
    41    21    17    1
    42    32    33    1
    43     5    10    1
@<TRIPOS>MOLECULE
*****
 39 43 0 0 0
SMALL
GASTEIGER

@<TRIPOS>ATOM
      1 C           7.4274   -3.9042   27.7598 C.ar    1  UNL1        0.0611
      2 C           7.8310   -5.2583   27.2564 C.ar    1  UNL1        0.1037
      3 N           7.7225   -6.2277   28.3959 N.ar    1  UNL1       -0.2269
      4 C           7.2520   -5.4727   29.6036 C.ar    1  UNL1        0.1407
      5 N           6.9660   -5.9073   31.0105 N.ar    1  UNL1       -0.3374
      6 C           6.4977   -4.9058   32.0242 C.ar    1  UNL1        0.0735
      7 C           6.3153   -3.4698   31.6311 C.ar    1  UNL1        0.0201
      8 C           6.6013   -3.0352   30.2243 C.ar    1  UNL1        0.0047
      9 C           7.0696   -4.0366   29.2105 C.ar    1  UNL1        0.0386
     10 H           7.0857   -6.8498   31.2685 H       1  UNL1        0.1674
     11 C           5.8470   -2.4683   32.6450 C.ar    1  UNL1        0.0399
     12 C           6.7553   -1.3544   33.0739 C.ar    1  UNL1        0.1034
     13 N           6.2870   -0.3529   34.0878 N.ar    1  UNL1       -0.2121
     14 C           4.9102   -0.4655   34.6726 C.ar    1  UNL1        0.2202
     15 N           4.0019   -1.5794   34.2435 N.ar    1  UNL1       -0.2121
     16 C           4.4703   -2.5808   33.2298 C.ar    1  UNL1        0.1034
     17 N           4.4419    0.5359   35.6864 N.pl3   1  UNL1       -0.2782
     18 C           4.7557    0.5185   37.1531 C.3     1  UNL1        0.0937
     19 C           4.0852    1.7024   37.7847 C.3     1  UNL1        0.0233
     20 C           3.3570    2.4515   36.7082 C.3     1  UNL1        0.0233
     21 C           3.5775    1.7306   35.4114 C.3     1  UNL1        0.0937
     22 C           7.3886   -2.6395   26.9541 C.2     1  UNL1        0.2015
     23 O           8.3539   -1.5307   27.2516 O.2     1  UNL1       -0.2864
     24 C           5.6326   -2.9569   23.4092 C.ar    1  UNL1        0.0920
     25 C           4.3759   -2.1722   23.6442 C.ar    1  UNL1        0.0204
     26 C           4.1235   -1.5434   24.9824 C.ar    1  UNL1        0.0312
     27 C           5.1277   -1.6991   26.0857 C.ar    1  UNL1        0.1454
     28 F           4.8752   -1.0703   27.4239 F       1  UNL1       -0.2040
     29 C           6.3843   -2.4837   25.8508 C.ar    1  UNL1        0.0951
     30 C           6.6367   -3.1126   24.5125 C.ar    1  UNL1        0.1598
     31 F           7.8934   -3.8972   24.2777 F       1  UNL1       -0.2026
     32 N           5.8850   -3.5857   22.0710 N.pl3   1  UNL1       -0.2166
     33 H           6.6918   -4.1314   21.9279 H       1  UNL1        0.1734
     34 S           4.9082   -3.3831   20.9509 S.O2    1  UNL1        0.0540
     35 O           4.2059   -4.6520   21.3338 O.2     1  UNL1       -0.1545
     36 O           5.6105   -2.1142   20.5680 O.2     1  UNL1       -0.1545
     37 C           3.9314   -3.1804   19.8308 C.3     1  UNL1        0.1724
     38 C           2.2329   -1.2407   20.1525 C.3     1  UNL1        0.0019
     39 C           3.4575   -1.7986   19.4897 C.3     1  UNL1        0.0273
@<TRIPOS>BOND
     1    38    39    1
     2    39    37    1
     3    37    34    1
     4    34    35    2
     5    34    36    2
     6    34    32    1
     7    32    24    1
     8    24    25   ar
     9    25    26   ar
    10    26    27   ar
    11    27    28    1
    12    27    29   ar
    13    29    22    1
    14    22    23    2
    15    22     1    1
    16     1     2   ar
    17     2     3   ar
    18     3     4   ar
    19     4     5   ar
    20     5     6   ar
    21     6     7   ar
    22     7    11    1
    23    11    12   ar
    24    12    13   ar
    25    13    14   ar
    26    14    17    1
    27    17    18    1
    28    18    19    1
    29    19    20    1
    30    20    21    1
    31    14    15   ar
    32    15    16   ar
    33     7     8   ar
    34     8     9   ar
    35    29    30   ar
    36    30    31    1
    37    30    24   ar
    38     9     1   ar
    39     9     4    1
    40    16    11   ar
    41    21    17    1
    42    32    33    1
    43     5    10    1
@<TRIPOS>MOLECULE
*****
 39 43 0 0 0
SMALL
GASTEIGER

@<TRIPOS>ATOM
      1 C           3.6979   -1.7810   19.1226 C.ar    1  UNL1        0.0611
      2 C           3.5218   -1.2170   17.7439 C.ar    1  UNL1        0.1037
      3 N           2.9166    0.1491   17.8758 N.ar    1  UNL1       -0.2269
      4 C           2.7188    0.4295   19.3361 C.ar    1  UNL1        0.1407
      5 N           2.1614    1.6169   20.0636 N.ar    1  UNL1       -0.3374
      6 C           2.0868    1.6114   21.5617 C.ar    1  UNL1        0.0735
      7 C           2.5696    0.4184   22.3323 C.ar    1  UNL1        0.0201
      8 C           3.1271   -0.7690   21.6048 C.ar    1  UNL1        0.0047
      9 C           3.2017   -0.7634   20.1067 C.ar    1  UNL1        0.0386
     10 H           1.8445    2.3998   19.5578 H       1  UNL1        0.1674
     11 C           2.4950    0.4130   23.8305 C.ar    1  UNL1        0.0399
     12 C           1.4978    1.2843   24.5349 C.ar    1  UNL1        0.1034
     13 N           1.4232    1.2788   26.0331 N.ar    1  UNL1       -0.2121
     14 C           2.3459    0.4019   26.8268 C.ar    1  UNL1        0.2202
     15 N           3.3431   -0.4694   26.1222 N.ar    1  UNL1       -0.2121
     16 C           3.4177   -0.4639   24.6241 C.ar    1  UNL1        0.1034
     17 N           2.2713    0.3964   28.3249 N.pl3   1  UNL1       -0.2782
     18 C           1.5482    1.3983   29.1754 C.3     1  UNL1        0.0937
     19 C           1.7367    1.0092   30.6117 C.3     1  UNL1        0.0233
     20 C           2.5764   -0.2333   30.6488 C.3     1  UNL1        0.0233
     21 C           2.9068   -0.6120   29.2355 C.3     1  UNL1        0.0937
     22 C           4.2699   -3.1264   19.4585 C.2     1  UNL1        0.2015
     23 O           3.5274   -4.3731   19.0785 O.2     1  UNL1       -0.2864
     24 C           6.9467   -3.8166   22.3060 C.ar    1  UNL1        0.0920
     25 C           8.2134   -3.4225   21.6059 C.ar    1  UNL1        0.0204
     26 C           8.1656   -2.9297   20.1899 C.ar    1  UNL1        0.0312
     27 C           6.8511   -2.8310   19.4741 C.ar    1  UNL1        0.1454
     28 F           6.8033   -2.3382   18.0582 F       1  UNL1       -0.2040
     29 C           5.5844   -3.2251   20.1743 C.ar    1  UNL1        0.0951
     30 C           5.6323   -3.7178   21.5902 C.ar    1  UNL1        0.1598
     31 F           4.3655   -4.1119   22.2903 F       1  UNL1       -0.2026
     32 N           6.9945   -4.3093   23.7220 N.pl3   1  UNL1       -0.2166
     33 H           6.3081   -4.0222   24.3666 H       1  UNL1        0.1734
     34 S           8.0883   -5.2396   24.1558 S.O2    1  UNL1        0.0540
     35 O           8.4312   -4.3109   25.2827 O.2     1  UNL1       -0.1545
     36 O           7.7454   -6.1683   23.0288 O.2     1  UNL1       -0.1545
     37 C           9.1821   -6.1699   24.5895 C.3     1  UNL1        0.1724
     38 C           7.7773   -7.8439   25.9948 C.3     1  UNL1        0.0019
     39 C           8.8549   -7.5793   24.9854 C.3     1  UNL1        0.0273
@<TRIPOS>BOND
     1    38    39    1
     2    39    37    1
     3    37    34    1
     4    34    35    2
     5    34    36    2
     6    34    32    1
     7    32    24    1
     8    24    25   ar
     9    25    26   ar
    10    26    27   ar
    11    27    28    1
    12    27    29   ar
    13    29    22    1
    14    22    23    2
    15    22     1    1
    16     1     2   ar
    17     2     3   ar
    18     3     4   ar
    19     4     5   ar
    20     5     6   ar
    21     6     7   ar
    22     7    11    1
    23    11    12   ar
    24    12    13   ar
    25    13    14   ar
    26    14    17    1
    27    17    18    1
    28    18    19    1
    29    19    20    1
    30    20    21    1
    31    14    15   ar
    32    15    16   ar
    33     7     8   ar
    34     8     9   ar
    35    29    30   ar
    36    30    31    1
    37    30    24   ar
    38     9     1   ar
    39     9     4    1
    40    16    11   ar
    41    21    17    1
    42    32    33    1
    43     5    10    1
@<TRIPOS>MOLECULE
*****
 39 43 0 0 0
SMALL
GASTEIGER

@<TRIPOS>ATOM
      1 C           5.0019   -3.4558   20.3609 C.ar    1  UNL1        0.0611
      2 C           6.1411   -4.3275   19.9225 C.ar    1  UNL1        0.1037
      3 N           7.0461   -4.5347   21.1007 N.ar    1  UNL1       -0.2269
      4 C           6.4662   -3.7911   22.2672 C.ar    1  UNL1        0.1407
      5 N           6.9254   -3.6350   23.6866 N.ar    1  UNL1       -0.3374
      6 C           6.1211   -2.8121   24.6488 C.ar    1  UNL1        0.0735
      7 C           4.8577   -2.1452   24.1916 C.ar    1  UNL1        0.0201
      8 C           4.3985   -2.3013   22.7722 C.ar    1  UNL1        0.0047
      9 C           5.2028   -3.1242   21.8100 C.ar    1  UNL1        0.0386
     10 H           7.7546   -4.0727   23.9866 H       1  UNL1        0.1674
     11 C           4.0534   -1.3222   25.1539 C.ar    1  UNL1        0.0399
     12 C           4.1491   -1.5849   26.6276 C.ar    1  UNL1        0.1034
     13 N           3.3448   -0.7619   27.5899 N.ar    1  UNL1       -0.2121
     14 C           2.4449    0.3237   27.0784 C.ar    1  UNL1        0.2202
     15 N           2.3493    0.5864   25.6046 N.ar    1  UNL1       -0.2121
     16 C           3.1535   -0.2366   24.6424 C.ar    1  UNL1        0.1034
     17 N           1.6407    1.1467   28.0406 N.pl3   1  UNL1       -0.2782
     18 C           0.9431    0.6379   29.2672 C.3     1  UNL1        0.0937
     19 C           0.2641    1.7997   29.9298 C.3     1  UNL1        0.0233
     20 C           0.5421    3.0266   29.1128 C.3     1  UNL1        0.0233
     21 C           1.3928    2.6230   27.9452 C.3     1  UNL1        0.0937
     22 C           3.8618   -2.9962   19.5012 C.2     1  UNL1        0.2015
     23 O           2.8296   -3.9798   19.0355 O.2     1  UNL1       -0.2864
     24 C           2.4828    0.7117   19.1847 C.ar    1  UNL1        0.0920
     25 C           3.5383    1.3338   18.3192 C.ar    1  UNL1        0.0204
     26 C           4.7015    0.5125   17.8477 C.ar    1  UNL1        0.0312
     27 C           4.8094   -0.9308   18.2416 C.ar    1  UNL1        0.1454
     28 F           5.9727   -1.7520   17.7701 F       1  UNL1       -0.2040
     29 C           3.7540   -1.5528   19.1072 C.ar    1  UNL1        0.0951
     30 C           2.5907   -0.7315   19.5787 C.ar    1  UNL1        0.1598
     31 F           1.5353   -1.3537   20.4442 F       1  UNL1       -0.2026
     32 N           1.3195    1.5330   19.6562 N.pl3   1  UNL1       -0.2166
     33 H           0.8018    2.0684   19.0123 H       1  UNL1        0.1734
     34 S           0.9451    1.5385   21.1087 S.O2    1  UNL1        0.0540
     35 O           2.2786    2.1343   21.4502 O.2     1  UNL1       -0.1545
     36 O          -0.3885    0.9427   20.7671 O.2     1  UNL1       -0.1545
     37 C           0.5706    1.5440   22.5611 C.3     1  UNL1        0.1724
     38 C          -1.1525    3.3789   23.2051 C.3     1  UNL1        0.0019
     39 C           0.2459    2.8379   23.2471 C.3     1  UNL1        0.0273
@<TRIPOS>BOND
     1    38    39    1
     2    39    37    1
     3    37    34    1
     4    34    35    2
     5    34    36    2
     6    34    32    1
     7    32    24    1
     8    24    25   ar
     9    25    26   ar
    10    26    27   ar
    11    27    28    1
    12    27    29   ar
    13    29    22    1
    14    22    23    2
    15    22     1    1
    16     1     2   ar
    17     2     3   ar
    18     3     4   ar
    19     4     5   ar
    20     5     6   ar
    21     6     7   ar
    22     7    11    1
    23    11    12   ar
    24    12    13   ar
    25    13    14   ar
    26    14    17    1
    27    17    18    1
    28    18    19    1
    29    19    20    1
    30    20    21    1
    31    14    15   ar
    32    15    16   ar
    33     7     8   ar
    34     8     9   ar
    35    29    30   ar
    36    30    31    1
    37    30    24   ar
    38     9     1   ar
    39     9     4    1
    40    16    11   ar
    41    21    17    1
    42    32    33    1
    43     5    10    1
@<TRIPOS>MOLECULE
*****
 39 43 0 0 0
SMALL
GASTEIGER

@<TRIPOS>ATOM
      1 C           4.4491   -1.8796   18.6393 C.ar    1  UNL1        0.0611
      2 C           5.2029   -3.1038   18.2114 C.ar    1  UNL1        0.1037
      3 N           5.4950   -3.9198   19.4357 N.ar    1  UNL1       -0.2269
      4 C           4.9218   -3.1999   20.6202 C.ar    1  UNL1        0.1407
      5 N           4.9049   -3.5296   22.0834 N.ar    1  UNL1       -0.3374
      6 C           4.2416   -2.5984   23.0544 C.ar    1  UNL1        0.0735
      7 C           3.5952   -1.3375   22.5622 C.ar    1  UNL1        0.0201
      8 C           3.6121   -1.0078   21.0991 C.ar    1  UNL1        0.0047
      9 C           4.2754   -1.9389   20.1281 C.ar    1  UNL1        0.0386
     10 H           5.3291   -4.3572   22.4064 H       1  UNL1        0.1674
     11 C           2.9319   -0.4063   23.5333 C.ar    1  UNL1        0.0399
     12 C           1.9004    0.5701   23.0510 C.ar    1  UNL1        0.1034
     13 N           1.2371    1.5013   24.0221 N.ar    1  UNL1       -0.2121
     14 C           1.6053    1.4561   25.4755 C.ar    1  UNL1        0.2202
     15 N           2.6369    0.4796   25.9578 N.ar    1  UNL1       -0.2121
     16 C           3.3001   -0.4515   24.9867 C.ar    1  UNL1        0.1034
     17 N           0.9421    2.3872   26.4466 N.pl3   1  UNL1       -0.2782
     18 C           1.2772    2.5286   27.9018 C.3     1  UNL1        0.0937
     19 C           0.3695    3.5692   28.4876 C.3     1  UNL1        0.0233
     20 C          -0.5267    4.0710   27.3943 C.3     1  UNL1        0.0233
     21 C          -0.1728    3.3405   26.1329 C.3     1  UNL1        0.0937
     22 C           3.9557   -0.7877   17.7370 C.2     1  UNL1        0.2015
     23 O           3.8246   -1.0344   16.2633 O.2     1  UNL1       -0.2864
     24 C           1.7930    2.3101   18.9521 C.ar    1  UNL1        0.0920
     25 C           2.8688    3.2286   19.4511 C.ar    1  UNL1        0.0204
     26 C           4.3069    2.8084   19.3787 C.ar    1  UNL1        0.0312
     27 C           4.6693    1.4697   18.8074 C.ar    1  UNL1        0.1454
     28 F           6.1073    1.0494   18.7350 F       1  UNL1       -0.2040
     29 C           3.5934    0.5512   18.3084 C.ar    1  UNL1        0.0951
     30 C           2.1553    0.9714   18.3808 C.ar    1  UNL1        0.1598
     31 F           1.0795    0.0528   17.8818 F       1  UNL1       -0.2026
     32 N           0.3549    2.7304   19.0245 N.pl3   1  UNL1       -0.2166
     33 H          -0.1711    2.8299   18.1983 H       1  UNL1        0.1734
     34 S          -0.2818    2.9990   20.3558 S.O2    1  UNL1        0.0540
     35 O          -0.1155    4.4737   20.1378 O.2     1  UNL1       -0.1545
     36 O          -0.4482    1.5243   20.5739 O.2     1  UNL1       -0.1545
     37 C          -0.9186    3.2676   21.6871 C.3     1  UNL1        0.1724
     38 C          -3.2542    3.3565   20.5525 C.3     1  UNL1        0.0019
     39 C          -2.4034    3.4575   21.7837 C.3     1  UNL1        0.0273
@<TRIPOS>BOND
     1    38    39    1
     2    39    37    1
     3    37    34    1
     4    34    35    2
     5    34    36    2
     6    34    32    1
     7    32    24    1
     8    24    25   ar
     9    25    26   ar
    10    26    27   ar
    11    27    28    1
    12    27    29   ar
    13    29    22    1
    14    22    23    2
    15    22     1    1
    16     1     2   ar
    17     2     3   ar
    18     3     4   ar
    19     4     5   ar
    20     5     6   ar
    21     6     7   ar
    22     7    11    1
    23    11    12   ar
    24    12    13   ar
    25    13    14   ar
    26    14    17    1
    27    17    18    1
    28    18    19    1
    29    19    20    1
    30    20    21    1
    31    14    15   ar
    32    15    16   ar
    33     7     8   ar
    34     8     9   ar
    35    29    30   ar
    36    30    31    1
    37    30    24   ar
    38     9     1   ar
    39     9     4    1
    40    16    11   ar
    41    21    17    1
    42    32    33    1
    43     5    10    1
