@<TRIPOS>MOLECULE
*****
 31 35 0 0 0
SMALL
GASTEIGER

@<TRIPOS>ATOM
      1 C          -8.7736  -18.2746   21.6326 C.ar    1  UNL1        0.2014
      2 N          -9.9539  -19.1790   21.4351 N.ar    1  UNL1       -0.2136
      3 C         -11.1851  -18.4332   21.8570 C.ar    1  UNL1        0.0999
      4 C         -12.6338  -18.8210   21.8831 C.ar    1  UNL1        0.0207
      5 C         -13.6632  -17.8434   22.3675 C.ar    1  UNL1        0.0016
      6 C         -13.2438  -16.4781   22.8258 C.ar    1  UNL1        0.0016
      7 C         -11.7951  -16.0903   22.7997 C.ar    1  UNL1        0.0188
      8 C         -10.7657  -17.0679   22.3153 C.ar    1  UNL1        0.0801
      9 N          -9.2753  -16.9699   22.1766 N.ar    1  UNL1       -0.2954
     10 C          -4.4812  -19.2963   20.7483 C.3     1  UNL1        0.0763
     11 C          -4.9055  -18.9923   22.1546 C.3     1  UNL1        0.0413
     12 C          -6.3363  -18.6518   22.4493 C.3     1  UNL1        0.0953
     13 N          -7.3428  -18.6152   21.3378 N.pl3   1  UNL1       -0.2794
     14 C          -6.9186  -18.9191   19.9316 C.3     1  UNL1        0.0953
     15 C          -5.4878  -19.2596   19.6368 C.3     1  UNL1        0.0413
     16 C          -2.6640  -21.0540   20.1502 C.3     1  UNL1        0.1121
     17 N          -3.0505  -19.6368   20.4536 N.pl3   1  UNL1       -0.3073
     18 C          -2.0061  -18.5601   20.4622 C.ar    1  UNL1        0.0478
     19 C          -2.2743  -17.2608   21.1620 C.ar    1  UNL1        0.0145
     20 C          -1.2299  -16.1841   21.1706 C.ar    1  UNL1        0.0013
     21 C           0.0826  -16.4068   20.4795 C.ar    1  UNL1        0.0001
     22 C           0.3508  -17.7061   19.7797 C.ar    1  UNL1        0.0013
     23 C          -0.6936  -18.7828   19.7710 C.ar    1  UNL1        0.0145
     24 C          -8.4344  -15.7766   22.5213 C.3     1  UNL1        0.1354
     25 C          -7.9065  -15.6085   23.9152 C.ar    1  UNL1        0.0006
     26 C          -8.8472  -15.6464   25.0831 C.ar    1  UNL1       -0.0001
     27 C          -8.3194  -15.4783   26.4770 C.ar    1  UNL1        0.0294
     28 C          -6.8509  -15.2722   26.7032 C.ar    1  UNL1        0.1401
     29 F          -6.3231  -15.1041   28.0971 F       1  UNL1       -0.2042
     30 C          -5.9103  -15.2343   25.5354 C.ar    1  UNL1        0.0294
     31 C          -6.4381  -15.4024   24.1414 C.ar    1  UNL1       -0.0001
@<TRIPOS>BOND
     1    16    17    1
     2    17    18    1
     3    18    19   ar
     4    19    20   ar
     5    20    21   ar
     6    21    22   ar
     7    22    23   ar
     8    17    10    1
     9    10    11    1
    10    11    12    1
    11    12    13    1
    12    13     1    1
    13     1     2   ar
    14     2     3   ar
    15     3     4   ar
    16     4     5   ar
    17     5     6   ar
    18     6     7   ar
    19     7     8   ar
    20     8     9   ar
    21     9    24    1
    22    24    25    1
    23    25    26   ar
    24    26    27   ar
    25    27    28   ar
    26    28    29    1
    27    28    30   ar
    28    30    31   ar
    29    13    14    1
    30    14    15    1
    31    23    18   ar
    32    15    10    1
    33     9     1   ar
    34    31    25   ar
    35     8     3   ar
@<TRIPOS>MOLECULE
*****
 31 35 0 0 0
SMALL
GASTEIGER

@<TRIPOS>ATOM
      1 C           6.5931   -3.7402   23.5644 C.ar    1  UNL1        0.2014
      2 N           6.5542   -4.4846   24.8661 N.ar    1  UNL1       -0.2136
      3 C           7.4959   -5.6477   24.7634 C.ar    1  UNL1        0.0999
      4 C           7.8681   -6.7267   25.7365 C.ar    1  UNL1        0.0207
      5 C           8.8614   -7.7801   25.3445 C.ar    1  UNL1        0.0016
      6 C           9.4823   -7.7545   23.9794 C.ar    1  UNL1        0.0016
      7 C           9.1101   -6.6755   23.0062 C.ar    1  UNL1        0.0188
      8 C           8.1168   -5.6221   23.3982 C.ar    1  UNL1        0.0801
      9 N           7.5589   -4.4432   22.6572 N.ar    1  UNL1       -0.2954
     10 C           4.2279   -0.0466   22.5578 C.3     1  UNL1        0.0763
     11 C           5.6519    0.0755   23.0131 C.3     1  UNL1        0.0413
     12 C           6.4403   -1.1557   23.3486 C.3     1  UNL1        0.0953
     13 N           5.8047   -2.5090   23.2289 N.pl3   1  UNL1       -0.2794
     14 C           4.3807   -2.6312   22.7736 C.3     1  UNL1        0.0953
     15 C           3.5923   -1.4000   22.4381 C.3     1  UNL1        0.0413
     16 C           3.4809    2.3737   23.1355 C.3     1  UNL1        0.1121
     17 N           3.4395    1.1846   22.2222 N.pl3   1  UNL1       -0.3073
     18 C           2.6097    1.2266   20.9734 C.ar    1  UNL1        0.0478
     19 C           3.2746    1.1868   19.6294 C.ar    1  UNL1        0.0145
     20 C           2.4447    1.2288   18.3806 C.ar    1  UNL1        0.0013
     21 C           0.9500    1.3107   18.4757 C.ar    1  UNL1        0.0001
     22 C           0.2851    1.3504   19.8197 C.ar    1  UNL1        0.0013
     23 C           1.1149    1.3084   21.0686 C.ar    1  UNL1        0.0145
     24 C           7.9059   -4.0384   21.2552 C.3     1  UNL1        0.1354
     25 C           6.8512   -3.4615   20.3582 C.ar    1  UNL1        0.0006
     26 C           5.6918   -4.3080   19.9228 C.ar    1  UNL1       -0.0001
     27 C           4.6370   -3.7312   19.0258 C.ar    1  UNL1        0.0294
     28 C           4.7415   -2.3077   18.5643 C.ar    1  UNL1        0.1401
     29 F           3.6866   -1.7309   17.6673 F       1  UNL1       -0.2042
     30 C           5.9007   -1.4613   18.9997 C.ar    1  UNL1        0.0294
     31 C           6.9555   -2.0382   19.8966 C.ar    1  UNL1       -0.0001
@<TRIPOS>BOND
     1    16    17    1
     2    17    18    1
     3    18    19   ar
     4    19    20   ar
     5    20    21   ar
     6    21    22   ar
     7    22    23   ar
     8    17    10    1
     9    10    11    1
    10    11    12    1
    11    12    13    1
    12    13     1    1
    13     1     2   ar
    14     2     3   ar
    15     3     4   ar
    16     4     5   ar
    17     5     6   ar
    18     6     7   ar
    19     7     8   ar
    20     8     9   ar
    21     9    24    1
    22    24    25    1
    23    25    26   ar
    24    26    27   ar
    25    27    28   ar
    26    28    29    1
    27    28    30   ar
    28    30    31   ar
    29    13    14    1
    30    14    15    1
    31    23    18   ar
    32    15    10    1
    33     9     1   ar
    34    31    25   ar
    35     8     3   ar
@<TRIPOS>MOLECULE
*****
 31 35 0 0 0
SMALL
GASTEIGER

@<TRIPOS>ATOM
      1 C           3.4207   -0.2624   22.5061 C.ar    1  UNL1        0.2014
      2 N           2.4618    0.3173   23.5033 N.ar    1  UNL1       -0.2136
      3 C           1.4892    1.1850   22.7609 C.ar    1  UNL1        0.0999
      4 C           0.3240    2.0090   23.2226 C.ar    1  UNL1        0.0207
      5 C          -0.4835    2.7896   22.2283 C.ar    1  UNL1        0.0016
      6 C          -0.1257    2.7461   20.7722 C.ar    1  UNL1        0.0016
      7 C           1.0395    1.9221   20.3105 C.ar    1  UNL1        0.0188
      8 C           1.8470    1.1415   21.3048 C.ar    1  UNL1        0.0801
      9 N           3.0407    0.2470   21.1474 N.ar    1  UNL1       -0.2954
     10 C           6.8375   -3.0417   23.4287 C.3     1  UNL1        0.0763
     11 C           7.0606   -1.5585   23.4126 C.3     1  UNL1        0.0413
     12 C           5.9216   -0.6320   23.1050 C.3     1  UNL1        0.0953
     13 N           4.5597   -1.1888   22.8136 N.pl3   1  UNL1       -0.2794
     14 C           4.3366   -2.6720   22.8298 C.3     1  UNL1        0.0953
     15 C           5.4755   -3.5984   23.1373 C.3     1  UNL1        0.0413
     16 C           9.3463   -3.6767   23.1990 C.3     1  UNL1        0.1121
     17 N           7.9765   -3.9681   23.7362 N.pl3   1  UNL1       -0.3073
     18 C           7.7456   -5.1859   24.5809 C.ar    1  UNL1        0.0478
     19 C           8.2748   -6.5176   24.1376 C.ar    1  UNL1        0.0145
     20 C           8.0439   -7.7354   24.9824 C.ar    1  UNL1        0.0013
     21 C           7.2837   -7.6215   26.2705 C.ar    1  UNL1        0.0001
     22 C           6.7545   -6.2899   26.7138 C.ar    1  UNL1        0.0013
     23 C           6.9853   -5.0721   25.8691 C.ar    1  UNL1        0.0145
     24 C           3.7329   -0.0806   19.8576 C.3     1  UNL1        0.1354
     25 C           4.0461   -1.5071   19.5157 C.ar    1  UNL1        0.0006
     26 C           5.4565   -1.9111   19.2030 C.ar    1  UNL1       -0.0001
     27 C           5.7697   -3.3377   18.8611 C.ar    1  UNL1        0.0294
     28 C           4.6726   -4.3602   18.8319 C.ar    1  UNL1        0.1401
     29 F           4.9859   -5.7867   18.4900 F       1  UNL1       -0.2042
     30 C           3.2623   -3.9561   19.1446 C.ar    1  UNL1        0.0294
     31 C           2.9491   -2.5296   19.4865 C.ar    1  UNL1       -0.0001
@<TRIPOS>BOND
     1    16    17    1
     2    17    18    1
     3    18    19   ar
     4    19    20   ar
     5    20    21   ar
     6    21    22   ar
     7    22    23   ar
     8    17    10    1
     9    10    11    1
    10    11    12    1
    11    12    13    1
    12    13     1    1
    13     1     2   ar
    14     2     3   ar
    15     3     4   ar
    16     4     5   ar
    17     5     6   ar
    18     6     7   ar
    19     7     8   ar
    20     8     9   ar
    21     9    24    1
    22    24    25    1
    23    25    26   ar
    24    26    27   ar
    25    27    28   ar
    26    28    29    1
    27    28    30   ar
    28    30    31   ar
    29    13    14    1
    30    14    15    1
    31    23    18   ar
    32    15    10    1
    33     9     1   ar
    34    31    25   ar
    35     8     3   ar
@<TRIPOS>MOLECULE
*****
 31 35 0 0 0
SMALL
GASTEIGER

@<TRIPOS>ATOM
      1 C          -0.9519    2.5348   20.9569 C.ar    1  UNL1        0.2014
      2 N          -2.3290    2.7706   20.4109 N.ar    1  UNL1       -0.2136
      3 C          -3.0586    3.6686   21.3655 C.ar    1  UNL1        0.0999
      4 C          -4.4467    4.2369   21.3471 C.ar    1  UNL1        0.0207
      5 C          -4.9085    5.1244   22.4647 C.ar    1  UNL1        0.0016
      6 C          -3.9824    5.4436   23.6006 C.ar    1  UNL1        0.0016
      7 C          -2.5943    4.8754   23.6190 C.ar    1  UNL1        0.0188
      8 C          -2.1325    3.9879   22.5014 C.ar    1  UNL1        0.0801
      9 N          -0.8305    3.2871   22.2489 N.ar    1  UNL1       -0.2954
     10 C           2.2523    0.0133   19.0530 C.3     1  UNL1        0.0763
     11 C           1.3856   -0.5646   20.1322 C.3     1  UNL1        0.0413
     12 C           0.3175    0.2760   20.7669 C.3     1  UNL1        0.0953
     13 N           0.1162    1.6943   20.3222 N.pl3   1  UNL1       -0.2794
     14 C           0.9829    2.2721   19.2430 C.3     1  UNL1        0.0953
     15 C           2.0510    1.4316   18.6084 C.3     1  UNL1        0.0413
     16 C           3.6680   -0.6322   16.9723 C.3     1  UNL1        0.1121
     17 N           3.3204   -0.8272   18.4184 N.pl3   1  UNL1       -0.3073
     18 C           4.0409   -1.8628   19.2298 C.ar    1  UNL1        0.0478
     19 C           5.0920   -1.4458   20.2153 C.ar    1  UNL1        0.0145
     20 C           5.8125   -2.4814   21.0267 C.ar    1  UNL1        0.0013
     21 C           5.4818   -3.9341   20.8526 C.ar    1  UNL1        0.0001
     22 C           4.4307   -4.3512   19.8672 C.ar    1  UNL1        0.0013
     23 C           3.7102   -3.3156   19.0558 C.ar    1  UNL1        0.0145
     24 C           0.3804    3.3310   23.1331 C.3     1  UNL1        0.1354
     25 C           0.2571    2.9996   24.5907 C.ar    1  UNL1        0.0006
     26 C          -0.0506    1.5947   25.0170 C.ar    1  UNL1       -0.0001
     27 C          -0.1739    1.2631   26.4747 C.ar    1  UNL1        0.0294
     28 C           0.0105    2.3365   27.5062 C.ar    1  UNL1        0.1401
     29 F          -0.1128    2.0049   28.9639 F       1  UNL1       -0.2042
     30 C           0.3182    3.7413   27.0799 C.ar    1  UNL1        0.0294
     31 C           0.4415    4.0729   25.6222 C.ar    1  UNL1       -0.0001
@<TRIPOS>BOND
     1    16    17    1
     2    17    18    1
     3    18    19   ar
     4    19    20   ar
     5    20    21   ar
     6    21    22   ar
     7    22    23   ar
     8    17    10    1
     9    10    11    1
    10    11    12    1
    11    12    13    1
    12    13     1    1
    13     1     2   ar
    14     2     3   ar
    15     3     4   ar
    16     4     5   ar
    17     5     6   ar
    18     6     7   ar
    19     7     8   ar
    20     8     9   ar
    21     9    24    1
    22    24    25    1
    23    25    26   ar
    24    26    27   ar
    25    27    28   ar
    26    28    29    1
    27    28    30   ar
    28    30    31   ar
    29    13    14    1
    30    14    15    1
    31    23    18   ar
    32    15    10    1
    33     9     1   ar
    34    31    25   ar
    35     8     3   ar
@<TRIPOS>MOLECULE
*****
 31 35 0 0 0
SMALL
GASTEIGER

@<TRIPOS>ATOM
      1 C           6.1358   -3.5675   22.4875 C.ar    1  UNL1        0.2014
      2 N           7.1630   -4.6511   22.3448 N.ar    1  UNL1       -0.2136
      3 C           7.5031   -5.1512   23.7175 C.ar    1  UNL1        0.0999
      4 C           8.4512   -6.2118   24.1930 C.ar    1  UNL1        0.0207
      5 C           8.5822   -6.4978   25.6596 C.ar    1  UNL1        0.0016
      6 C           7.7651   -5.7231   26.6507 C.ar    1  UNL1        0.0016
      7 C           6.8170   -4.6625   26.1752 C.ar    1  UNL1        0.0188
      8 C           6.6860   -4.3766   24.7086 C.ar    1  UNL1        0.0801
      9 N           5.8410   -3.3978   23.9484 N.ar    1  UNL1       -0.2954
     10 C           4.2667   -1.2351   19.1235 C.3     1  UNL1        0.0763
     11 C           5.5951   -0.8156   19.6794 C.3     1  UNL1        0.0413
     12 C           6.2182   -1.5931   20.8008 C.3     1  UNL1        0.0953
     13 N           5.5127   -2.7900   21.3661 N.pl3   1  UNL1       -0.2794
     14 C           4.1843   -3.2095   20.8102 C.3     1  UNL1        0.0953
     15 C           3.5612   -2.4320   19.6888 C.3     1  UNL1        0.0413
     16 C           3.8019   -0.9262   16.5861 C.3     1  UNL1        0.1121
     17 N           3.6436   -0.4576   18.0021 N.pl3   1  UNL1       -0.3073
     18 C           2.8623    0.7884   18.2969 C.ar    1  UNL1        0.0478
     19 C           3.5692    2.1058   18.4183 C.ar    1  UNL1        0.0145
     20 C           2.7878    3.3519   18.7130 C.ar    1  UNL1        0.0013
     21 C           1.2996    3.2805   18.8864 C.ar    1  UNL1        0.0001
     22 C           0.5927    1.9630   18.7651 C.ar    1  UNL1        0.0013
     23 C           1.3740    0.7170   18.4703 C.ar    1  UNL1        0.0145
     24 C           4.8713   -2.4208   24.5445 C.3     1  UNL1        0.1354
     25 C           4.6000   -1.1172   23.8540 C.ar    1  UNL1        0.0006
     26 C           5.6462   -0.0423   23.8427 C.ar    1  UNL1       -0.0001
     27 C           5.3749    1.2613   23.1522 C.ar    1  UNL1        0.0294
     28 C           4.0573    1.4902   22.4728 C.ar    1  UNL1        0.1401
     29 F           3.7860    2.7938   21.7823 F       1  UNL1       -0.2042
     30 C           3.0111    0.4154   22.4840 C.ar    1  UNL1        0.0294
     31 C           3.2824   -0.8883   23.1746 C.ar    1  UNL1       -0.0001
@<TRIPOS>BOND
     1    16    17    1
     2    17    18    1
     3    18    19   ar
     4    19    20   ar
     5    20    21   ar
     6    21    22   ar
     7    22    23   ar
     8    17    10    1
     9    10    11    1
    10    11    12    1
    11    12    13    1
    12    13     1    1
    13     1     2   ar
    14     2     3   ar
    15     3     4   ar
    16     4     5   ar
    17     5     6   ar
    18     6     7   ar
    19     7     8   ar
    20     8     9   ar
    21     9    24    1
    22    24    25    1
    23    25    26   ar
    24    26    27   ar
    25    27    28   ar
    26    28    29    1
    27    28    30   ar
    28    30    31   ar
    29    13    14    1
    30    14    15    1
    31    23    18   ar
    32    15    10    1
    33     9     1   ar
    34    31    25   ar
    35     8     3   ar
@<TRIPOS>MOLECULE
*****
 31 35 0 0 0
SMALL
GASTEIGER

@<TRIPOS>ATOM
      1 C           6.2189   -2.1332   32.4219 C.ar    1  UNL1        0.2014
      2 N           6.5895   -3.5863   32.4558 N.ar    1  UNL1       -0.2136
      3 C           6.6564   -4.0808   31.0412 C.ar    1  UNL1        0.0999
      4 C           6.9747   -5.4276   30.4628 C.ar    1  UNL1        0.0207
      5 C           6.9636   -5.6269   28.9761 C.ar    1  UNL1        0.0016
      6 C           6.6343   -4.4794   28.0680 C.ar    1  UNL1        0.0016
      7 C           6.3161   -3.1326   28.6464 C.ar    1  UNL1        0.0188
      8 C           6.3272   -2.9332   30.1331 C.ar    1  UNL1        0.0801
      9 N           6.0567   -1.7296   30.9864 N.ar    1  UNL1       -0.2954
     10 C           5.6868    0.5449   35.9989 C.3     1  UNL1        0.0763
     11 C           4.5320   -0.2665   35.4911 C.3     1  UNL1        0.0413
     12 C           4.7093   -1.1592   34.2987 C.3     1  UNL1        0.0953
     13 N           6.0415   -1.2405   33.6142 N.pl3   1  UNL1       -0.2794
     14 C           7.1964   -0.4291   34.1221 C.3     1  UNL1        0.0953
     15 C           7.0190    0.4636   35.3144 C.3     1  UNL1        0.0413
     16 C           6.7099    1.9395   37.9375 C.3     1  UNL1        0.1121
     17 N           5.5094    1.4377   37.1912 N.pl3   1  UNL1       -0.3073
     18 C           4.1317    1.8285   37.6371 C.ar    1  UNL1        0.0478
     19 C           3.5083    3.0933   37.1256 C.ar    1  UNL1        0.0145
     20 C           2.1305    3.4841   37.5716 C.ar    1  UNL1        0.0013
     21 C           1.3760    2.6101   38.5291 C.ar    1  UNL1        0.0001
     22 C           1.9994    1.3453   39.0407 C.ar    1  UNL1        0.0013
     23 C           3.3772    0.9545   38.5948 C.ar    1  UNL1        0.0145
     24 C           5.6888   -0.3624   30.4911 C.3     1  UNL1        0.1354
     25 C           4.2455    0.0239   30.3582 C.ar    1  UNL1        0.0006
     26 C           3.6330    0.9837   31.3348 C.ar    1  UNL1       -0.0001
     27 C           2.1897    1.3700   31.2020 C.ar    1  UNL1        0.0294
     28 C           1.3589    0.7966   30.0924 C.ar    1  UNL1        0.1401
     29 F          -0.0844    1.1830   29.9595 F       1  UNL1       -0.2042
     30 C           1.9714   -0.1631   29.1158 C.ar    1  UNL1        0.0294
     31 C           3.4147   -0.5494   29.2487 C.ar    1  UNL1       -0.0001
@<TRIPOS>BOND
     1    16    17    1
     2    17    18    1
     3    18    19   ar
     4    19    20   ar
     5    20    21   ar
     6    21    22   ar
     7    22    23   ar
     8    17    10    1
     9    10    11    1
    10    11    12    1
    11    12    13    1
    12    13     1    1
    13     1     2   ar
    14     2     3   ar
    15     3     4   ar
    16     4     5   ar
    17     5     6   ar
    18     6     7   ar
    19     7     8   ar
    20     8     9   ar
    21     9    24    1
    22    24    25    1
    23    25    26   ar
    24    26    27   ar
    25    27    28   ar
    26    28    29    1
    27    28    30   ar
    28    30    31   ar
    29    13    14    1
    30    14    15    1
    31    23    18   ar
    32    15    10    1
    33     9     1   ar
    34    31    25   ar
    35     8     3   ar
@<TRIPOS>MOLECULE
*****
 31 35 0 0 0
SMALL
GASTEIGER

@<TRIPOS>ATOM
      1 C           6.1709   -2.8294   30.8934 C.ar    1  UNL1        0.2014
      2 N           6.6238   -4.2593   30.9029 N.ar    1  UNL1       -0.2136
      3 C           6.8438   -4.6854   29.4816 C.ar    1  UNL1        0.0999
      4 C           7.2918   -5.9849   28.8812 C.ar    1  UNL1        0.0207
      5 C           7.4228   -6.1178   27.3929 C.ar    1  UNL1        0.0016
      6 C           7.1058   -4.9511   26.5049 C.ar    1  UNL1        0.0016
      7 C           6.6578   -3.6516   27.1053 C.ar    1  UNL1        0.0188
      8 C           6.5268   -3.5187   28.5936 C.ar    1  UNL1        0.0801
      9 N           6.1109   -2.3717   29.4662 N.ar    1  UNL1       -0.2954
     10 C           5.1680   -0.3483   34.5112 C.3     1  UNL1        0.0763
     11 C           4.2723   -1.4817   34.1073 C.3     1  UNL1        0.0413
     12 C           4.6066   -2.3087   32.9013 C.3     1  UNL1        0.0953
     13 N           5.8366   -2.0024   32.0993 N.pl3   1  UNL1       -0.2794
     14 C           6.7322   -0.8690   32.5032 C.3     1  UNL1        0.0953
     15 C           6.3979   -0.0420   33.7092 C.3     1  UNL1        0.0413
     16 C           5.4814    0.1776   37.0361 C.3     1  UNL1        0.1121
     17 N           4.8337    0.4787   35.7171 N.pl3   1  UNL1       -0.3073
     18 C           3.8516    1.6068   35.6041 C.ar    1  UNL1        0.0478
     19 C           3.1258    1.8429   34.3128 C.ar    1  UNL1        0.0145
     20 C           2.1437    2.9711   34.1998 C.ar    1  UNL1        0.0013
     21 C           1.8875    3.8632   35.3781 C.ar    1  UNL1        0.0001
     22 C           2.6133    3.6272   36.6694 C.ar    1  UNL1        0.0013
     23 C           3.5953    2.4990   36.7824 C.ar    1  UNL1        0.0145
     24 C           5.7062   -1.0066   28.9943 C.3     1  UNL1        0.1354
     25 C           4.3112   -0.5119   29.2376 C.ar    1  UNL1        0.0006
     26 C           3.1995   -0.9198   28.3168 C.ar    1  UNL1       -0.0001
     27 C           1.8044   -0.4251   28.5601 C.ar    1  UNL1        0.0294
     28 C           1.5211    0.4774   29.7243 C.ar    1  UNL1        0.1401
     29 F           0.1261    0.9720   29.9676 F       1  UNL1       -0.2042
     30 C           2.6327    0.8852   30.6450 C.ar    1  UNL1        0.0294
     31 C           4.0278    0.3906   30.4018 C.ar    1  UNL1       -0.0001
@<TRIPOS>BOND
     1    16    17    1
     2    17    18    1
     3    18    19   ar
     4    19    20   ar
     5    20    21   ar
     6    21    22   ar
     7    22    23   ar
     8    17    10    1
     9    10    11    1
    10    11    12    1
    11    12    13    1
    12    13     1    1
    13     1     2   ar
    14     2     3   ar
    15     3     4   ar
    16     4     5   ar
    17     5     6   ar
    18     6     7   ar
    19     7     8   ar
    20     8     9   ar
    21     9    24    1
    22    24    25    1
    23    25    26   ar
    24    26    27   ar
    25    27    28   ar
    26    28    29    1
    27    28    30   ar
    28    30    31   ar
    29    13    14    1
    30    14    15    1
    31    23    18   ar
    32    15    10    1
    33     9     1   ar
    34    31    25   ar
    35     8     3   ar
@<TRIPOS>MOLECULE
*****
 31 35 0 0 0
SMALL
GASTEIGER

@<TRIPOS>ATOM
      1 C           6.2826   -3.6928   26.2272 C.ar    1  UNL1        0.2014
      2 N           6.6453   -4.9601   26.9429 N.ar    1  UNL1       -0.2136
      3 C           7.4094   -5.8291   25.9885 C.ar    1  UNL1        0.0999
      4 C           8.0195   -7.1910   26.1397 C.ar    1  UNL1        0.0207
      5 C           8.7393   -7.8227   24.9852 C.ar    1  UNL1        0.0016
      6 C           8.8489   -7.0925   23.6795 C.ar    1  UNL1        0.0016
      7 C           8.2387   -5.7306   23.5284 C.ar    1  UNL1        0.0188
      8 C           7.5190   -5.0989   24.6829 C.ar    1  UNL1        0.0801
      9 N           6.8226   -3.7786   24.8304 N.ar    1  UNL1       -0.2954
     10 C           3.9791   -0.2397   27.9651 C.3     1  UNL1        0.0763
     11 C           5.0366   -0.9222   28.7809 C.3     1  UNL1        0.0413
     12 C           5.8045   -2.0733   28.2016 C.3     1  UNL1        0.0953
     13 N           5.5148   -2.5417   26.8065 N.pl3   1  UNL1       -0.2794
     14 C           4.4572   -1.8592   25.9906 C.3     1  UNL1        0.0953
     15 C           3.6894   -0.7082   26.5699 C.3     1  UNL1        0.0413
     16 C           3.9388    2.0264   29.2351 C.3     1  UNL1        0.1121
     17 N           3.2113    0.9113   28.5444 N.pl3   1  UNL1       -0.3073
     18 C           1.7159    0.9472   28.4330 C.ar    1  UNL1        0.0478
     19 C           1.0440    2.0824   27.7189 C.ar    1  UNL1        0.0145
     20 C          -0.4515    2.1183   27.6075 C.ar    1  UNL1        0.0013
     21 C          -1.2750    1.0190   28.2102 C.ar    1  UNL1        0.0001
     22 C          -0.6031   -0.1162   28.9243 C.ar    1  UNL1        0.0013
     23 C           0.8922   -0.1521   29.0357 C.ar    1  UNL1        0.0145
     24 C           6.6896   -2.7284   23.7676 C.3     1  UNL1        0.1354
     25 C           6.2134   -3.1053   22.3961 C.ar    1  UNL1        0.0006
     26 C           7.1045   -2.8933   21.2082 C.ar    1  UNL1       -0.0001
     27 C           6.6283   -3.2702   19.8366 C.ar    1  UNL1        0.0294
     28 C           5.2611   -3.8592   19.6530 C.ar    1  UNL1        0.1401
     29 F           4.7850   -4.2362   18.2814 F       1  UNL1       -0.2042
     30 C           4.3701   -4.0713   20.8408 C.ar    1  UNL1        0.0294
     31 C           4.8462   -3.6944   22.2124 C.ar    1  UNL1       -0.0001
@<TRIPOS>BOND
     1    16    17    1
     2    17    18    1
     3    18    19   ar
     4    19    20   ar
     5    20    21   ar
     6    21    22   ar
     7    22    23   ar
     8    17    10    1
     9    10    11    1
    10    11    12    1
    11    12    13    1
    12    13     1    1
    13     1     2   ar
    14     2     3   ar
    15     3     4   ar
    16     4     5   ar
    17     5     6   ar
    18     6     7   ar
    19     7     8   ar
    20     8     9   ar
    21     9    24    1
    22    24    25    1
    23    25    26   ar
    24    26    27   ar
    25    27    28   ar
    26    28    29    1
    27    28    30   ar
    28    30    31   ar
    29    13    14    1
    30    14    15    1
    31    23    18   ar
    32    15    10    1
    33     9     1   ar
    34    31    25   ar
    35     8     3   ar
@<TRIPOS>MOLECULE
*****
 31 35 0 0 0
SMALL
GASTEIGER

@<TRIPOS>ATOM
      1 C           6.9980   -4.1702   23.1670 C.ar    1  UNL1        0.2014
      2 N           7.4266   -5.6063   23.1035 N.ar    1  UNL1       -0.2136
      3 C           8.1547   -5.9294   24.3746 C.ar    1  UNL1        0.0999
      4 C           8.8009   -7.1896   24.8686 C.ar    1  UNL1        0.0207
      5 C           9.4685   -7.2134   26.2115 C.ar    1  UNL1        0.0016
      6 C           9.4899   -5.9770   27.0605 C.ar    1  UNL1        0.0016
      7 C           8.8436   -4.7168   26.5666 C.ar    1  UNL1        0.0188
      8 C           8.1760   -4.6929   25.2236 C.ar    1  UNL1        0.0801
      9 N           7.4611   -3.6058   24.4772 N.ar    1  UNL1       -0.2954
     10 C           4.7222   -1.9461   19.9851 C.3     1  UNL1        0.0763
     11 C           4.1149   -3.1531   20.6365 C.3     1  UNL1        0.0413
     12 C           4.8735   -3.8945   21.6971 C.3     1  UNL1        0.0953
     13 N           6.2394   -3.4289   22.1063 N.pl3   1  UNL1       -0.2794
     14 C           6.8467   -2.2219   21.4550 C.3     1  UNL1        0.0953
     15 C           6.0881   -1.4805   20.3944 C.3     1  UNL1        0.0413
     16 C           4.3859   -1.3088   17.4890 C.3     1  UNL1        0.1121
     17 N           3.9636   -1.2047   18.9245 N.pl3   1  UNL1       -0.3073
     18 C           2.7827   -0.3592   19.2995 C.ar    1  UNL1        0.0478
     19 C           2.6975    1.0619   18.8270 C.ar    1  UNL1        0.0145
     20 C           1.5165    1.9074   19.2019 C.ar    1  UNL1        0.0013
     21 C           0.4209    1.3318   20.0494 C.ar    1  UNL1        0.0001
     22 C           0.5061   -0.0893   20.5219 C.ar    1  UNL1        0.0013
     23 C           1.6870   -0.9348   20.1469 C.ar    1  UNL1        0.0145
     24 C           7.2471   -2.2008   24.9570 C.3     1  UNL1        0.1354
     25 C           6.0160   -1.8553   25.7411 C.ar    1  UNL1        0.0006
     26 C           4.8029   -1.3234   25.0371 C.ar    1  UNL1       -0.0001
     27 C           3.5718   -0.9780   25.8212 C.ar    1  UNL1        0.0294
     28 C           3.5537   -1.1644   27.3095 C.ar    1  UNL1        0.1401
     29 F           2.3225   -0.8190   28.0937 F       1  UNL1       -0.2042
     30 C           4.7666   -1.6963   28.0135 C.ar    1  UNL1        0.0294
     31 C           5.9978   -2.0418   27.2294 C.ar    1  UNL1       -0.0001
@<TRIPOS>BOND
     1    16    17    1
     2    17    18    1
     3    18    19   ar
     4    19    20   ar
     5    20    21   ar
     6    21    22   ar
     7    22    23   ar
     8    17    10    1
     9    10    11    1
    10    11    12    1
    11    12    13    1
    12    13     1    1
    13     1     2   ar
    14     2     3   ar
    15     3     4   ar
    16     4     5   ar
    17     5     6   ar
    18     6     7   ar
    19     7     8   ar
    20     8     9   ar
    21     9    24    1
    22    24    25    1
    23    25    26   ar
    24    26    27   ar
    25    27    28   ar
    26    28    29    1
    27    28    30   ar
    28    30    31   ar
    29    13    14    1
    30    14    15    1
    31    23    18   ar
    32    15    10    1
    33     9     1   ar
    34    31    25   ar
    35     8     3   ar
