@<TRIPOS>MOLECULE
*****
 28 31 0 0 0
SMALL
GASTEIGER

@<TRIPOS>ATOM
      1 C          -8.1486  -18.7233   22.9533 C.ar    1  UNL1        0.0579
      2 C          -6.9133  -19.1080   22.1944 C.ar    1  UNL1        0.0833
      3 N          -5.8748  -18.0525   22.4339 N.ar    1  UNL1       -0.3048
      4 C          -6.4683  -17.0155   23.3407 C.ar    1  UNL1        0.0641
      5 C          -5.9106  -15.7473   23.9156 C.ar    1  UNL1        0.0175
      6 C          -6.7583  -14.8937   24.8115 C.ar    1  UNL1        0.0015
      7 C          -8.1636  -15.3083   25.1325 C.ar    1  UNL1        0.0001
      8 C          -8.7213  -16.5765   24.5576 C.ar    1  UNL1        0.0016
      9 C          -7.8736  -17.4301   23.6617 C.ar    1  UNL1        0.0207
     10 C          -4.4864  -18.0368   21.8662 C.ar    1  UNL1        0.0640
     11 C          -4.1826  -18.7925   20.6065 C.ar    1  UNL1        0.0176
     12 C          -2.7942  -18.7768   20.0388 C.ar    1  UNL1        0.0026
     13 C          -1.7097  -18.0053   20.7307 C.ar    1  UNL1        0.0141
     14 C          -2.0136  -17.2496   21.9903 C.ar    1  UNL1        0.0026
     15 C          -3.4019  -17.2654   22.5580 C.ar    1  UNL1        0.0176
     16 C          -0.3214  -17.9896   20.1630 C.2     1  UNL1        0.0729
     17 O           0.2950  -19.2586   19.6534 O.co2   1  UNL1       -0.5446
     18 O           0.4506  -16.7048   20.1051 O.co2   1  UNL1       -0.5446
     19 C          -9.4335  -19.4962   22.9961 C.2     1  UNL1        0.1976
     20 O          -9.4408  -20.9124   23.4902 O.2     1  UNL1       -0.2865
     21 C          -9.8678  -18.9008   20.0881 C.3     1  UNL1        0.0312
     22 C         -10.9284  -18.5550   21.0909 C.ar    1  UNL1       -0.0179
     23 C         -12.2060  -17.9115   20.6397 C.ar    1  UNL1       -0.0041
     24 C         -13.2665  -17.5658   21.6426 C.ar    1  UNL1        0.0005
     25 C         -13.0494  -17.8635   23.0966 C.ar    1  UNL1        0.0115
     26 C         -11.7718  -18.5070   23.5478 C.ar    1  UNL1        0.0604
     27 CL        -11.5546  -18.8047   25.0019 Cl      1  UNL1       -0.0822
     28 C         -10.7112  -18.8527   22.5450 C.ar    1  UNL1        0.0456
@<TRIPOS>UNITY_ATOM_ATTR
17 1
charge -1
@<TRIPOS>BOND
     1    21    22    1
     2    22    23   ar
     3    23    24   ar
     4    24    25   ar
     5    25    26   ar
     6    26    27    1
     7    26    28   ar
     8    28    19    1
     9    19    20    2
    10    19     1    1
    11     1     2   ar
    12     2     3   ar
    13     3    10    1
    14    10    11   ar
    15    11    12   ar
    16    12    13   ar
    17    13    16    1
    18    16    17   ar
    19    16    18   ar
    20    13    14   ar
    21    14    15   ar
    22     3     4   ar
    23     4     5   ar
    24     5     6   ar
    25     6     7   ar
    26     7     8   ar
    27     8     9   ar
    28    28    22   ar
    29     9     1   ar
    30    15    10   ar
    31     9     4   ar
@<TRIPOS>MOLECULE
*****
 28 31 0 0 0
SMALL
GASTEIGER

@<TRIPOS>ATOM
      1 C          -8.1872  -18.7529   22.9676 C.ar    1  UNL1        0.0579
      2 C          -7.0068  -19.1460   22.1297 C.ar    1  UNL1        0.0833
      3 N          -5.9363  -18.1133   22.3237 N.ar    1  UNL1       -0.3048
      4 C          -6.4551  -17.0820   23.2814 C.ar    1  UNL1        0.0641
      5 C          -5.8405  -15.8341   23.8426 C.ar    1  UNL1        0.0175
      6 C          -6.6171  -14.9815   24.8017 C.ar    1  UNL1        0.0015
      7 C          -8.0082  -15.3768   25.1997 C.ar    1  UNL1        0.0001
      8 C          -8.6228  -16.6248   24.6386 C.ar    1  UNL1        0.0016
      9 C          -7.8463  -17.4774   23.6795 C.ar    1  UNL1        0.0207
     10 C          -4.5843  -18.1120   21.6739 C.ar    1  UNL1        0.0640
     11 C          -3.4247  -17.4490   22.3565 C.ar    1  UNL1        0.0176
     12 C          -2.0727  -17.4478   21.7068 C.ar    1  UNL1        0.0026
     13 C          -1.8803  -18.1095   20.3745 C.ar    1  UNL1        0.0141
     14 C          -3.0398  -18.7725   19.6919 C.ar    1  UNL1        0.0026
     15 C          -4.3918  -18.7737   20.3417 C.ar    1  UNL1        0.0176
     16 C          -0.5283  -18.1083   19.7247 C.2     1  UNL1        0.0729
     17 O           0.7059  -18.2724   20.5612 O.co2   1  UNL1       -0.5446
     18 O          -0.4107  -17.9428   18.2386 O.co2   1  UNL1       -0.5446
     19 C          -9.4814  -19.5037   23.0750 C.2     1  UNL1        0.1976
     20 O          -9.4955  -20.8994   23.6241 O.2     1  UNL1       -0.2865
     21 C         -11.6070  -18.8539   25.0897 C.3     1  UNL1        0.0312
     22 C         -11.8244  -18.5337   23.6404 C.ar    1  UNL1       -0.0179
     23 C         -13.1044  -17.8886   23.1986 C.ar    1  UNL1       -0.0041
     24 C         -13.3217  -17.5685   21.7494 C.ar    1  UNL1        0.0005
     25 C         -12.2589  -17.8934   20.7420 C.ar    1  UNL1        0.0115
     26 C         -10.9788  -18.5384   21.1838 C.ar    1  UNL1        0.0604
     27 CL         -9.9159  -18.8634   20.1764 Cl      1  UNL1       -0.0822
     28 C         -10.7615  -18.8586   22.6331 C.ar    1  UNL1        0.0456
@<TRIPOS>UNITY_ATOM_ATTR
17 1
charge -1
@<TRIPOS>BOND
     1    21    22    1
     2    22    23   ar
     3    23    24   ar
     4    24    25   ar
     5    25    26   ar
     6    26    27    1
     7    26    28   ar
     8    28    19    1
     9    19    20    2
    10    19     1    1
    11     1     2   ar
    12     2     3   ar
    13     3    10    1
    14    10    11   ar
    15    11    12   ar
    16    12    13   ar
    17    13    16    1
    18    16    17   ar
    19    16    18   ar
    20    13    14   ar
    21    14    15   ar
    22     3     4   ar
    23     4     5   ar
    24     5     6   ar
    25     6     7   ar
    26     7     8   ar
    27     8     9   ar
    28    28    22   ar
    29     9     1   ar
    30    15    10   ar
    31     9     4   ar
@<TRIPOS>MOLECULE
*****
 28 31 0 0 0
SMALL
GASTEIGER

@<TRIPOS>ATOM
      1 C          -8.1018  -17.7261   22.8762 C.ar    1  UNL1        0.0579
      2 C          -6.6202  -17.4921   22.8799 C.ar    1  UNL1        0.0833
      3 N          -6.0446  -18.1464   21.6591 N.ar    1  UNL1       -0.3048
      4 C          -7.1705  -18.7848   20.9009 C.ar    1  UNL1        0.0641
      5 C          -7.2022  -19.5691   19.6227 C.ar    1  UNL1        0.0175
      6 C          -8.5053  -20.0936   19.0967 C.ar    1  UNL1        0.0015
      7 C          -9.7768  -19.8338   19.8490 C.ar    1  UNL1        0.0001
      8 C          -9.7451  -19.0495   21.1272 C.ar    1  UNL1        0.0016
      9 C          -8.4419  -18.5250   21.6531 C.ar    1  UNL1        0.0207
     10 C          -4.5972  -18.1601   21.2655 C.ar    1  UNL1        0.0640
     11 C          -3.5399  -17.8540   22.2847 C.ar    1  UNL1        0.0176
     12 C          -2.0925  -17.8676   21.8911 C.ar    1  UNL1        0.0026
     13 C          -1.7024  -18.1873   20.4785 C.ar    1  UNL1        0.0141
     14 C          -2.7596  -18.4933   19.4594 C.ar    1  UNL1        0.0026
     15 C          -4.2070  -18.4797   19.8529 C.ar    1  UNL1        0.0176
     16 C          -0.2550  -18.2009   20.0849 C.2     1  UNL1        0.0729
     17 O           0.5271  -16.9212   20.0584 O.co2   1  UNL1       -0.5446
     18 O           0.4102  -19.4942   19.7178 O.co2   1  UNL1       -0.5446
     19 C          -9.0729  -17.2455   23.9135 C.2     1  UNL1        0.1976
     20 O          -8.5762  -16.5083   25.1217 O.2     1  UNL1       -0.2865
     21 C         -10.3809  -19.5103   25.3832 C.3     1  UNL1        0.0312
     22 C         -11.1950  -18.6344   24.4775 C.ar    1  UNL1       -0.0179
     23 C         -12.6629  -18.8911   24.3066 C.ar    1  UNL1       -0.0041
     24 C         -13.4769  -18.0152   23.4009 C.ar    1  UNL1        0.0005
     25 C         -12.8229  -16.8828   22.6661 C.ar    1  UNL1        0.0115
     26 C         -11.3550  -16.6262   22.8369 C.ar    1  UNL1        0.0604
     27 CL        -10.7010  -15.4938   22.1021 Cl      1  UNL1       -0.0822
     28 C         -10.5410  -17.5020   23.7426 C.ar    1  UNL1        0.0456
@<TRIPOS>UNITY_ATOM_ATTR
17 1
charge -1
@<TRIPOS>BOND
     1    21    22    1
     2    22    23   ar
     3    23    24   ar
     4    24    25   ar
     5    25    26   ar
     6    26    27    1
     7    26    28   ar
     8    28    19    1
     9    19    20    2
    10    19     1    1
    11     1     2   ar
    12     2     3   ar
    13     3    10    1
    14    10    11   ar
    15    11    12   ar
    16    12    13   ar
    17    13    16    1
    18    16    17   ar
    19    16    18   ar
    20    13    14   ar
    21    14    15   ar
    22     3     4   ar
    23     4     5   ar
    24     5     6   ar
    25     6     7   ar
    26     7     8   ar
    27     8     9   ar
    28    28    22   ar
    29     9     1   ar
    30    15    10   ar
    31     9     4   ar
@<TRIPOS>MOLECULE
*****
 28 31 0 0 0
SMALL
GASTEIGER

@<TRIPOS>ATOM
      1 C          -8.3583  -18.5128   22.6980 C.ar    1  UNL1        0.0579
      2 C          -6.8860  -18.2278   22.7288 C.ar    1  UNL1        0.0833
      3 N          -6.3051  -18.6467   21.4109 N.ar    1  UNL1       -0.3048
      4 C          -7.4184  -19.1906   20.5654 C.ar    1  UNL1        0.0641
      5 C          -7.4406  -19.7505   19.1741 C.ar    1  UNL1        0.0175
      6 C          -8.7317  -20.2276   18.5782 C.ar    1  UNL1        0.0015
      7 C         -10.0007  -20.1449   19.3737 C.ar    1  UNL1        0.0001
      8 C          -9.9785  -19.5850   20.7650 C.ar    1  UNL1        0.0016
      9 C          -8.6874  -19.1078   21.3609 C.ar    1  UNL1        0.0207
     10 C          -4.8639  -18.5403   21.0089 C.ar    1  UNL1        0.0640
     11 C          -4.4770  -18.6634   19.5648 C.ar    1  UNL1        0.0176
     12 C          -3.0358  -18.5571   19.1627 C.ar    1  UNL1        0.0026
     13 C          -1.9814  -18.3277   20.2047 C.ar    1  UNL1        0.0141
     14 C          -2.3683  -18.2046   21.6487 C.ar    1  UNL1        0.0026
     15 C          -3.8095  -18.3109   22.0507 C.ar    1  UNL1        0.0176
     16 C          -0.5402  -18.2214   19.8027 C.2     1  UNL1        0.0729
     17 O          -0.1751  -18.0540   18.3575 O.co2   1  UNL1       -0.5446
     18 O           0.5358  -18.2824   20.8459 O.co2   1  UNL1       -0.5446
     19 C          -9.3309  -18.2491   23.8091 C.2     1  UNL1        0.1976
     20 O          -8.9346  -18.5135   25.2313 O.2     1  UNL1       -0.2865
     21 C          -9.6381  -15.6789   22.2925 C.3     1  UNL1        0.0312
     22 C         -10.8536  -16.4358   22.7396 C.ar    1  UNL1       -0.0179
     23 C         -12.2225  -15.9076   22.4283 C.ar    1  UNL1       -0.0041
     24 C         -13.4379  -16.6645   22.8754 C.ar    1  UNL1        0.0005
     25 C         -13.2843  -17.9496   23.6337 C.ar    1  UNL1        0.0115
     26 C         -11.9154  -18.4778   23.9449 C.ar    1  UNL1        0.0604
     27 CL        -11.7618  -19.7629   24.7032 Cl      1  UNL1       -0.0822
     28 C         -10.7000  -17.7209   23.4978 C.ar    1  UNL1        0.0456
@<TRIPOS>UNITY_ATOM_ATTR
17 1
charge -1
@<TRIPOS>BOND
     1    21    22    1
     2    22    23   ar
     3    23    24   ar
     4    24    25   ar
     5    25    26   ar
     6    26    27    1
     7    26    28   ar
     8    28    19    1
     9    19    20    2
    10    19     1    1
    11     1     2   ar
    12     2     3   ar
    13     3    10    1
    14    10    11   ar
    15    11    12   ar
    16    12    13   ar
    17    13    16    1
    18    16    17   ar
    19    16    18   ar
    20    13    14   ar
    21    14    15   ar
    22     3     4   ar
    23     4     5   ar
    24     5     6   ar
    25     6     7   ar
    26     7     8   ar
    27     8     9   ar
    28    28    22   ar
    29     9     1   ar
    30    15    10   ar
    31     9     4   ar
@<TRIPOS>MOLECULE
*****
 28 31 0 0 0
SMALL
GASTEIGER

@<TRIPOS>ATOM
      1 C          -8.4108  -17.7178   22.3517 C.ar    1  UNL1        0.0579
      2 C          -6.9335  -17.4699   22.4295 C.ar    1  UNL1        0.0833
      3 N          -6.2799  -18.2057   21.2975 N.ar    1  UNL1       -0.3048
      4 C          -7.3533  -18.9083   20.5202 C.ar    1  UNL1        0.0641
      5 C          -7.3016  -19.7837   19.3032 C.ar    1  UNL1        0.0175
      6 C          -8.5669  -20.3576   18.7379 C.ar    1  UNL1        0.0015
      7 C          -9.8839  -20.0561   19.3895 C.ar    1  UNL1        0.0001
      8 C          -9.9356  -19.1807   20.6064 C.ar    1  UNL1        0.0016
      9 C          -8.6703  -18.6068   21.1718 C.ar    1  UNL1        0.0207
     10 C          -4.8109  -18.2339   20.9957 C.ar    1  UNL1        0.0640
     11 C          -3.8188  -17.8807   22.0641 C.ar    1  UNL1        0.0176
     12 C          -2.3497  -17.9089   21.7623 C.ar    1  UNL1        0.0026
     13 C          -1.8727  -18.2903   20.3923 C.ar    1  UNL1        0.0141
     14 C          -2.8647  -18.6434   19.3240 C.ar    1  UNL1        0.0026
     15 C          -4.3337  -18.6152   19.6258 C.ar    1  UNL1        0.0176
     16 C          -0.4036  -18.3185   20.0905 C.2     1  UNL1        0.0729
     17 O           0.4002  -17.0538   20.1573 O.co2   1  UNL1       -0.5446
     18 O           0.2616  -19.6114   19.7220 O.co2   1  UNL1       -0.5446
     19 C          -9.4469  -17.1724   23.2894 C.2     1  UNL1        0.1976
     20 O         -10.8423  -16.9202   22.8007 O.2     1  UNL1       -0.2865
     21 C         -10.1294  -19.1451   25.4441 C.3     1  UNL1        0.0312
     22 C          -9.4286  -17.8656   25.7933 C.ar    1  UNL1       -0.0179
     23 C          -9.0692  -17.5726   27.2198 C.ar    1  UNL1       -0.0041
     24 C          -8.3684  -16.2931   27.5689 C.ar    1  UNL1        0.0005
     25 C          -8.0272  -15.3068   26.4916 C.ar    1  UNL1        0.0115
     26 C          -8.3866  -15.5998   25.0651 C.ar    1  UNL1        0.0604
     27 CL         -8.0454  -14.6135   23.9878 Cl      1  UNL1       -0.0822
     28 C          -9.0874  -16.8793   24.7160 C.ar    1  UNL1        0.0456
@<TRIPOS>UNITY_ATOM_ATTR
17 1
charge -1
@<TRIPOS>BOND
     1    21    22    1
     2    22    23   ar
     3    23    24   ar
     4    24    25   ar
     5    25    26   ar
     6    26    27    1
     7    26    28   ar
     8    28    19    1
     9    19    20    2
    10    19     1    1
    11     1     2   ar
    12     2     3   ar
    13     3    10    1
    14    10    11   ar
    15    11    12   ar
    16    12    13   ar
    17    13    16    1
    18    16    17   ar
    19    16    18   ar
    20    13    14   ar
    21    14    15   ar
    22     3     4   ar
    23     4     5   ar
    24     5     6   ar
    25     6     7   ar
    26     7     8   ar
    27     8     9   ar
    28    28    22   ar
    29     9     1   ar
    30    15    10   ar
    31     9     4   ar
@<TRIPOS>MOLECULE
*****
 28 31 0 0 0
SMALL
GASTEIGER

@<TRIPOS>ATOM
      1 C           1.3636    1.7161   24.4601 C.ar    1  UNL1        0.0579
      2 C           2.2903    0.6326   23.9937 C.ar    1  UNL1        0.0833
      3 N           2.0064    0.3722   22.5440 N.ar    1  UNL1       -0.3048
      4 C           0.9044    1.2947   22.1144 C.ar    1  UNL1        0.0641
      5 C           0.2113    1.4857   20.7980 C.ar    1  UNL1        0.0175
      6 C          -0.8790    2.5073   20.6657 C.ar    1  UNL1        0.0015
      7 C          -1.2763    3.3379   21.8499 C.ar    1  UNL1        0.0001
      8 C          -0.5832    3.1468   23.1664 C.ar    1  UNL1        0.0016
      9 C           0.5071    2.1253   23.2987 C.ar    1  UNL1        0.0207
     10 C           2.7024   -0.6340   21.6762 C.ar    1  UNL1        0.0640
     11 C           2.4627   -0.6408   20.1954 C.ar    1  UNL1        0.0176
     12 C           3.1587   -1.6471   19.3276 C.ar    1  UNL1        0.0026
     13 C           4.0944   -2.6465   19.9405 C.ar    1  UNL1        0.0141
     14 C           4.3340   -2.6397   21.4212 C.ar    1  UNL1        0.0026
     15 C           3.6380   -1.6335   22.2890 C.ar    1  UNL1        0.0176
     16 C           4.7903   -3.6528   19.0727 C.2     1  UNL1        0.0729
     17 O           4.7790   -5.1044   19.4505 O.co2   1  UNL1       -0.5446
     18 O           5.4976   -3.2073   17.8272 O.co2   1  UNL1       -0.5446
     19 C           1.3040    2.2896   25.8448 C.2     1  UNL1        0.1976
     20 O           1.8136    3.6761   26.1049 O.2     1  UNL1       -0.2865
     21 C          -1.6031    2.5281   26.5461 C.3     1  UNL1        0.0312
     22 C          -0.7189    1.5958   27.3202 C.ar    1  UNL1       -0.0179
     23 C          -1.2884    0.7829   28.4448 C.ar    1  UNL1       -0.0041
     24 C          -0.4041   -0.1494   29.2188 C.ar    1  UNL1        0.0005
     25 C           1.0494   -0.2686   28.8682 C.ar    1  UNL1        0.0115
     26 C           1.6188    0.5444   27.7436 C.ar    1  UNL1        0.0604
     27 CL          3.0724    0.4251   27.3929 Cl      1  UNL1       -0.0822
     28 C           0.7346    1.4766   26.9695 C.ar    1  UNL1        0.0456
@<TRIPOS>UNITY_ATOM_ATTR
17 1
charge -1
@<TRIPOS>BOND
     1    21    22    1
     2    22    23   ar
     3    23    24   ar
     4    24    25   ar
     5    25    26   ar
     6    26    27    1
     7    26    28   ar
     8    28    19    1
     9    19    20    2
    10    19     1    1
    11     1     2   ar
    12     2     3   ar
    13     3    10    1
    14    10    11   ar
    15    11    12   ar
    16    12    13   ar
    17    13    16    1
    18    16    17   ar
    19    16    18   ar
    20    13    14   ar
    21    14    15   ar
    22     3     4   ar
    23     4     5   ar
    24     5     6   ar
    25     6     7   ar
    26     7     8   ar
    27     8     9   ar
    28    28    22   ar
    29     9     1   ar
    30    15    10   ar
    31     9     4   ar
@<TRIPOS>MOLECULE
*****
 28 31 0 0 0
SMALL
GASTEIGER

@<TRIPOS>ATOM
      1 C          -0.8510    3.3005   20.9114 C.ar    1  UNL1        0.0579
      2 C          -0.0326    2.5379   19.9120 C.ar    1  UNL1        0.0833
      3 N           0.8126    1.5510   20.6616 N.ar    1  UNL1       -0.3048
      4 C           0.5165    1.7037   22.1241 C.ar    1  UNL1        0.0641
      5 C           1.0502    0.9978   23.3353 C.ar    1  UNL1        0.0175
      6 C           0.5558    1.3732   24.7007 C.ar    1  UNL1        0.0015
      7 C          -0.4724    2.4544   24.8551 C.ar    1  UNL1        0.0001
      8 C          -1.0061    3.1603   23.6440 C.ar    1  UNL1        0.0016
      9 C          -0.5117    2.7849   22.2785 C.ar    1  UNL1        0.0207
     10 C           1.7834    0.5817   20.0551 C.ar    1  UNL1        0.0640
     11 C           2.6307    0.9988   18.8896 C.ar    1  UNL1        0.0176
     12 C           3.6015    0.0294   18.2831 C.ar    1  UNL1        0.0026
     13 C           3.7251   -1.3570   18.8420 C.ar    1  UNL1        0.0141
     14 C           2.8778   -1.7742   20.0074 C.ar    1  UNL1        0.0026
     15 C           1.9070   -0.8048   20.6139 C.ar    1  UNL1        0.0176
     16 C           4.6959   -2.3264   18.2356 C.2     1  UNL1        0.0729
     17 O           4.5945   -3.7885   18.5551 O.co2   1  UNL1       -0.5446
     18 O           5.7681   -1.8337   17.3096 O.co2   1  UNL1       -0.5446
     19 C          -1.8358    4.3878   20.5985 C.2     1  UNL1        0.1976
     20 O          -1.5741    5.7916   21.0573 O.2     1  UNL1       -0.2865
     21 C          -4.3114    3.5042   22.0445 C.3     1  UNL1        0.0312
     22 C          -4.3203    3.6293   20.5497 C.ar    1  UNL1       -0.0179
     23 C          -5.5670    3.3127   19.7781 C.ar    1  UNL1       -0.0041
     24 C          -5.5759    3.4379   18.2833 C.ar    1  UNL1        0.0005
     25 C          -4.3381    3.8797   17.5603 C.ar    1  UNL1        0.0115
     26 C          -3.0914    4.1963   18.3320 C.ar    1  UNL1        0.0604
     27 CL         -1.8537    4.6381   17.6090 Cl      1  UNL1       -0.0822
     28 C          -3.0826    4.0711   19.8267 C.ar    1  UNL1        0.0456
@<TRIPOS>UNITY_ATOM_ATTR
17 1
charge -1
@<TRIPOS>BOND
     1    21    22    1
     2    22    23   ar
     3    23    24   ar
     4    24    25   ar
     5    25    26   ar
     6    26    27    1
     7    26    28   ar
     8    28    19    1
     9    19    20    2
    10    19     1    1
    11     1     2   ar
    12     2     3   ar
    13     3    10    1
    14    10    11   ar
    15    11    12   ar
    16    12    13   ar
    17    13    16    1
    18    16    17   ar
    19    16    18   ar
    20    13    14   ar
    21    14    15   ar
    22     3     4   ar
    23     4     5   ar
    24     5     6   ar
    25     6     7   ar
    26     7     8   ar
    27     8     9   ar
    28    28    22   ar
    29     9     1   ar
    30    15    10   ar
    31     9     4   ar
@<TRIPOS>MOLECULE
*****
 28 31 0 0 0
SMALL
GASTEIGER

@<TRIPOS>ATOM
      1 C           3.3033   -1.3347   22.2623 C.ar    1  UNL1        0.0579
      2 C           3.1482   -0.7794   23.6470 C.ar    1  UNL1        0.0833
      3 N           2.1205    0.3121   23.5962 N.ar    1  UNL1       -0.3048
      4 C           1.6405    0.4313   22.1801 C.ar    1  UNL1        0.0641
      5 C           0.6322    1.3351   21.5348 C.ar    1  UNL1        0.0175
      6 C           0.3549    1.2212   20.0651 C.ar    1  UNL1        0.0015
      7 C           1.0860    0.2034   19.2407 C.ar    1  UNL1        0.0001
      8 C           2.0942   -0.7004   19.8860 C.ar    1  UNL1        0.0016
      9 C           2.3715   -0.5865   21.3557 C.ar    1  UNL1        0.0207
     10 C           1.6545    1.1391   24.7577 C.ar    1  UNL1        0.0640
     11 C           0.2114    1.1128   25.1662 C.ar    1  UNL1        0.0176
     12 C          -0.2545    1.9398   26.3276 C.ar    1  UNL1        0.0026
     13 C           0.7226    2.7932   27.0805 C.ar    1  UNL1        0.0141
     14 C           2.1657    2.8196   26.6720 C.ar    1  UNL1        0.0026
     15 C           2.6316    1.9925   25.5106 C.ar    1  UNL1        0.0176
     16 C           0.2567    3.6203   28.2419 C.2     1  UNL1        0.0729
     17 O           0.5637    3.1846   29.6440 O.co2   1  UNL1       -0.5446
     18 O          -0.5162    4.8830   28.0012 O.co2   1  UNL1       -0.5446
     19 C           4.2279   -2.4436   21.8555 C.2     1  UNL1        0.1976
     20 O           4.3320   -3.6803   22.6978 O.2     1  UNL1       -0.2865
     21 C           3.5188   -4.0512   19.4239 C.3     1  UNL1        0.0312
     22 C           4.6939   -3.1195   19.3905 C.ar    1  UNL1       -0.0179
     23 C           5.5144   -2.9917   18.1413 C.ar    1  UNL1       -0.0041
     24 C           6.6895   -2.0600   18.1080 C.ar    1  UNL1        0.0005
     25 C           7.0440   -1.2562   19.3238 C.ar    1  UNL1        0.0115
     26 C           6.2236   -1.3840   20.5729 C.ar    1  UNL1        0.0604
     27 CL          6.5781   -0.5802   21.7887 Cl      1  UNL1       -0.0822
     28 C           5.0485   -2.3157   20.6063 C.ar    1  UNL1        0.0456
@<TRIPOS>UNITY_ATOM_ATTR
17 1
charge -1
@<TRIPOS>BOND
     1    21    22    1
     2    22    23   ar
     3    23    24   ar
     4    24    25   ar
     5    25    26   ar
     6    26    27    1
     7    26    28   ar
     8    28    19    1
     9    19    20    2
    10    19     1    1
    11     1     2   ar
    12     2     3   ar
    13     3    10    1
    14    10    11   ar
    15    11    12   ar
    16    12    13   ar
    17    13    16    1
    18    16    17   ar
    19    16    18   ar
    20    13    14   ar
    21    14    15   ar
    22     3     4   ar
    23     4     5   ar
    24     5     6   ar
    25     6     7   ar
    26     7     8   ar
    27     8     9   ar
    28    28    22   ar
    29     9     1   ar
    30    15    10   ar
    31     9     4   ar
@<TRIPOS>MOLECULE
*****
 28 31 0 0 0
SMALL
GASTEIGER

@<TRIPOS>ATOM
      1 C           3.3187   -1.3613   22.3071 C.ar    1  UNL1        0.0579
      2 C           3.1693   -0.7978   23.6892 C.ar    1  UNL1        0.0833
      3 N           2.1417    0.2936   23.6361 N.ar    1  UNL1       -0.3048
      4 C           1.6560    0.4046   22.2213 C.ar    1  UNL1        0.0641
      5 C           0.6453    1.3049   21.5748 C.ar    1  UNL1        0.0175
      6 C           0.3621    1.1823   20.1069 C.ar    1  UNL1        0.0015
      7 C           1.0895    0.1595   19.2855 C.ar    1  UNL1        0.0001
      8 C           2.1002   -0.7408   19.9320 C.ar    1  UNL1        0.0016
      9 C           2.3834   -0.6182   21.3999 C.ar    1  UNL1        0.0207
     10 C           1.6807    1.1276   24.7946 C.ar    1  UNL1        0.0640
     11 C           2.6793    1.8896   25.6145 C.ar    1  UNL1        0.0176
     12 C           2.2183    2.7236   26.7729 C.ar    1  UNL1        0.0026
     13 C           0.7588    2.7956   27.1114 C.ar    1  UNL1        0.0141
     14 C          -0.2397    2.0336   26.2915 C.ar    1  UNL1        0.0026
     15 C           0.2213    1.1996   25.1331 C.ar    1  UNL1        0.0176
     16 C           0.2978    3.6296   28.2699 C.2     1  UNL1        0.0729
     17 O           0.7435    3.2917   29.6617 O.co2   1  UNL1       -0.5446
     18 O          -0.6090    4.8014   28.0364 O.co2   1  UNL1       -0.5446
     19 C           4.2414   -2.4729   21.9031 C.2     1  UNL1        0.1976
     20 O           4.3500   -3.7039   22.7532 O.2     1  UNL1       -0.2865
     21 C           6.6289   -0.6577   21.8320 C.3     1  UNL1        0.0312
     22 C           6.2493   -1.4457   20.6133 C.ar    1  UNL1       -0.0179
     23 C           7.0635   -1.3262   19.3592 C.ar    1  UNL1       -0.0041
     24 C           6.6839   -2.1142   18.1407 C.ar    1  UNL1        0.0005
     25 C           5.4901   -3.0217   18.1762 C.ar    1  UNL1        0.0115
     26 C           4.6759   -3.1413   19.4303 C.ar    1  UNL1        0.0604
     27 CL          3.4822   -4.0489   19.4659 Cl      1  UNL1       -0.0822
     28 C           5.0556   -2.3533   20.6489 C.ar    1  UNL1        0.0456
@<TRIPOS>UNITY_ATOM_ATTR
17 1
charge -1
@<TRIPOS>BOND
     1    21    22    1
     2    22    23   ar
     3    23    24   ar
     4    24    25   ar
     5    25    26   ar
     6    26    27    1
     7    26    28   ar
     8    28    19    1
     9    19    20    2
    10    19     1    1
    11     1     2   ar
    12     2     3   ar
    13     3    10    1
    14    10    11   ar
    15    11    12   ar
    16    12    13   ar
    17    13    16    1
    18    16    17   ar
    19    16    18   ar
    20    13    14   ar
    21    14    15   ar
    22     3     4   ar
    23     4     5   ar
    24     5     6   ar
    25     6     7   ar
    26     7     8   ar
    27     8     9   ar
    28    28    22   ar
    29     9     1   ar
    30    15    10   ar
    31     9     4   ar
