@<TRIPOS>MOLECULE
*****
 24 26 0 0 0
SMALL
GASTEIGER

@<TRIPOS>ATOM
      1 N          -7.8357  -20.3055   22.4928 N.pl3   1  UNL1       -0.2150
      2 H          -7.9031  -21.1484   22.9968 H       1  UNL1        0.1737
      3 C          -6.5161  -19.8754   21.9236 C.ar    1  UNL1        0.0649
      4 C          -5.9117  -20.6309   20.7773 C.ar    1  UNL1        0.0173
      5 C          -4.5922  -20.2008   20.2083 C.ar    1  UNL1        0.0189
      6 C          -3.8771  -19.0153   20.7854 C.ar    1  UNL1        0.0656
      7 C          -4.4815  -18.2598   21.9316 C.ar    1  UNL1        0.0189
      8 C          -5.8010  -18.6899   22.5007 C.ar    1  UNL1        0.0173
      9 N          -2.5576  -18.5852   20.2162 N.ar    1  UNL1       -0.2864
     10 C          -1.3329  -18.2252   21.0040 C.ar    1  UNL1        0.1022
     11 C          -0.2494  -17.8572   20.0341 C.ar    1  UNL1        0.1196
     12 N          -0.8046  -17.9897   18.6469 N.ar    1  UNL1       -0.2220
     13 C          -2.2311  -18.4396   18.7595 C.ar    1  UNL1        0.1828
     14 O          -8.8266  -19.4745   20.8112 O.2     1  UNL1       -0.1499
     15 S          -9.0525  -19.4512   22.2939 S.O2    1  UNL1        0.0736
     16 O          -9.2784  -19.4278   23.7766 O.2     1  UNL1       -0.1499
     17 C         -10.2693  -18.5968   22.0951 C.ar    1  UNL1        0.1268
     18 C         -11.4099  -18.6786   23.0659 C.ar    1  UNL1        0.0316
     19 C         -12.6267  -17.8243   22.8671 C.ar    1  UNL1        0.0599
     20 CL        -13.7672  -17.9060   23.8379 Cl      1  UNL1       -0.0822
     21 C         -12.7029  -16.8882   21.6975 C.ar    1  UNL1        0.0229
     22 C         -11.5624  -16.8065   20.7267 C.ar    1  UNL1        0.0599
     23 CL        -11.6387  -15.8704   19.5571 Cl      1  UNL1       -0.0822
     24 C         -10.3456  -17.6608   20.9255 C.ar    1  UNL1        0.0316
@<TRIPOS>BOND
     1    14    15    2
     2    15    16    2
     3    15     1    1
     4     1     3    1
     5     3     4   ar
     6     4     5   ar
     7     5     6   ar
     8     6     9    1
     9     9    10   ar
    10    10    11   ar
    11    11    12   ar
    12    12    13   ar
    13     6     7   ar
    14     7     8   ar
    15    15    17    1
    16    17    18   ar
    17    18    19   ar
    18    19    20    1
    19    19    21   ar
    20    21    22   ar
    21    22    23    1
    22    22    24   ar
    23     8     3   ar
    24    24    17   ar
    25    13     9   ar
    26     1     2    1
@<TRIPOS>MOLECULE
*****
 24 26 0 0 0
SMALL
GASTEIGER

@<TRIPOS>ATOM
      1 N          -7.8358  -20.3015   22.4954 N.pl3   1  UNL1       -0.2150
      2 H          -7.9035  -21.1441   23.0000 H       1  UNL1        0.1737
      3 C          -6.5160  -19.8723   21.9260 C.ar    1  UNL1        0.0649
      4 C          -5.9106  -20.6303   20.7820 C.ar    1  UNL1        0.0173
      5 C          -4.5909  -20.2010   20.2127 C.ar    1  UNL1        0.0189
      6 C          -3.8767  -19.0138   20.7875 C.ar    1  UNL1        0.0656
      7 C          -4.4821  -18.2558   21.9315 C.ar    1  UNL1        0.0189
      8 C          -5.8018  -18.6851   22.5008 C.ar    1  UNL1        0.0173
      9 N          -2.5569  -18.5846   20.2181 N.ar    1  UNL1       -0.2864
     10 C          -1.3325  -18.2234   21.0057 C.ar    1  UNL1        0.1022
     11 C          -0.2487  -17.8568   20.0357 C.ar    1  UNL1        0.1196
     12 N          -0.8034  -17.9913   18.6485 N.ar    1  UNL1       -0.2220
     13 C          -2.2299  -18.4411   18.7612 C.ar    1  UNL1        0.1828
     14 O          -9.2548  -19.3885   23.7809 O.2     1  UNL1       -0.1499
     15 S          -9.0523  -19.4470   22.2958 S.O2    1  UNL1        0.0736
     16 O          -8.8497  -19.5055   20.8107 O.2     1  UNL1       -0.1499
     17 C         -10.2688  -18.5924   22.0962 C.ar    1  UNL1        0.1268
     18 C         -10.3440  -17.6562   20.9266 C.ar    1  UNL1        0.0316
     19 C         -11.5604  -16.8016   20.7270 C.ar    1  UNL1        0.0599
     20 CL        -11.6356  -15.8654   19.5574 Cl      1  UNL1       -0.0822
     21 C         -12.7017  -16.8832   21.6969 C.ar    1  UNL1        0.0229
     22 C         -12.6265  -17.8195   22.8664 C.ar    1  UNL1        0.0599
     23 CL        -13.7679  -17.9011   23.8363 Cl      1  UNL1       -0.0822
     24 C         -11.4101  -18.6740   23.0661 C.ar    1  UNL1        0.0316
@<TRIPOS>BOND
     1    14    15    2
     2    15    16    2
     3    15     1    1
     4     1     3    1
     5     3     4   ar
     6     4     5   ar
     7     5     6   ar
     8     6     9    1
     9     9    10   ar
    10    10    11   ar
    11    11    12   ar
    12    12    13   ar
    13     6     7   ar
    14     7     8   ar
    15    15    17    1
    16    17    18   ar
    17    18    19   ar
    18    19    20    1
    19    19    21   ar
    20    21    22   ar
    21    22    23    1
    22    22    24   ar
    23     8     3   ar
    24    24    17   ar
    25    13     9   ar
    26     1     2    1
@<TRIPOS>MOLECULE
*****
 24 26 0 0 0
SMALL
GASTEIGER

@<TRIPOS>ATOM
      1 N          -7.3899  -16.6478   24.2424 N.pl3   1  UNL1       -0.2150
      2 H          -7.3450  -16.4024   25.1947 H       1  UNL1        0.1737
      3 C          -6.1312  -16.9579   23.4876 C.ar    1  UNL1        0.0649
      4 C          -4.9209  -16.0885   23.6583 C.ar    1  UNL1        0.0173
      5 C          -3.6623  -16.3986   22.9035 C.ar    1  UNL1        0.0189
      6 C          -3.6140  -17.5780   21.9780 C.ar    1  UNL1        0.0656
      7 C          -4.8244  -18.4474   21.8073 C.ar    1  UNL1        0.0189
      8 C          -6.0830  -18.1373   22.5621 C.ar    1  UNL1        0.0173
      9 N          -2.3553  -17.8881   21.2232 N.ar    1  UNL1       -0.2864
     10 C          -1.3244  -16.8922   20.7812 C.ar    1  UNL1        0.1022
     11 C          -0.2385  -17.6370   20.0627 C.ar    1  UNL1        0.1196
     12 N          -0.5984  -19.0933   20.0608 N.ar    1  UNL1       -0.2220
     13 C          -1.9067  -19.2484   20.7780 C.ar    1  UNL1        0.1828
     14 O          -8.2673  -15.6459   22.5913 O.2     1  UNL1       -0.1499
     15 S          -8.7170  -16.7117   23.5461 S.O2    1  UNL1        0.0736
     16 O          -9.1666  -17.7775   24.5010 O.2     1  UNL1       -0.1499
     17 C         -10.0441  -16.7756   22.8499 C.ar    1  UNL1        0.1268
     18 C         -11.2282  -17.3778   23.5465 C.ar    1  UNL1        0.0316
     19 C         -12.5553  -17.4417   22.8503 C.ar    1  UNL1        0.0599
     20 CL        -13.7395  -18.0439   23.5469 Cl      1  UNL1       -0.0822
     21 C         -12.6983  -16.9035   21.4575 C.ar    1  UNL1        0.0229
     22 C         -11.5142  -16.3013   20.7609 C.ar    1  UNL1        0.0599
     23 CL        -11.6572  -15.7630   19.3681 Cl      1  UNL1       -0.0822
     24 C         -10.1871  -16.2374   21.4571 C.ar    1  UNL1        0.0316
@<TRIPOS>BOND
     1    14    15    2
     2    15    16    2
     3    15     1    1
     4     1     3    1
     5     3     4   ar
     6     4     5   ar
     7     5     6   ar
     8     6     9    1
     9     9    10   ar
    10    10    11   ar
    11    11    12   ar
    12    12    13   ar
    13     6     7   ar
    14     7     8   ar
    15    15    17    1
    16    17    18   ar
    17    18    19   ar
    18    19    20    1
    19    19    21   ar
    20    21    22   ar
    21    22    23    1
    22    22    24   ar
    23     8     3   ar
    24    24    17   ar
    25    13     9   ar
    26     1     2    1
@<TRIPOS>MOLECULE
*****
 24 26 0 0 0
SMALL
GASTEIGER

@<TRIPOS>ATOM
      1 N          -7.2858  -16.5958   24.2515 N.pl3   1  UNL1       -0.2150
      2 H          -7.2338  -16.3452   25.2021 H       1  UNL1        0.1737
      3 C          -6.0327  -16.9105   23.4892 C.ar    1  UNL1        0.0649
      4 C          -5.9698  -18.1322   22.6212 C.ar    1  UNL1        0.0173
      5 C          -4.7168  -18.4469   21.8591 C.ar    1  UNL1        0.0189
      6 C          -3.5268  -17.5399   21.9649 C.ar    1  UNL1        0.0656
      7 C          -3.5897  -16.3183   22.8329 C.ar    1  UNL1        0.0189
      8 C          -4.8427  -16.0036   23.5951 C.ar    1  UNL1        0.0173
      9 N          -2.2737  -17.8547   21.2027 N.ar    1  UNL1       -0.2864
     10 C          -1.2500  -16.8607   20.7400 C.ar    1  UNL1        0.1022
     11 C          -0.1680  -17.6103   20.0207 C.ar    1  UNL1        0.1196
     12 N          -0.5231  -19.0676   20.0389 N.ar    1  UNL1       -0.2220
     13 C          -1.8244  -19.2186   20.7694 C.ar    1  UNL1        0.1828
     14 O          -8.1833  -15.5856   22.6163 O.2     1  UNL1       -0.1499
     15 S          -8.6179  -16.6629   23.5653 S.O2    1  UNL1        0.0736
     16 O          -9.0524  -17.7402   24.5142 O.2     1  UNL1       -0.1499
     17 C          -9.9501  -16.7300   22.8791 C.ar    1  UNL1        0.1268
     18 C         -10.1034  -16.1975   21.4852 C.ar    1  UNL1        0.0316
     19 C         -11.4356  -16.2646   20.7990 C.ar    1  UNL1        0.0599
     20 CL        -11.5889  -15.7320   19.4051 Cl      1  UNL1       -0.0822
     21 C         -12.6143  -16.8643   21.5067 C.ar    1  UNL1        0.0229
     22 C         -12.4610  -17.3969   22.9005 C.ar    1  UNL1        0.0599
     23 CL        -13.6398  -17.9966   23.6082 Cl      1  UNL1       -0.0822
     24 C         -11.1289  -17.3297   23.5867 C.ar    1  UNL1        0.0316
@<TRIPOS>BOND
     1    14    15    2
     2    15    16    2
     3    15     1    1
     4     1     3    1
     5     3     4   ar
     6     4     5   ar
     7     5     6   ar
     8     6     9    1
     9     9    10   ar
    10    10    11   ar
    11    11    12   ar
    12    12    13   ar
    13     6     7   ar
    14     7     8   ar
    15    15    17    1
    16    17    18   ar
    17    18    19   ar
    18    19    20    1
    19    19    21   ar
    20    21    22   ar
    21    22    23    1
    22    22    24   ar
    23     8     3   ar
    24    24    17   ar
    25    13     9   ar
    26     1     2    1
@<TRIPOS>MOLECULE
*****
 24 26 0 0 0
SMALL
GASTEIGER

@<TRIPOS>ATOM
      1 N          -7.1366  -20.1866   19.8814 N.pl3   1  UNL1       -0.2150
      2 H          -7.2429  -20.8039   19.1219 H       1  UNL1        0.1737
      3 C          -8.3229  -19.8238   20.7247 C.ar    1  UNL1        0.0649
      4 C          -9.6567  -19.5873   20.0806 C.ar    1  UNL1        0.0173
      5 C         -10.8430  -19.2245   20.9239 C.ar    1  UNL1        0.0189
      6 C         -10.6953  -19.0980   22.4113 C.ar    1  UNL1        0.0656
      7 C          -9.3614  -19.3345   23.0553 C.ar    1  UNL1        0.0189
      8 C          -8.1752  -19.6973   22.2121 C.ar    1  UNL1        0.0173
      9 N         -11.8816  -18.7351   23.2546 N.ar    1  UNL1       -0.2864
     10 C         -13.1120  -18.0180   22.7834 C.ar    1  UNL1        0.1022
     11 C         -14.0366  -17.8653   23.9546 C.ar    1  UNL1        0.1196
     12 N         -13.3776  -18.4881   25.1497 N.ar    1  UNL1       -0.2220
     13 C         -12.0458  -19.0257   24.7169 C.ar    1  UNL1        0.1828
     14 O          -6.3715  -18.2276   20.1582 O.2     1  UNL1       -0.1499
     15 S          -5.7883  -19.6091   20.1954 S.O2    1  UNL1        0.0736
     16 O          -5.2052  -20.9905   20.2326 O.2     1  UNL1       -0.1499
     17 C          -4.4400  -19.0315   20.5094 C.ar    1  UNL1        0.1268
     18 C          -3.4655  -18.7569   19.4026 C.ar    1  UNL1        0.0316
     19 C          -2.1173  -18.1794   19.7166 C.ar    1  UNL1        0.0599
     20 CL         -1.1427  -17.9049   18.6098 Cl      1  UNL1       -0.0822
     21 C          -1.7435  -17.8764   21.1373 C.ar    1  UNL1        0.0229
     22 C          -2.7180  -18.1509   22.2440 C.ar    1  UNL1        0.0599
     23 CL         -2.3442  -17.8479   23.6648 Cl      1  UNL1       -0.0822
     24 C          -4.0663  -18.7285   21.9301 C.ar    1  UNL1        0.0316
@<TRIPOS>BOND
     1    14    15    2
     2    15    16    2
     3    15     1    1
     4     1     3    1
     5     3     4   ar
     6     4     5   ar
     7     5     6   ar
     8     6     9    1
     9     9    10   ar
    10    10    11   ar
    11    11    12   ar
    12    12    13   ar
    13     6     7   ar
    14     7     8   ar
    15    15    17    1
    16    17    18   ar
    17    18    19   ar
    18    19    20    1
    19    19    21   ar
    20    21    22   ar
    21    22    23    1
    22    22    24   ar
    23     8     3   ar
    24    24    17   ar
    25    13     9   ar
    26     1     2    1
@<TRIPOS>MOLECULE
*****
 24 26 0 0 0
SMALL
GASTEIGER

@<TRIPOS>ATOM
      1 N          -4.9203  -19.4085   22.4721 N.pl3   1  UNL1       -0.2150
      2 H          -4.7053  -20.0506   23.1867 H       1  UNL1        0.1737
      3 C          -6.3262  -18.9117   22.3083 C.ar    1  UNL1        0.0649
      4 C          -6.6786  -17.5109   22.7127 C.ar    1  UNL1        0.0173
      5 C          -8.0844  -17.0142   22.5490 C.ar    1  UNL1        0.0189
      6 C          -9.1379  -17.9182   21.9808 C.ar    1  UNL1        0.0656
      7 C          -8.7856  -19.3190   21.5764 C.ar    1  UNL1        0.0189
      8 C          -7.3797  -19.8158   21.7402 C.ar    1  UNL1        0.0173
      9 N         -10.5438  -17.4214   21.8170 N.ar    1  UNL1       -0.2864
     10 C         -11.2444  -16.4459   22.7156 C.ar    1  UNL1        0.1022
     11 C         -12.6295  -16.2345   22.1799 C.ar    1  UNL1        0.1196
     12 N         -12.7848  -17.0794   20.9502 N.ar    1  UNL1       -0.2220
     13 C         -11.4958  -17.8129   20.7260 C.ar    1  UNL1        0.1828
     14 O          -3.3947  -17.9388   22.5830 O.2     1  UNL1       -0.1499
     15 S          -3.8422  -18.9270   21.5471 S.O2    1  UNL1        0.0736
     16 O          -4.2897  -19.9152   20.5112 O.2     1  UNL1       -0.1499
     17 C          -2.7640  -18.4455   20.6219 C.ar    1  UNL1        0.1268
     18 C          -1.3447  -18.3670   21.1009 C.ar    1  UNL1        0.0316
     19 C          -0.2666  -17.8855   20.1758 C.ar    1  UNL1        0.0599
     20 CL          1.1527  -17.8071   20.6548 Cl      1  UNL1       -0.0822
     21 C          -0.6077  -17.4826   18.7719 C.ar    1  UNL1        0.0229
     22 C          -2.0271  -17.5610   18.2929 C.ar    1  UNL1        0.0599
     23 CL         -2.3682  -17.1580   16.8889 Cl      1  UNL1       -0.0822
     24 C          -3.1052  -18.0425   19.2180 C.ar    1  UNL1        0.0316
@<TRIPOS>BOND
     1    14    15    2
     2    15    16    2
     3    15     1    1
     4     1     3    1
     5     3     4   ar
     6     4     5   ar
     7     5     6   ar
     8     6     9    1
     9     9    10   ar
    10    10    11   ar
    11    11    12   ar
    12    12    13   ar
    13     6     7   ar
    14     7     8   ar
    15    15    17    1
    16    17    18   ar
    17    18    19   ar
    18    19    20    1
    19    19    21   ar
    20    21    22   ar
    21    22    23    1
    22    22    24   ar
    23     8     3   ar
    24    24    17   ar
    25    13     9   ar
    26     1     2    1
@<TRIPOS>MOLECULE
*****
 24 26 0 0 0
SMALL
GASTEIGER

@<TRIPOS>ATOM
      1 N          -7.1471  -20.3875   21.4806 N.pl3   1  UNL1       -0.2150
      2 H          -7.3483  -21.3452   21.3733 H       1  UNL1        0.1737
      3 C          -5.7611  -19.8781   21.2163 C.ar    1  UNL1        0.0649
      4 C          -5.1143  -18.9288   22.1808 C.ar    1  UNL1        0.0173
      5 C          -3.7284  -18.4195   21.9164 C.ar    1  UNL1        0.0189
      6 C          -2.9894  -18.8596   20.6875 C.ar    1  UNL1        0.0656
      7 C          -3.6362  -19.8090   19.7231 C.ar    1  UNL1        0.0189
      8 C          -5.0220  -20.3183   19.9874 C.ar    1  UNL1        0.0173
      9 N          -1.6034  -18.3503   20.4232 N.ar    1  UNL1       -0.2864
     10 C          -1.1621  -16.9183   20.4929 C.ar    1  UNL1        0.1022
     11 C           0.2986  -16.8665   20.1556 C.ar    1  UNL1        0.1196
     12 N           0.7600  -18.2664   19.8774 N.ar    1  UNL1       -0.2220
     13 C          -0.4155  -19.1834   20.0428 C.ar    1  UNL1        0.1828
     14 O          -8.3769  -20.1894   23.1976 O.2     1  UNL1       -0.1499
     15 S          -8.2263  -19.4376   21.9084 S.O2    1  UNL1        0.0736
     16 O          -8.0757  -18.6859   20.6192 O.2     1  UNL1       -0.1499
     17 C          -9.3055  -18.4877   22.3362 C.ar    1  UNL1        0.1268
     18 C          -8.9891  -17.3727   23.2884 C.ar    1  UNL1        0.0316
     19 C         -10.0683  -16.4228   23.7162 C.ar    1  UNL1        0.0599
     20 CL         -9.7519  -15.3079   24.6684 Cl      1  UNL1       -0.0822
     21 C         -11.4639  -16.5879   23.1917 C.ar    1  UNL1        0.0229
     22 C         -11.7803  -17.7029   22.2395 C.ar    1  UNL1        0.0599
     23 CL        -13.1759  -17.8679   21.7150 Cl      1  UNL1       -0.0822
     24 C         -10.7011  -18.6528   21.8117 C.ar    1  UNL1        0.0316
@<TRIPOS>BOND
     1    14    15    2
     2    15    16    2
     3    15     1    1
     4     1     3    1
     5     3     4   ar
     6     4     5   ar
     7     5     6   ar
     8     6     9    1
     9     9    10   ar
    10    10    11   ar
    11    11    12   ar
    12    12    13   ar
    13     6     7   ar
    14     7     8   ar
    15    15    17    1
    16    17    18   ar
    17    18    19   ar
    18    19    20    1
    19    19    21   ar
    20    21    22   ar
    21    22    23    1
    22    22    24   ar
    23     8     3   ar
    24    24    17   ar
    25    13     9   ar
    26     1     2    1
@<TRIPOS>MOLECULE
*****
 24 26 0 0 0
SMALL
GASTEIGER

@<TRIPOS>ATOM
      1 N          -5.0366  -16.1140   24.0625 N.pl3   1  UNL1       -0.2150
      2 H          -4.6955  -15.5646   24.8048 H       1  UNL1        0.1737
      3 C          -6.5125  -16.3329   23.9079 C.ar    1  UNL1        0.0649
      4 C          -7.0304  -17.1948   22.7949 C.ar    1  UNL1        0.0173
      5 C          -8.5062  -17.4137   22.6404 C.ar    1  UNL1        0.0189
      6 C          -9.4642  -16.7708   23.5990 C.ar    1  UNL1        0.0656
      7 C          -8.9463  -15.9089   24.7121 C.ar    1  UNL1        0.0189
      8 C          -7.4705  -15.6900   24.8665 C.ar    1  UNL1        0.0173
      9 N         -10.9401  -16.9897   23.4445 N.ar    1  UNL1       -0.2864
     10 C         -11.7194  -18.1546   23.9792 C.ar    1  UNL1        0.1022
     11 C         -13.1567  -17.9671   23.5933 C.ar    1  UNL1        0.1196
     12 N         -13.2658  -16.6863   22.8201 N.ar    1  UNL1       -0.2220
     13 C         -11.8958  -16.0823   22.7281 C.ar    1  UNL1        0.1828
     14 O          -4.2729  -18.0670   23.7424 O.2     1  UNL1       -0.1499
     15 S          -4.0804  -16.7321   23.0860 S.O2    1  UNL1        0.0736
     16 O          -3.8878  -15.3972   22.4296 O.2     1  UNL1       -0.1499
     17 C          -3.1241  -17.3502   22.1094 C.ar    1  UNL1        0.1268
     18 C          -1.9349  -16.5721   21.6295 C.ar    1  UNL1        0.0316
     19 C          -0.9787  -17.1901   20.6529 C.ar    1  UNL1        0.0599
     20 CL          0.2106  -16.4120   20.1730 Cl      1  UNL1       -0.0822
     21 C          -1.2117  -18.5861   20.1563 C.ar    1  UNL1        0.0229
     22 C          -2.4009  -19.3642   20.6362 C.ar    1  UNL1        0.0599
     23 CL         -2.6339  -20.7603   20.1396 Cl      1  UNL1       -0.0822
     24 C          -3.3572  -18.7462   21.6128 C.ar    1  UNL1        0.0316
@<TRIPOS>BOND
     1    14    15    2
     2    15    16    2
     3    15     1    1
     4     1     3    1
     5     3     4   ar
     6     4     5   ar
     7     5     6   ar
     8     6     9    1
     9     9    10   ar
    10    10    11   ar
    11    11    12   ar
    12    12    13   ar
    13     6     7   ar
    14     7     8   ar
    15    15    17    1
    16    17    18   ar
    17    18    19   ar
    18    19    20    1
    19    19    21   ar
    20    21    22   ar
    21    22    23    1
    22    22    24   ar
    23     8     3   ar
    24    24    17   ar
    25    13     9   ar
    26     1     2    1
@<TRIPOS>MOLECULE
*****
 24 26 0 0 0
SMALL
GASTEIGER

@<TRIPOS>ATOM
      1 N          -5.0351  -16.1012   24.0511 N.pl3   1  UNL1       -0.2150
      2 H          -4.6952  -15.5467   24.7901 H       1  UNL1        0.1737
      3 C          -6.5105  -16.3252   23.8987 C.ar    1  UNL1        0.0649
      4 C          -7.0272  -17.1865   22.7846 C.ar    1  UNL1        0.0173
      5 C          -8.5025  -17.4104   22.6323 C.ar    1  UNL1        0.0189
      6 C          -9.4611  -16.7732   23.5941 C.ar    1  UNL1        0.0656
      7 C          -8.9444  -15.9119   24.7082 C.ar    1  UNL1        0.0189
      8 C          -7.4691  -15.6880   24.8605 C.ar    1  UNL1        0.0173
      9 N         -10.9365  -16.9972   23.4417 N.ar    1  UNL1       -0.2864
     10 C         -11.7158  -18.1498   24.0022 C.ar    1  UNL1        0.1022
     11 C         -13.1525  -17.9729   23.6091 C.ar    1  UNL1        0.1196
     12 N         -13.2611  -16.7109   22.8056 N.ar    1  UNL1       -0.2220
     13 C         -11.8916  -16.1079   22.7022 C.ar    1  UNL1        0.1828
     14 O          -3.8688  -15.3851   22.4304 O.2     1  UNL1       -0.1499
     15 S          -4.0778  -16.7221   23.0774 S.O2    1  UNL1        0.0736
     16 O          -4.2868  -18.0591   23.7245 O.2     1  UNL1       -0.1499
     17 C          -3.1204  -17.3430   22.1038 C.ar    1  UNL1        0.1268
     18 C          -3.3479  -18.7438   21.6179 C.ar    1  UNL1        0.0316
     19 C          -2.3906  -19.3647   20.6443 C.ar    1  UNL1        0.0599
     20 CL         -2.6182  -20.7654   20.1584 Cl      1  UNL1       -0.0822
     21 C          -1.2058  -18.5848   20.1565 C.ar    1  UNL1        0.0229
     22 C          -0.9783  -17.1841   20.6424 C.ar    1  UNL1        0.0599
     23 CL          0.2067  -16.4042   20.1546 Cl      1  UNL1       -0.0822
     24 C          -1.9356  -16.5631   21.6160 C.ar    1  UNL1        0.0316
@<TRIPOS>BOND
     1    14    15    2
     2    15    16    2
     3    15     1    1
     4     1     3    1
     5     3     4   ar
     6     4     5   ar
     7     5     6   ar
     8     6     9    1
     9     9    10   ar
    10    10    11   ar
    11    11    12   ar
    12    12    13   ar
    13     6     7   ar
    14     7     8   ar
    15    15    17    1
    16    17    18   ar
    17    18    19   ar
    18    19    20    1
    19    19    21   ar
    20    21    22   ar
    21    22    23    1
    22    22    24   ar
    23     8     3   ar
    24    24    17   ar
    25    13     9   ar
    26     1     2    1
