@<TRIPOS>MOLECULE
*****
 31 34 0 0 0
SMALL
GASTEIGER

@<TRIPOS>ATOM
      1 C           1.2783    3.7159   33.0493 C.ar    1  UNL1        0.1387
      2 C           1.1680    4.4868   31.7673 C.ar    1  UNL1        0.0375
      3 C           1.4575    3.8121   30.4592 C.ar    1  UNL1        0.0114
      4 C           1.8573    2.3666   30.4332 C.ar    1  UNL1        0.0422
      5 C           1.9676    1.5957   31.7153 C.ar    1  UNL1        0.0114
      6 C           1.6781    2.2704   33.0233 C.ar    1  UNL1        0.0375
      7 C           2.1467    1.6919   29.1251 C.1     1  UNL1       -0.0583
      8 C           2.4362    1.0172   27.8171 C.1     1  UNL1       -0.0405
      9 C           2.7257    0.3425   26.5090 C.ar    1  UNL1        0.1228
     10 C           2.0782    0.8381   25.2500 C.ar    1  UNL1        0.0276
     11 C           2.3678    0.1634   23.9420 C.ar    1  UNL1        0.0037
     12 C           3.3048   -1.0068   23.8930 C.ar    1  UNL1        0.0192
     13 C           3.9523   -1.5024   25.1520 C.ar    1  UNL1        0.0995
     14 N           3.6628   -0.8278   26.4600 N.ar    1  UNL1       -0.2356
     15 C           3.5943   -1.6815   22.5849 C.ar    1  UNL1        0.0016
     16 C           4.4868   -2.8864   22.5438 C.ar    1  UNL1        0.0009
     17 C           4.7763   -3.5611   21.2357 C.ar    1  UNL1        0.0114
     18 C           4.1733   -3.0308   19.9687 C.ar    1  UNL1        0.0577
     19 CL          4.4628   -3.7055   18.6607 Cl      1  UNL1       -0.0822
     20 C           3.2808   -1.8259   20.0099 C.ar    1  UNL1        0.0114
     21 C           2.9913   -1.1513   21.3179 C.ar    1  UNL1        0.0009
     22 O           0.9889    4.3906   34.3574 O.3     1  UNL1       -0.4740
     23 C           2.0948    5.0635   35.1151 C.3     1  UNL1        0.2226
     24 C           3.1079    4.2394   35.8530 C.3     1  UNL1        0.1200
     25 C           1.3082    0.1729   39.8810 C.3     1  UNL1        0.0001
     26 C           1.7581    1.1895   38.8740 C.3     1  UNL1        0.0028
     27 C           1.0400    2.5015   38.7605 C.3     1  UNL1        0.0174
     28 C           1.4899    3.5181   37.7535 C.3     1  UNL1        0.0722
     29 N           2.6580    3.2228   36.8600 N.3     1  UNL1       -0.2696
     30 C           3.3761    1.9108   36.9735 C.3     1  UNL1        0.0722
     31 C           2.9262    0.8942   37.9805 C.3     1  UNL1        0.0174
@<TRIPOS>BOND
     1    25    26    1
     2    26    27    1
     3    27    28    1
     4    28    29    1
     5    29    24    1
     6    24    23    1
     7    23    22    1
     8    22     1    1
     9     1     2   ar
    10     2     3   ar
    11     3     4   ar
    12     4     7    1
    13     7     8    3
    14     8     9    1
    15     9    10   ar
    16    10    11   ar
    17    11    12   ar
    18    12    15    1
    19    15    16   ar
    20    16    17   ar
    21    17    18   ar
    22    18    19    1
    23    18    20   ar
    24    20    21   ar
    25    12    13   ar
    26    13    14   ar
    27     4     5   ar
    28     5     6   ar
    29    29    30    1
    30    30    31    1
    31    31    26    1
    32     6     1   ar
    33    14     9   ar
    34    21    15   ar
@<TRIPOS>MOLECULE
*****
 31 34 0 0 0
SMALL
GASTEIGER

@<TRIPOS>ATOM
      1 C           4.6358    0.6078   17.6434 C.ar    1  UNL1        0.1387
      2 C           4.6045    1.9813   18.2454 C.ar    1  UNL1        0.0375
      3 C           3.3679    2.4669   18.9419 C.ar    1  UNL1        0.0114
      4 C           2.1626    1.5789   19.0364 C.ar    1  UNL1        0.0422
      5 C           2.1940    0.2054   18.4343 C.ar    1  UNL1        0.0114
      6 C           3.4306   -0.2802   17.7379 C.ar    1  UNL1        0.0375
      7 C           0.9261    2.0645   19.7328 C.1     1  UNL1       -0.0583
      8 C          -0.3105    2.5501   20.4293 C.1     1  UNL1       -0.0405
      9 C          -1.5471    3.0356   21.1258 C.ar    1  UNL1        0.1228
     10 C          -1.4454    3.6623   22.4848 C.ar    1  UNL1        0.0276
     11 C          -2.6819    4.1478   23.1813 C.ar    1  UNL1        0.0037
     12 C          -4.0203    4.0066   22.5187 C.ar    1  UNL1        0.0192
     13 C          -4.1220    3.3799   21.1598 C.ar    1  UNL1        0.0995
     14 N          -2.8854    2.8944   20.4633 N.ar    1  UNL1       -0.2356
     15 C          -5.2569    4.4922   23.2153 C.ar    1  UNL1        0.0016
     16 C          -6.6097    4.0762   22.7186 C.ar    1  UNL1        0.0009
     17 C          -7.8464    4.5617   23.4151 C.ar    1  UNL1        0.0114
     18 C          -7.7301    5.4633   24.6083 C.ar    1  UNL1        0.0577
     19 CL         -8.9666    5.9488   25.3049 Cl      1  UNL1       -0.0822
     20 C          -6.3771    5.8792   25.1050 C.ar    1  UNL1        0.0114
     21 C          -5.1406    5.3937   24.4085 C.ar    1  UNL1        0.0009
     22 O           5.8724    0.1221   16.9469 O.3     1  UNL1       -0.4740
     23 C           6.9138   -0.6397   17.7118 C.3     1  UNL1        0.2226
     24 C           6.6500   -1.0540   19.1291 C.3     1  UNL1        0.1200
     25 C           3.1767   -5.8124   20.2667 C.3     1  UNL1        0.0001
     26 C           4.0450   -4.6228   19.9823 C.3     1  UNL1        0.0028
     27 C           4.3142   -3.6157   21.0608 C.3     1  UNL1        0.0174
     28 C           5.1825   -2.4261   20.7764 C.3     1  UNL1        0.0722
     29 N           5.7817   -2.2436   19.4135 N.3     1  UNL1       -0.2696
     30 C           5.5126   -3.2507   18.3350 C.3     1  UNL1        0.0722
     31 C           4.6442   -4.4403   18.6193 C.3     1  UNL1        0.0174
@<TRIPOS>BOND
     1    25    26    1
     2    26    27    1
     3    27    28    1
     4    28    29    1
     5    29    24    1
     6    24    23    1
     7    23    22    1
     8    22     1    1
     9     1     2   ar
    10     2     3   ar
    11     3     4   ar
    12     4     7    1
    13     7     8    3
    14     8     9    1
    15     9    10   ar
    16    10    11   ar
    17    11    12   ar
    18    12    15    1
    19    15    16   ar
    20    16    17   ar
    21    17    18   ar
    22    18    19    1
    23    18    20   ar
    24    20    21   ar
    25    12    13   ar
    26    13    14   ar
    27     4     5   ar
    28     5     6   ar
    29    29    30    1
    30    30    31    1
    31    31    26    1
    32     6     1   ar
    33    14     9   ar
    34    21    15   ar
@<TRIPOS>MOLECULE
*****
 31 34 0 0 0
SMALL
GASTEIGER

@<TRIPOS>ATOM
      1 C           3.8421   -2.4404   20.5271 C.ar    1  UNL1        0.1387
      2 C           4.5991   -3.3675   21.4312 C.ar    1  UNL1        0.0375
      3 C           4.6486   -3.1017   22.9067 C.ar    1  UNL1        0.0114
      4 C           3.9411   -1.9088   23.4780 C.ar    1  UNL1        0.0422
      5 C           3.1841   -0.9816   22.5738 C.ar    1  UNL1        0.0114
      6 C           3.1346   -1.2474   21.0984 C.ar    1  UNL1        0.0375
      7 C           3.9906   -1.6430   24.9534 C.1     1  UNL1       -0.0583
      8 C           4.0401   -1.3772   26.4288 C.1     1  UNL1       -0.0405
      9 C           4.0895   -1.1113   27.9043 C.ar    1  UNL1        0.1228
     10 C           5.4098   -1.0697   28.6150 C.ar    1  UNL1        0.0276
     11 C           5.4592   -0.8039   30.0904 C.ar    1  UNL1        0.0037
     12 C           4.1883   -0.5797   30.8551 C.ar    1  UNL1        0.0192
     13 C           2.8681   -0.6213   30.1443 C.ar    1  UNL1        0.0995
     14 N           2.8187   -0.8871   28.6689 N.ar    1  UNL1       -0.2356
     15 C           4.2378   -0.3138   32.3305 C.ar    1  UNL1        0.0016
     16 C           3.6196    0.9336   32.8890 C.ar    1  UNL1        0.0009
     17 C           3.6691    1.1994   34.3645 C.ar    1  UNL1        0.0114
     18 C           4.3367    0.2178   35.2814 C.ar    1  UNL1        0.0577
     19 CL          4.3862    0.4836   36.7568 Cl      1  UNL1       -0.0822
     20 C           4.9549   -1.0296   34.7229 C.ar    1  UNL1        0.0114
     21 C           4.9054   -1.2954   33.2475 C.ar    1  UNL1        0.0009
     22 O           3.7926   -2.7062   19.0516 O.3     1  UNL1       -0.4740
     23 C           4.6040   -1.8659   18.1106 C.3     1  UNL1        0.2226
     24 C           3.9288   -0.8423   17.2468 C.3     1  UNL1        0.1200
     25 C           1.2044    3.8765   19.7590 C.3     1  UNL1        0.0001
     26 C           1.8855    2.6968   19.1310 C.3     1  UNL1        0.0028
     27 C           3.3662    2.7247   18.8931 C.3     1  UNL1        0.0174
     28 C           4.0473    1.5450   18.2650 C.3     1  UNL1        0.0722
     29 N           3.2477    0.3374   17.8749 N.3     1  UNL1       -0.2696
     30 C           1.7669    0.3095   18.1128 C.3     1  UNL1        0.0722
     31 C           1.0858    1.4892   18.7408 C.3     1  UNL1        0.0174
@<TRIPOS>BOND
     1    25    26    1
     2    26    27    1
     3    27    28    1
     4    28    29    1
     5    29    24    1
     6    24    23    1
     7    23    22    1
     8    22     1    1
     9     1     2   ar
    10     2     3   ar
    11     3     4   ar
    12     4     7    1
    13     7     8    3
    14     8     9    1
    15     9    10   ar
    16    10    11   ar
    17    11    12   ar
    18    12    15    1
    19    15    16   ar
    20    16    17   ar
    21    17    18   ar
    22    18    19    1
    23    18    20   ar
    24    20    21   ar
    25    12    13   ar
    26    13    14   ar
    27     4     5   ar
    28     5     6   ar
    29    29    30    1
    30    30    31    1
    31    31    26    1
    32     6     1   ar
    33    14     9   ar
    34    21    15   ar
@<TRIPOS>MOLECULE
*****
 31 34 0 0 0
SMALL
GASTEIGER

@<TRIPOS>ATOM
      1 C           5.3907   -3.2477   21.2768 C.ar    1  UNL1        0.1387
      2 C           5.3614   -3.0658   22.7654 C.ar    1  UNL1        0.0375
      3 C           4.3735   -2.1234   23.3866 C.ar    1  UNL1        0.0114
      4 C           3.4149   -1.3627   22.5191 C.ar    1  UNL1        0.0422
      5 C           3.4442   -1.5446   21.0304 C.ar    1  UNL1        0.0114
      6 C           4.4321   -2.4870   20.4093 C.ar    1  UNL1        0.0375
      7 C           2.4270   -0.4203   23.1402 C.1     1  UNL1       -0.0583
      8 C           1.4391    0.5222   23.7613 C.1     1  UNL1       -0.0405
      9 C           0.4511    1.4647   24.3824 C.ar    1  UNL1        0.1228
     10 C           0.0313    1.2773   25.8101 C.ar    1  UNL1        0.0276
     11 C          -0.9566    2.2198   26.4312 C.ar    1  UNL1        0.0037
     12 C          -1.5247    3.3497   25.6244 C.ar    1  UNL1        0.0192
     13 C          -1.1048    3.5370   24.1967 C.ar    1  UNL1        0.0995
     14 N          -0.1169    2.5945   23.5756 N.ar    1  UNL1       -0.2356
     15 C          -2.5126    4.2922   26.2455 C.ar    1  UNL1        0.0016
     16 C          -3.9840    4.0439   26.0931 C.ar    1  UNL1        0.0009
     17 C          -4.9720    4.9865   26.7141 C.ar    1  UNL1        0.0114
     18 C          -4.4884    6.1772   27.4877 C.ar    1  UNL1        0.0577
     19 CL         -5.4763    7.1197   28.1088 Cl      1  UNL1       -0.0822
     20 C          -3.0169    6.4254   27.6401 C.ar    1  UNL1        0.0114
     21 C          -2.0291    5.4829   27.0190 C.ar    1  UNL1        0.0009
     22 O           6.3786   -4.1901   20.6556 O.3     1  UNL1       -0.4740
     23 C           7.8419   -4.0455   20.9522 C.3     1  UNL1        0.2226
     24 C           8.6555   -5.2510   21.3193 C.3     1  UNL1        0.1200
     25 C           7.9791   -7.7991   26.7091 C.3     1  UNL1        0.0001
     26 C           8.1482   -7.1620   25.3617 C.3     1  UNL1        0.0028
     27 C           7.4927   -5.8455   25.0669 C.3     1  UNL1        0.0174
     28 C           7.6618   -5.2084   23.7195 C.3     1  UNL1        0.0722
     29 N           8.4864   -5.8880   22.6668 N.3     1  UNL1       -0.2696
     30 C           9.1419   -7.2046   22.9615 C.3     1  UNL1        0.0722
     31 C           8.9728   -7.8416   24.3090 C.3     1  UNL1        0.0174
@<TRIPOS>BOND
     1    25    26    1
     2    26    27    1
     3    27    28    1
     4    28    29    1
     5    29    24    1
     6    24    23    1
     7    23    22    1
     8    22     1    1
     9     1     2   ar
    10     2     3   ar
    11     3     4   ar
    12     4     7    1
    13     7     8    3
    14     8     9    1
    15     9    10   ar
    16    10    11   ar
    17    11    12   ar
    18    12    15    1
    19    15    16   ar
    20    16    17   ar
    21    17    18   ar
    22    18    19    1
    23    18    20   ar
    24    20    21   ar
    25    12    13   ar
    26    13    14   ar
    27     4     5   ar
    28     5     6   ar
    29    29    30    1
    30    30    31    1
    31    31    26    1
    32     6     1   ar
    33    14     9   ar
    34    21    15   ar
@<TRIPOS>MOLECULE
*****
 31 34 0 0 0
SMALL
GASTEIGER

@<TRIPOS>ATOM
      1 C          -6.9089    5.4797   22.0077 C.ar    1  UNL1        0.1387
      2 C          -6.5595    4.1693   22.6486 C.ar    1  UNL1        0.0375
      3 C          -5.2889    3.4659   22.2732 C.ar    1  UNL1        0.0114
      4 C          -4.3677    4.0730   21.2569 C.ar    1  UNL1        0.0422
      5 C          -4.7171    5.3835   20.6160 C.ar    1  UNL1        0.0114
      6 C          -5.9876    6.0868   20.9914 C.ar    1  UNL1        0.0375
      7 C          -3.0971    3.3697   20.8815 C.1     1  UNL1       -0.0583
      8 C          -1.8266    2.6663   20.5061 C.1     1  UNL1       -0.0405
      9 C          -0.5559    1.9630   20.1307 C.ar    1  UNL1        0.1228
     10 C           0.4118    2.6149   19.1881 C.ar    1  UNL1        0.0276
     11 C           1.6824    1.9115   18.8128 C.ar    1  UNL1        0.0037
     12 C           1.9852    0.5564   19.3801 C.ar    1  UNL1        0.0192
     13 C           1.0175   -0.0955   20.3227 C.ar    1  UNL1        0.0995
     14 N          -0.2531    0.6078   20.6980 N.ar    1  UNL1       -0.2356
     15 C           3.2559   -0.1470   19.0047 C.ar    1  UNL1        0.0016
     16 C           3.6823   -1.3753   19.7525 C.ar    1  UNL1        0.0009
     17 C           4.9529   -2.0787   19.3771 C.ar    1  UNL1        0.0114
     18 C           5.7971   -1.5536   18.2539 C.ar    1  UNL1        0.0577
     19 CL          7.0677   -2.2568   17.8785 Cl      1  UNL1       -0.0822
     20 C           5.3707   -0.3251   17.5060 C.ar    1  UNL1        0.0114
     21 C           4.1001    0.3781   17.8814 C.ar    1  UNL1        0.0009
     22 O          -8.1795    6.1831   22.3831 O.3     1  UNL1       -0.4740
     23 C          -8.1996    7.1219   23.5528 C.3     1  UNL1        0.2226
     24 C          -8.9030    6.7289   24.8179 C.3     1  UNL1        0.1200
     25 C         -14.5878    4.8200   24.6210 C.3     1  UNL1        0.0001
     26 C         -13.1666    5.2972   24.6703 C.3     1  UNL1        0.0028
     27 C         -12.0464    4.3065   24.7860 C.3     1  UNL1        0.0174
     28 C         -10.6252    4.7837   24.8352 C.3     1  UNL1        0.0722
     29 N         -10.3242    6.2516   24.7687 N.3     1  UNL1       -0.2696
     30 C         -11.4445    7.2424   24.6530 C.3     1  UNL1        0.0722
     31 C         -12.8657    6.7652   24.6038 C.3     1  UNL1        0.0174
@<TRIPOS>BOND
     1    25    26    1
     2    26    27    1
     3    27    28    1
     4    28    29    1
     5    29    24    1
     6    24    23    1
     7    23    22    1
     8    22     1    1
     9     1     2   ar
    10     2     3   ar
    11     3     4   ar
    12     4     7    1
    13     7     8    3
    14     8     9    1
    15     9    10   ar
    16    10    11   ar
    17    11    12   ar
    18    12    15    1
    19    15    16   ar
    20    16    17   ar
    21    17    18   ar
    22    18    19    1
    23    18    20   ar
    24    20    21   ar
    25    12    13   ar
    26    13    14   ar
    27     4     5   ar
    28     5     6   ar
    29    29    30    1
    30    30    31    1
    31    31    26    1
    32     6     1   ar
    33    14     9   ar
    34    21    15   ar
@<TRIPOS>MOLECULE
*****
 31 34 0 0 0
SMALL
GASTEIGER

@<TRIPOS>ATOM
      1 C           5.7091   -0.7832   34.5581 C.ar    1  UNL1        0.1387
      2 C           6.7592   -0.2095   33.6536 C.ar    1  UNL1        0.0375
      3 C           6.6922   -0.4563   32.1755 C.ar    1  UNL1        0.0114
      4 C           5.5750   -1.2767   31.6020 C.ar    1  UNL1        0.0422
      5 C           4.5249   -1.8504   32.5065 C.ar    1  UNL1        0.0114
      6 C           4.5919   -1.6036   33.9846 C.ar    1  UNL1        0.0375
      7 C           5.5080   -1.5235   30.1240 C.1     1  UNL1       -0.0583
      8 C           5.4410   -1.7703   28.6459 C.1     1  UNL1       -0.0405
      9 C           5.3739   -2.0171   27.1679 C.ar    1  UNL1        0.1228
     10 C           6.3885   -2.9037   26.5087 C.ar    1  UNL1        0.0276
     11 C           6.3214   -3.1505   25.0307 C.ar    1  UNL1        0.0037
     12 C           5.2397   -2.5106   24.2118 C.ar    1  UNL1        0.0192
     13 C           4.2251   -1.6240   24.8710 C.ar    1  UNL1        0.0995
     14 N           4.2922   -1.3772   26.3490 N.ar    1  UNL1       -0.2356
     15 C           5.1726   -2.7575   22.7338 C.ar    1  UNL1        0.0016
     16 C           6.2378   -3.5708   22.0601 C.ar    1  UNL1        0.0009
     17 C           6.1707   -3.8177   20.5820 C.ar    1  UNL1        0.0114
     18 C           5.0385   -3.2511   19.7777 C.ar    1  UNL1        0.0577
     19 CL          4.9714   -3.4979   18.2997 Cl      1  UNL1       -0.0822
     20 C           3.9733   -2.4376   20.4514 C.ar    1  UNL1        0.0114
     21 C           4.0404   -2.1909   21.9294 C.ar    1  UNL1        0.0009
     22 O           5.7761   -0.5364   36.0362 O.3     1  UNL1       -0.4740
     23 C           6.0882    0.8363   36.5540 C.3     1  UNL1        0.2226
     24 C           5.1288    1.9642   36.3147 C.3     1  UNL1        0.1200
     25 C           0.1129    2.3803   39.5808 C.3     1  UNL1        0.0001
     26 C           1.3669    2.2763   38.7643 C.3     1  UNL1        0.0028
     27 C           1.7680    3.4030   37.8590 C.3     1  UNL1        0.0174
     28 C           3.0220    3.2990   37.0425 C.3     1  UNL1        0.0722
     29 N           3.8748    2.0683   37.1312 N.3     1  UNL1       -0.2696
     30 C           3.4737    0.9415   38.0365 C.3     1  UNL1        0.0722
     31 C           2.2197    1.0455   38.8530 C.3     1  UNL1        0.0174
@<TRIPOS>BOND
     1    25    26    1
     2    26    27    1
     3    27    28    1
     4    28    29    1
     5    29    24    1
     6    24    23    1
     7    23    22    1
     8    22     1    1
     9     1     2   ar
    10     2     3   ar
    11     3     4   ar
    12     4     7    1
    13     7     8    3
    14     8     9    1
    15     9    10   ar
    16    10    11   ar
    17    11    12   ar
    18    12    15    1
    19    15    16   ar
    20    16    17   ar
    21    17    18   ar
    22    18    19    1
    23    18    20   ar
    24    20    21   ar
    25    12    13   ar
    26    13    14   ar
    27     4     5   ar
    28     5     6   ar
    29    29    30    1
    30    30    31    1
    31    31    26    1
    32     6     1   ar
    33    14     9   ar
    34    21    15   ar
@<TRIPOS>MOLECULE
*****
 31 34 0 0 0
SMALL
GASTEIGER

@<TRIPOS>ATOM
      1 C           4.8678   -0.2209   18.4531 C.ar    1  UNL1        0.1387
      2 C           3.6016   -0.1736   17.6505 C.ar    1  UNL1        0.0375
      3 C           2.3610    0.4279   18.2415 C.ar    1  UNL1        0.0114
      4 C           2.3868    0.9821   19.6351 C.ar    1  UNL1        0.0422
      5 C           3.6531    0.9348   20.4377 C.ar    1  UNL1        0.0114
      6 C           4.8936    0.3333   19.8468 C.ar    1  UNL1        0.0375
      7 C           1.1463    1.5836   20.2261 C.1     1  UNL1       -0.0583
      8 C          -0.0942    2.1851   20.8170 C.1     1  UNL1       -0.0405
      9 C          -1.3348    2.7867   21.4081 C.ar    1  UNL1        0.1228
     10 C          -1.3020    3.3650   22.7917 C.ar    1  UNL1        0.0276
     11 C          -2.5425    3.9665   23.3827 C.ar    1  UNL1        0.0037
     12 C          -3.8158    3.9897   22.5900 C.ar    1  UNL1        0.0192
     13 C          -3.8485    3.4114   21.2064 C.ar    1  UNL1        0.0995
     14 N          -2.6080    2.8099   20.6155 N.ar    1  UNL1       -0.2356
     15 C          -5.0563    4.5913   23.1811 C.ar    1  UNL1        0.0016
     16 C          -4.9534    5.7779   24.0928 C.ar    1  UNL1        0.0009
     17 C          -6.1939    6.3795   24.6839 C.ar    1  UNL1        0.0114
     18 C          -7.5373    5.7944   24.3631 C.ar    1  UNL1        0.0577
     19 CL         -8.7778    6.3959   24.9541 Cl      1  UNL1       -0.0822
     20 C          -7.6402    4.6077   23.4513 C.ar    1  UNL1        0.0114
     21 C          -6.3997    4.0062   22.8603 C.ar    1  UNL1        0.0009
     22 O           6.1084   -0.8225   17.8622 O.3     1  UNL1       -0.4740
     23 C           6.3008   -2.3100   17.8764 C.3     1  UNL1        0.2226
     24 C           5.3746   -3.1784   18.6752 C.3     1  UNL1        0.1200
     25 C           6.3486   -4.0072   24.5373 C.3     1  UNL1        0.0001
     26 C           6.1051   -3.8000   23.0718 C.3     1  UNL1        0.0028
     27 C           4.7278   -3.4663   22.5801 C.3     1  UNL1        0.0174
     28 C           4.4843   -3.2591   21.1146 C.3     1  UNL1        0.0722
     29 N           5.6181   -3.3856   20.1407 N.3     1  UNL1       -0.2696
     30 C           6.9953   -3.7193   20.6323 C.3     1  UNL1        0.0722
     31 C           7.2388   -3.9265   22.0979 C.3     1  UNL1        0.0174
@<TRIPOS>BOND
     1    25    26    1
     2    26    27    1
     3    27    28    1
     4    28    29    1
     5    29    24    1
     6    24    23    1
     7    23    22    1
     8    22     1    1
     9     1     2   ar
    10     2     3   ar
    11     3     4   ar
    12     4     7    1
    13     7     8    3
    14     8     9    1
    15     9    10   ar
    16    10    11   ar
    17    11    12   ar
    18    12    15    1
    19    15    16   ar
    20    16    17   ar
    21    17    18   ar
    22    18    19    1
    23    18    20   ar
    24    20    21   ar
    25    12    13   ar
    26    13    14   ar
    27     4     5   ar
    28     5     6   ar
    29    29    30    1
    30    30    31    1
    31    31    26    1
    32     6     1   ar
    33    14     9   ar
    34    21    15   ar
@<TRIPOS>MOLECULE
*****
 31 34 0 0 0
SMALL
GASTEIGER

@<TRIPOS>ATOM
      1 C           5.6505   -0.5759   35.1366 C.ar    1  UNL1        0.1387
      2 C           6.6686   -0.0115   34.1907 C.ar    1  UNL1        0.0375
      3 C           6.5037   -0.1997   32.7116 C.ar    1  UNL1        0.0114
      4 C           5.3207   -0.9524   32.1787 C.ar    1  UNL1        0.0422
      5 C           4.3026   -1.5167   33.1247 C.ar    1  UNL1        0.0114
      6 C           4.4675   -1.3285   34.6037 C.ar    1  UNL1        0.0375
      7 C           5.1558   -1.1406   30.6997 C.1     1  UNL1       -0.0583
      8 C           4.9909   -1.3288   29.2208 C.1     1  UNL1       -0.0405
      9 C           4.8261   -1.5171   27.7417 C.ar    1  UNL1        0.1228
     10 C           5.8058   -2.3586   26.9790 C.ar    1  UNL1        0.0276
     11 C           5.6409   -2.5468   25.5000 C.ar    1  UNL1        0.0037
     12 C           4.4963   -1.8935   24.7838 C.ar    1  UNL1        0.0192
     13 C           3.5165   -1.0520   25.5466 C.ar    1  UNL1        0.0995
     14 N           3.6814   -0.8637   27.0255 N.ar    1  UNL1       -0.2356
     15 C           4.3314   -2.0818   23.3048 C.ar    1  UNL1        0.0016
     16 C           4.8992   -3.2983   22.6357 C.ar    1  UNL1        0.0009
     17 C           4.7343   -3.4865   21.1567 C.ar    1  UNL1        0.0114
     18 C           4.0017   -2.4582   20.3468 C.ar    1  UNL1        0.0577
     19 CL          3.8368   -2.6464   18.8679 Cl      1  UNL1       -0.0822
     20 C           3.4339   -1.2417   21.0160 C.ar    1  UNL1        0.0114
     21 C           3.5988   -1.0535   22.4950 C.ar    1  UNL1        0.0009
     22 O           5.8154   -0.3877   36.6157 O.3     1  UNL1       -0.4740
     23 C           5.2627    0.8373   37.2820 C.3     1  UNL1        0.2226
     24 C           3.7816    0.9879   37.4649 C.3     1  UNL1        0.1200
     25 C           0.8358    5.3648   34.6073 C.3     1  UNL1        0.0001
     26 C           1.5722    4.2706   35.3217 C.3     1  UNL1        0.0028
     27 C           2.2694    3.1992   34.5368 C.3     1  UNL1        0.0174
     28 C           3.0059    2.1050   35.2512 C.3     1  UNL1        0.0722
     29 N           3.0451    2.0821   36.7505 N.3     1  UNL1       -0.2696
     30 C           2.3479    3.1535   37.5354 C.3     1  UNL1        0.0722
     31 C           1.6115    4.2477   36.8210 C.3     1  UNL1        0.0174
@<TRIPOS>BOND
     1    25    26    1
     2    26    27    1
     3    27    28    1
     4    28    29    1
     5    29    24    1
     6    24    23    1
     7    23    22    1
     8    22     1    1
     9     1     2   ar
    10     2     3   ar
    11     3     4   ar
    12     4     7    1
    13     7     8    3
    14     8     9    1
    15     9    10   ar
    16    10    11   ar
    17    11    12   ar
    18    12    15    1
    19    15    16   ar
    20    16    17   ar
    21    17    18   ar
    22    18    19    1
    23    18    20   ar
    24    20    21   ar
    25    12    13   ar
    26    13    14   ar
    27     4     5   ar
    28     5     6   ar
    29    29    30    1
    30    30    31    1
    31    31    26    1
    32     6     1   ar
    33    14     9   ar
    34    21    15   ar
@<TRIPOS>MOLECULE
*****
 31 34 0 0 0
SMALL
GASTEIGER

@<TRIPOS>ATOM
      1 C           6.1934   -3.7897   22.5915 C.ar    1  UNL1        0.1387
      2 C           7.0059   -4.3799   23.7057 C.ar    1  UNL1        0.0375
      3 C           6.8088   -3.9002   25.1133 C.ar    1  UNL1        0.0114
      4 C           5.7992   -2.8303   25.4065 C.ar    1  UNL1        0.0422
      5 C           4.9867   -2.2401   24.2922 C.ar    1  UNL1        0.0114
      6 C           5.1838   -2.7198   22.8848 C.ar    1  UNL1        0.0375
      7 C           5.6021   -2.3506   26.8140 C.1     1  UNL1       -0.0583
      8 C           5.4050   -1.8708   28.2214 C.1     1  UNL1       -0.0405
      9 C           5.2079   -1.3911   29.6290 C.ar    1  UNL1        0.1228
     10 C           4.0929   -0.4399   29.9479 C.ar    1  UNL1        0.0276
     11 C           3.8958    0.0398   31.3554 C.ar    1  UNL1        0.0037
     12 C           4.8138   -0.4318   32.4439 C.ar    1  UNL1        0.0192
     13 C           5.9289   -1.3830   32.1250 C.ar    1  UNL1        0.0995
     14 N           6.1259   -1.8627   30.7175 N.ar    1  UNL1       -0.2356
     15 C           4.6168    0.0480   33.8515 C.ar    1  UNL1        0.0016
     16 C           5.2781   -0.6724   34.9889 C.ar    1  UNL1        0.0009
     17 C           5.0810   -0.1926   36.3964 C.ar    1  UNL1        0.0114
     18 C           4.2226    1.0074   36.6665 C.ar    1  UNL1        0.0577
     19 CL          4.0255    1.4872   38.0739 Cl      1  UNL1       -0.0822
     20 C           3.5613    1.7278   35.5290 C.ar    1  UNL1        0.0114
     21 C           3.7583    1.2480   34.1215 C.ar    1  UNL1        0.0009
     22 O           6.3905   -4.2694   21.1840 O.3     1  UNL1       -0.4740
     23 C           6.2344   -3.3148   20.0375 C.3     1  UNL1        0.2226
     24 C           5.0501   -3.4272   19.1239 C.3     1  UNL1        0.1200
     25 C           1.3216    1.2265   18.4595 C.3     1  UNL1        0.0001
     26 C           2.2537    0.0631   18.6256 C.3     1  UNL1        0.0028
     27 C           2.1149   -0.8459   19.8107 C.3     1  UNL1        0.0174
     28 C           3.0470   -2.0093   19.9768 C.3     1  UNL1        0.0722
     29 N           4.1180   -2.2637   18.9578 N.3     1  UNL1       -0.2696
     30 C           4.2568   -1.3547   17.7728 C.3     1  UNL1        0.0722
     31 C           3.3247   -0.1913   17.6067 C.3     1  UNL1        0.0174
@<TRIPOS>BOND
     1    25    26    1
     2    26    27    1
     3    27    28    1
     4    28    29    1
     5    29    24    1
     6    24    23    1
     7    23    22    1
     8    22     1    1
     9     1     2   ar
    10     2     3   ar
    11     3     4   ar
    12     4     7    1
    13     7     8    3
    14     8     9    1
    15     9    10   ar
    16    10    11   ar
    17    11    12   ar
    18    12    15    1
    19    15    16   ar
    20    16    17   ar
    21    17    18   ar
    22    18    19    1
    23    18    20   ar
    24    20    21   ar
    25    12    13   ar
    26    13    14   ar
    27     4     5   ar
    28     5     6   ar
    29    29    30    1
    30    30    31    1
    31    31    26    1
    32     6     1   ar
    33    14     9   ar
    34    21    15   ar
