@<TRIPOS>MOLECULE
*****
 29 32 0 0 0
SMALL
GASTEIGER

@<TRIPOS>ATOM
      1 C          -8.6874  -19.5618   20.3305 C.3     1  UNL1        0.1319
      2 C          -9.9978  -19.6384   19.6046 C.3     1  UNL1        0.0270
      3 N          -8.6883  -18.7066   22.8630 N.ar    1  UNL1       -0.3137
      4 C          -8.4765  -18.5209   21.3897 C.ar    1  UNL1        0.1363
      5 N          -8.0166  -17.1114   21.1616 N.ar    1  UNL1       -0.2280
      6 C          -7.9443  -16.4261   22.4939 C.ar    1  UNL1        0.1174
      7 C          -7.5540  -15.0317   22.8854 C.ar    1  UNL1        0.1190
      8 N          -7.5789  -14.6231   24.3285 N.ar    1  UNL1       -0.2465
      9 C          -7.9940  -15.6090   25.3800 C.ar    1  UNL1        0.0602
     10 C          -8.3843  -17.0034   24.9885 C.ar    1  UNL1        0.0335
     11 C          -8.3594  -17.4119   23.5455 C.ar    1  UNL1        0.0814
     12 C          -8.0189  -15.2004   26.8231 C.3     1  UNL1        0.0403
     13 C          -7.2934  -14.9067   28.1027 C.3     1  UNL1        0.0063
     14 C          -8.7874  -14.7864   28.0430 C.3     1  UNL1        0.0063
     15 C         -10.4784  -20.0036   24.2280 C.3     1  UNL1        0.0265
     16 C          -9.1483  -19.9658   23.5358 C.3     1  UNL1        0.1073
     17 N          -7.5880  -20.5262   19.9972 N.3     1  UNL1       -0.1735
     18 H          -7.7551  -20.8448   19.0427 H       1  UNL1        0.1492
     19 S          -6.1564  -20.0829   20.0614 S.O2    1  UNL1        0.0621
     20 O          -5.8390  -21.2384   20.9636 O.2     1  UNL1       -0.1529
     21 O          -6.4738  -18.9274   19.1591 O.2     1  UNL1       -0.1529
     22 C          -4.7249  -19.6396   20.1255 C.ar    1  UNL1        0.1411
     23 C          -4.2491  -18.5127   19.2574 C.ar    1  UNL1        0.0238
     24 C          -2.8175  -18.0694   19.3215 C.ar    1  UNL1        0.0310
     25 C          -1.8617  -18.7529   20.2538 C.ar    1  UNL1        0.1492
     26 N          -2.3375  -19.8799   21.1220 N.ar    1  UNL1       -0.2321
     27 C          -3.7691  -20.3232   21.0578 C.ar    1  UNL1        0.1195
     28 C          -0.4302  -18.3096   20.3180 C.1     1  UNL1        0.1198
     29 N           1.0014  -17.8663   20.3821 N.1     1  UNL1       -0.1893
@<TRIPOS>BOND
     1    15    16    1
     2    16     3    1
     3     3     4   ar
     4     4     1    1
     5     1     2    1
     6     1    17    1
     7    17    19    1
     8    19    20    2
     9    19    21    2
    10    19    22    1
    11    22    23   ar
    12    23    24   ar
    13    24    25   ar
    14    25    28    1
    15    28    29    3
    16    25    26   ar
    17    26    27   ar
    18     4     5   ar
    19     5     6   ar
    20     6     7   ar
    21     7     8   ar
    22     8     9   ar
    23     9    12    1
    24    12    13    1
    25    13    14    1
    26     9    10   ar
    27    10    11   ar
    28    11     3   ar
    29    27    22   ar
    30    11     6   ar
    31    14    12    1
    32    17    18    1
@<TRIPOS>MOLECULE
*****
 29 32 0 0 0
SMALL
GASTEIGER

@<TRIPOS>ATOM
      1 C          -7.7394  -19.6183   20.2843 C.3     1  UNL1        0.1319
      2 C          -7.5389  -19.4982   18.8027 C.3     1  UNL1        0.0270
      3 N          -9.5515  -19.6293   22.2493 N.ar    1  UNL1       -0.3137
      4 C          -9.0463  -19.2137   20.8995 C.ar    1  UNL1        0.1363
      5 N         -10.0773  -18.3225   20.2730 N.ar    1  UNL1       -0.2280
      6 C         -11.2198  -18.1873   21.2356 C.ar    1  UNL1        0.1174
      7 C         -12.5140  -17.4331   21.1576 C.ar    1  UNL1        0.1190
      8 N         -13.4833  -17.4866   22.3011 N.ar    1  UNL1       -0.2465
      9 C         -13.1583  -18.2943   23.5226 C.ar    1  UNL1        0.0602
     10 C         -11.8640  -19.0485   23.6005 C.ar    1  UNL1        0.0335
     11 C         -10.8948  -18.9950   22.4570 C.ar    1  UNL1        0.0814
     12 C         -14.1276  -18.3478   24.6661 C.3     1  UNL1        0.0403
     13 C         -14.3996  -18.3174   26.1409 C.3     1  UNL1        0.0063
     14 C         -15.5344  -18.4709   25.1720 C.3     1  UNL1        0.0063
     15 C          -9.4986  -20.9036   24.5128 C.3     1  UNL1        0.0265
     16 C          -8.8386  -20.5225   23.2209 C.3     1  UNL1        0.1073
     17 N          -6.6331  -20.1429   21.1507 N.3     1  UNL1       -0.1735
     18 H          -6.6030  -21.1528   21.0107 H       1  UNL1        0.1492
     19 S          -5.2326  -19.6383   20.9664 S.O2    1  UNL1        0.0621
     20 O          -4.9004  -20.8562   20.1563 O.2     1  UNL1       -0.1529
     21 O          -5.5647  -18.4204   21.7765 O.2     1  UNL1       -0.1529
     22 C          -3.8321  -19.1337   20.7820 C.ar    1  UNL1        0.1411
     23 C          -3.4080  -18.5639   19.4609 C.ar    1  UNL1        0.0238
     24 C          -2.0075  -18.0594   19.2765 C.ar    1  UNL1        0.0310
     25 C          -1.0310  -18.1246   20.4133 C.ar    1  UNL1        0.1492
     26 N          -1.4551  -18.6944   21.7345 N.ar    1  UNL1       -0.2321
     27 C          -2.8556  -19.1990   21.9189 C.ar    1  UNL1        0.1195
     28 C           0.3695  -17.6200   20.2289 C.1     1  UNL1        0.1198
     29 N           1.7700  -17.1155   20.0446 N.1     1  UNL1       -0.1893
@<TRIPOS>BOND
     1    15    16    1
     2    16     3    1
     3     3     4   ar
     4     4     1    1
     5     1     2    1
     6     1    17    1
     7    17    19    1
     8    19    20    2
     9    19    21    2
    10    19    22    1
    11    22    23   ar
    12    23    24   ar
    13    24    25   ar
    14    25    28    1
    15    28    29    3
    16    25    26   ar
    17    26    27   ar
    18     4     5   ar
    19     5     6   ar
    20     6     7   ar
    21     7     8   ar
    22     8     9   ar
    23     9    12    1
    24    12    13    1
    25    13    14    1
    26     9    10   ar
    27    10    11   ar
    28    11     3   ar
    29    27    22   ar
    30    11     6   ar
    31    14    12    1
    32    17    18    1
@<TRIPOS>MOLECULE
*****
 29 32 0 0 0
SMALL
GASTEIGER

@<TRIPOS>ATOM
      1 C           0.1514    3.5538   19.9700 C.3     1  UNL1        0.1319
      2 C           0.6431    4.5373   20.9902 C.3     1  UNL1        0.0270
      3 N           1.0966    1.1235   20.5574 N.ar    1  UNL1       -0.3137
      4 C           0.9531    2.3226   19.6678 C.ar    1  UNL1        0.1363
      5 N           1.7522    2.0744   18.4228 N.ar    1  UNL1       -0.2280
      6 C           2.3895    0.7218   18.5431 C.ar    1  UNL1        0.1174
      7 C           3.2864   -0.0506   17.6217 C.ar    1  UNL1        0.1190
      8 N           3.7782   -1.4106   18.0196 N.ar    1  UNL1       -0.2465
      9 C           3.3729   -1.9983   19.3389 C.ar    1  UNL1        0.0602
     10 C           2.4760   -1.2260   20.2602 C.ar    1  UNL1        0.0335
     11 C           1.9843    0.1341   19.8623 C.ar    1  UNL1        0.0814
     12 C           3.8647   -3.3585   19.7368 C.3     1  UNL1        0.0403
     13 C           4.5319   -4.2580   20.7346 C.3     1  UNL1        0.0063
     14 C           4.0492   -4.8148   19.4281 C.3     1  UNL1        0.0063
     15 C           1.2346    1.2825   23.1469 C.3     1  UNL1        0.0265
     16 C           0.4635    0.9450   21.9055 C.3     1  UNL1        0.1073
     17 N          -1.1421    3.8015   19.2520 N.3     1  UNL1       -0.1735
     18 H          -1.2677    3.0298   18.5970 H       1  UNL1        0.1492
     19 S          -2.4197    3.9228   20.0285 S.O2    1  UNL1        0.0621
     20 O          -2.6208    5.3051   19.4817 O.2     1  UNL1       -0.1529
     21 O          -2.2186    2.5406   20.5753 O.2     1  UNL1       -0.1529
     22 C          -3.6973    4.0441   20.8051 C.ar    1  UNL1        0.1411
     23 C          -3.8477    3.3333   22.1173 C.ar    1  UNL1        0.0238
     24 C          -5.1253    3.4546   22.8938 C.ar    1  UNL1        0.0310
     25 C          -6.2525    4.2867   22.3581 C.ar    1  UNL1        0.1492
     26 N          -6.1021    4.9976   21.0458 N.ar    1  UNL1       -0.2321
     27 C          -4.8245    4.8763   20.2693 C.ar    1  UNL1        0.1195
     28 C          -7.5301    4.4080   23.1347 C.1     1  UNL1        0.1198
     29 N          -8.8077    4.5293   23.9112 N.1     1  UNL1       -0.1893
@<TRIPOS>BOND
     1    15    16    1
     2    16     3    1
     3     3     4   ar
     4     4     1    1
     5     1     2    1
     6     1    17    1
     7    17    19    1
     8    19    20    2
     9    19    21    2
    10    19    22    1
    11    22    23   ar
    12    23    24   ar
    13    24    25   ar
    14    25    28    1
    15    28    29    3
    16    25    26   ar
    17    26    27   ar
    18     4     5   ar
    19     5     6   ar
    20     6     7   ar
    21     7     8   ar
    22     8     9   ar
    23     9    12    1
    24    12    13    1
    25    13    14    1
    26     9    10   ar
    27    10    11   ar
    28    11     3   ar
    29    27    22   ar
    30    11     6   ar
    31    14    12    1
    32    17    18    1
@<TRIPOS>MOLECULE
*****
 29 32 0 0 0
SMALL
GASTEIGER

@<TRIPOS>ATOM
      1 C           7.1389   -3.9069   21.3837 C.3     1  UNL1        0.1319
      2 C           8.2558   -3.0822   20.8161 C.3     1  UNL1        0.0270
      3 N           6.8357   -3.6388   24.0259 N.ar    1  UNL1       -0.3137
      4 C           7.2184   -4.4069   22.7957 C.ar    1  UNL1        0.1363
      5 N           7.6946   -5.7629   23.2253 N.ar    1  UNL1       -0.2280
      6 C           7.6062   -5.8328   24.7211 C.ar    1  UNL1        0.1174
      7 C           7.9406   -6.9222   25.6965 C.ar    1  UNL1        0.1190
      8 N           7.7440   -6.6988   27.1666 N.ar    1  UNL1       -0.2465
      9 C           7.2131   -5.3861   27.6614 C.ar    1  UNL1        0.0602
     10 C           6.8788   -4.2967   26.6861 C.ar    1  UNL1        0.0335
     11 C           7.0754   -4.5200   25.2159 C.ar    1  UNL1        0.0814
     12 C           7.0166   -5.1627   29.1317 C.3     1  UNL1        0.0403
     13 C           6.7362   -4.2382   30.2791 C.3     1  UNL1        0.0063
     14 C           6.9566   -5.7004   30.5307 C.3     1  UNL1        0.0063
     15 C           4.9092   -1.9728   24.5387 C.3     1  UNL1        0.0265
     16 C           6.3062   -2.2358   24.0602 C.3     1  UNL1        0.1073
     17 N           5.9424   -4.2316   20.5394 N.3     1  UNL1       -0.1735
     18 H           5.3955   -4.9203   21.0561 H       1  UNL1        0.1492
     19 S           4.9942   -3.1430   20.1321 S.O2    1  UNL1        0.0621
     20 O           5.6945   -3.0273   18.8107 O.2     1  UNL1       -0.1529
     21 O           4.2938   -3.2587   21.4535 O.2     1  UNL1       -0.1529
     22 C           4.0459   -2.0544   19.7247 C.ar    1  UNL1        0.1411
     23 C           3.0028   -1.5695   20.6873 C.ar    1  UNL1        0.0238
     24 C           2.0545   -0.4809   20.2800 C.ar    1  UNL1        0.0310
     25 C           2.1495    0.1227   18.9101 C.ar    1  UNL1        0.1492
     26 N           3.1927   -0.3623   17.9475 N.ar    1  UNL1       -0.2321
     27 C           4.1409   -1.4508   18.3548 C.ar    1  UNL1        0.1195
     28 C           1.2013    1.2112   18.5028 C.1     1  UNL1        0.1198
     29 N           0.2530    2.2998   18.0955 N.1     1  UNL1       -0.1893
@<TRIPOS>BOND
     1    15    16    1
     2    16     3    1
     3     3     4   ar
     4     4     1    1
     5     1     2    1
     6     1    17    1
     7    17    19    1
     8    19    20    2
     9    19    21    2
    10    19    22    1
    11    22    23   ar
    12    23    24   ar
    13    24    25   ar
    14    25    28    1
    15    28    29    3
    16    25    26   ar
    17    26    27   ar
    18     4     5   ar
    19     5     6   ar
    20     6     7   ar
    21     7     8   ar
    22     8     9   ar
    23     9    12    1
    24    12    13    1
    25    13    14    1
    26     9    10   ar
    27    10    11   ar
    28    11     3   ar
    29    27    22   ar
    30    11     6   ar
    31    14    12    1
    32    17    18    1
@<TRIPOS>MOLECULE
*****
 29 32 0 0 0
SMALL
GASTEIGER

@<TRIPOS>ATOM
      1 C          -5.4542  -16.0460   24.9141 C.3     1  UNL1        0.1319
      2 C          -5.2749  -14.7907   25.7153 C.3     1  UNL1        0.0270
      3 N          -8.0481  -16.6554   25.1270 N.ar    1  UNL1       -0.3137
      4 C          -6.7988  -16.3851   24.3421 C.ar    1  UNL1        0.1363
      5 N          -7.1301  -16.5135   22.8848 N.ar    1  UNL1       -0.2280
      6 C          -8.5842  -16.8631   22.7691 C.ar    1  UNL1        0.1174
      7 C          -9.4650  -17.1129   21.5809 C.ar    1  UNL1        0.1190
      8 N         -10.9130  -17.4504   21.7784 N.ar    1  UNL1       -0.2465
      9 C         -11.4804  -17.5381   23.1642 C.ar    1  UNL1        0.0602
     10 C         -10.5997  -17.2883   24.3524 C.ar    1  UNL1        0.0335
     11 C          -9.1516  -16.9508   24.1548 C.ar    1  UNL1        0.0814
     12 C         -12.9286  -17.8756   23.3618 C.3     1  UNL1        0.0403
     13 C         -14.0919  -18.1225   24.2759 C.3     1  UNL1        0.0063
     14 C         -14.2735  -18.2133   22.7898 C.3     1  UNL1        0.0063
     15 C          -8.4300  -15.3396   27.3345 C.3     1  UNL1        0.0265
     16 C          -8.1723  -16.6340   26.6217 C.3     1  UNL1        0.1073
     17 N          -4.2889  -16.9622   24.6848 N.3     1  UNL1       -0.1735
     18 H          -4.5708  -17.8853   25.0147 H       1  UNL1        0.1492
     19 S          -3.7402  -17.1458   23.3009 S.O2    1  UNL1        0.0621
     20 O          -3.6822  -18.6285   23.5206 O.2     1  UNL1       -0.1529
     21 O          -3.7982  -15.6632   23.0811 O.2     1  UNL1       -0.1529
     22 C          -3.1915  -17.3295   21.9170 C.ar    1  UNL1        0.1411
     23 C          -3.7651  -18.3831   21.0164 C.ar    1  UNL1        0.0238
     24 C          -3.2163  -18.5667   19.6325 C.ar    1  UNL1        0.0310
     25 C          -2.0941  -17.6968   19.1492 C.ar    1  UNL1        0.1492
     26 N          -1.5204  -16.6432   20.0497 N.ar    1  UNL1       -0.2321
     27 C          -2.0692  -16.4595   21.4336 C.ar    1  UNL1        0.1195
     28 C          -1.5454  -17.8804   17.7653 C.1     1  UNL1        0.1198
     29 N          -0.9966  -18.0641   16.3813 N.1     1  UNL1       -0.1893
@<TRIPOS>BOND
     1    15    16    1
     2    16     3    1
     3     3     4   ar
     4     4     1    1
     5     1     2    1
     6     1    17    1
     7    17    19    1
     8    19    20    2
     9    19    21    2
    10    19    22    1
    11    22    23   ar
    12    23    24   ar
    13    24    25   ar
    14    25    28    1
    15    28    29    3
    16    25    26   ar
    17    26    27   ar
    18     4     5   ar
    19     5     6   ar
    20     6     7   ar
    21     7     8   ar
    22     8     9   ar
    23     9    12    1
    24    12    13    1
    25    13    14    1
    26     9    10   ar
    27    10    11   ar
    28    11     3   ar
    29    27    22   ar
    30    11     6   ar
    31    14    12    1
    32    17    18    1
@<TRIPOS>MOLECULE
*****
 29 32 0 0 0
SMALL
GASTEIGER

@<TRIPOS>ATOM
      1 C           3.9251   -3.0760   18.8741 C.3     1  UNL1        0.1319
      2 C           3.6985   -4.5503   19.0321 C.3     1  UNL1        0.0270
      3 N           3.7223   -1.7946   21.2112 N.ar    1  UNL1       -0.3137
      4 C           3.2691   -2.1110   19.8167 C.ar    1  UNL1        0.1363
      5 N           2.0448   -1.2931   19.5304 N.ar    1  UNL1       -0.2280
      6 C           1.7413   -0.4711   20.7479 C.ar    1  UNL1        0.1174
      7 C           0.6549    0.5195   21.0448 C.ar    1  UNL1        0.1190
      8 N           0.6052    1.2002   22.3805 N.ar    1  UNL1       -0.2465
      9 C           1.6419    0.8902   23.4193 C.ar    1  UNL1        0.0602
     10 C           2.7283   -0.1005   23.1224 C.ar    1  UNL1        0.0335
     11 C           2.7781   -0.7811   21.7867 C.ar    1  UNL1        0.0814
     12 C           1.5921    1.5709   24.7551 C.3     1  UNL1        0.0403
     13 C           1.7228    2.8130   25.5857 C.3     1  UNL1        0.0063
     14 C           1.3753    1.5078   26.2380 C.3     1  UNL1        0.0063
     15 C           4.7648   -3.6591   22.6900 C.3     1  UNL1        0.0265
     16 C           4.9110   -2.3876   21.9078 C.3     1  UNL1        0.1073
     17 N           4.8077   -2.5666   17.7734 N.3     1  UNL1       -0.1735
     18 H           4.4033   -2.8943   16.8962 H       1  UNL1        0.1492
     19 S           5.0397   -1.0927   17.6194 S.O2    1  UNL1        0.0621
     20 O           6.0986   -1.1485   18.6802 O.2     1  UNL1       -0.1529
     21 O           3.9807   -1.0370   16.5585 O.2     1  UNL1       -0.1529
     22 C           5.2716    0.3812   17.4653 C.ar    1  UNL1        0.1411
     23 C           4.4130    1.3577   18.2131 C.ar    1  UNL1        0.0238
     24 C           4.6450    2.8317   18.0591 C.ar    1  UNL1        0.0310
     25 C           5.7354    3.3291   17.1572 C.ar    1  UNL1        0.1492
     26 N           6.5940    2.3526   16.4093 N.ar    1  UNL1       -0.2321
     27 C           6.3621    0.8786   16.5634 C.ar    1  UNL1        0.1195
     28 C           5.9673    4.8030   17.0032 C.1     1  UNL1        0.1198
     29 N           6.1993    6.2770   16.8491 N.1     1  UNL1       -0.1893
@<TRIPOS>BOND
     1    15    16    1
     2    16     3    1
     3     3     4   ar
     4     4     1    1
     5     1     2    1
     6     1    17    1
     7    17    19    1
     8    19    20    2
     9    19    21    2
    10    19    22    1
    11    22    23   ar
    12    23    24   ar
    13    24    25   ar
    14    25    28    1
    15    28    29    3
    16    25    26   ar
    17    26    27   ar
    18     4     5   ar
    19     5     6   ar
    20     6     7   ar
    21     7     8   ar
    22     8     9   ar
    23     9    12    1
    24    12    13    1
    25    13    14    1
    26     9    10   ar
    27    10    11   ar
    28    11     3   ar
    29    27    22   ar
    30    11     6   ar
    31    14    12    1
    32    17    18    1
@<TRIPOS>MOLECULE
*****
 29 32 0 0 0
SMALL
GASTEIGER

@<TRIPOS>ATOM
      1 C          -2.1273    3.3993   20.4386 C.3     1  UNL1        0.1319
      2 C          -2.0250    4.8948   20.4941 C.3     1  UNL1        0.0270
      3 N          -0.0074    2.5619   19.0423 N.ar    1  UNL1       -0.3137
      4 C          -0.8915    2.5694   20.2540 C.ar    1  UNL1        0.1363
      5 N          -0.3229    1.6012   21.2486 N.ar    1  UNL1       -0.2280
      6 C           0.9126    0.9953   20.6517 C.ar    1  UNL1        0.1174
      7 C           1.8853   -0.0203   21.1736 C.ar    1  UNL1        0.1190
      8 N           3.0530   -0.4421   20.3319 N.ar    1  UNL1       -0.2465
      9 C           3.2480    0.1516   18.9683 C.ar    1  UNL1        0.0602
     10 C           2.2753    1.1672   18.4464 C.ar    1  UNL1        0.0335
     11 C           1.1076    1.5891   19.2881 C.ar    1  UNL1        0.0814
     12 C           4.4157   -0.2703   18.1265 C.3     1  UNL1        0.0403
     13 C           5.4768   -1.2748   17.7870 C.3     1  UNL1        0.0063
     14 C           5.3772    0.0033   17.0082 C.3     1  UNL1        0.0063
     15 C           0.5581    4.6623   17.6216 C.3     1  UNL1        0.0265
     16 C          -0.2038    3.3830   17.8025 C.3     1  UNL1        0.1073
     17 N          -3.4653    2.7338   20.5678 N.3     1  UNL1       -0.1735
     18 H          -3.3011    1.8233   20.9972 H       1  UNL1        0.1492
     19 S          -4.5581    3.3933   21.3557 S.O2    1  UNL1        0.0621
     20 O          -5.2552    3.7626   20.0799 O.2     1  UNL1       -0.1529
     21 O          -3.8610    3.0241   22.6316 O.2     1  UNL1       -0.1529
     22 C          -5.6509    4.0529   22.1437 C.ar    1  UNL1        0.1411
     23 C          -5.6461    3.9769   23.6417 C.ar    1  UNL1        0.0238
     24 C          -6.7388    4.6364   24.4297 C.ar    1  UNL1        0.0310
     25 C          -7.8364    5.3720   23.7196 C.ar    1  UNL1        0.1492
     26 N          -7.8412    5.4480   22.2215 N.ar    1  UNL1       -0.2321
     27 C          -6.7485    4.7885   21.4335 C.ar    1  UNL1        0.1195
     28 C          -8.9292    6.0315   24.5075 C.1     1  UNL1        0.1198
     29 N         -10.0219    6.6910   25.2955 N.1     1  UNL1       -0.1893
@<TRIPOS>BOND
     1    15    16    1
     2    16     3    1
     3     3     4   ar
     4     4     1    1
     5     1     2    1
     6     1    17    1
     7    17    19    1
     8    19    20    2
     9    19    21    2
    10    19    22    1
    11    22    23   ar
    12    23    24   ar
    13    24    25   ar
    14    25    28    1
    15    28    29    3
    16    25    26   ar
    17    26    27   ar
    18     4     5   ar
    19     5     6   ar
    20     6     7   ar
    21     7     8   ar
    22     8     9   ar
    23     9    12    1
    24    12    13    1
    25    13    14    1
    26     9    10   ar
    27    10    11   ar
    28    11     3   ar
    29    27    22   ar
    30    11     6   ar
    31    14    12    1
    32    17    18    1
@<TRIPOS>MOLECULE
*****
 29 32 0 0 0
SMALL
GASTEIGER

@<TRIPOS>ATOM
      1 C           0.5358    1.7388   26.2230 C.3     1  UNL1        0.1319
      2 C           0.2078    0.9671   24.9793 C.3     1  UNL1        0.0270
      3 N           1.0972    0.6438   28.5960 N.ar    1  UNL1       -0.3137
      4 C           1.4750    1.1598   27.2392 C.ar    1  UNL1        0.1363
      5 N           2.9571    0.9950   27.0769 N.ar    1  UNL1       -0.2280
      6 C           3.4952    0.3772   28.3334 C.ar    1  UNL1        0.1174
      7 C           4.8833   -0.0157   28.7440 C.ar    1  UNL1        0.1190
      8 N           5.1220   -0.6256   30.0934 N.ar    1  UNL1       -0.2465
      9 C           3.9725   -0.8427   31.0323 C.ar    1  UNL1        0.0602
     10 C           2.5843   -0.4497   30.6217 C.ar    1  UNL1        0.0335
     11 C           2.3457    0.1602   29.2723 C.ar    1  UNL1        0.0814
     12 C           4.2112   -1.4526   32.3817 C.3     1  UNL1        0.0403
     13 C           4.4380   -2.6627   33.2386 C.3     1  UNL1        0.0063
     14 C           4.3977   -1.2991   33.8622 C.3     1  UNL1        0.0063
     15 C          -1.2384   -0.4773   28.7911 C.3     1  UNL1        0.0265
     16 C          -0.2863    0.6163   29.1750 C.3     1  UNL1        0.1073
     17 N          -0.0755    3.0895   26.4506 N.3     1  UNL1       -0.1735
     18 H           0.5397    3.7700   26.0047 H       1  UNL1        0.1492
     19 S          -1.4644    3.3761   25.9620 S.O2    1  UNL1        0.0621
     20 O          -0.8985    4.1316   24.7963 O.2     1  UNL1       -0.1529
     21 O          -2.0304    2.6206   27.1278 O.2     1  UNL1       -0.1529
     22 C          -2.8534    3.6627   25.4735 C.ar    1  UNL1        0.1411
     23 C          -3.1505    3.6422   24.0034 C.ar    1  UNL1        0.0238
     24 C          -4.5395    3.9288   23.5149 C.ar    1  UNL1        0.0310
     25 C          -5.6313    4.2360   24.4964 C.ar    1  UNL1        0.1492
     26 N          -5.3342    4.2566   25.9666 N.ar    1  UNL1       -0.2321
     27 C          -3.9452    3.9700   26.4552 C.ar    1  UNL1        0.1195
     28 C          -7.0202    4.5226   24.0079 C.1     1  UNL1        0.1198
     29 N          -8.4092    4.8092   23.5193 N.1     1  UNL1       -0.1893
@<TRIPOS>BOND
     1    15    16    1
     2    16     3    1
     3     3     4   ar
     4     4     1    1
     5     1     2    1
     6     1    17    1
     7    17    19    1
     8    19    20    2
     9    19    21    2
    10    19    22    1
    11    22    23   ar
    12    23    24   ar
    13    24    25   ar
    14    25    28    1
    15    28    29    3
    16    25    26   ar
    17    26    27   ar
    18     4     5   ar
    19     5     6   ar
    20     6     7   ar
    21     7     8   ar
    22     8     9   ar
    23     9    12    1
    24    12    13    1
    25    13    14    1
    26     9    10   ar
    27    10    11   ar
    28    11     3   ar
    29    27    22   ar
    30    11     6   ar
    31    14    12    1
    32    17    18    1
@<TRIPOS>MOLECULE
*****
 29 32 0 0 0
SMALL
GASTEIGER

@<TRIPOS>ATOM
      1 C           7.0207   -3.3168   25.5048 C.3     1  UNL1        0.1319
      2 C           8.1683   -2.5776   24.8832 C.3     1  UNL1        0.0270
      3 N           6.2273   -2.1404   27.7701 N.ar    1  UNL1       -0.3137
      4 C           6.8195   -3.2769   26.9907 C.ar    1  UNL1        0.1363
      5 N           7.1752   -4.3666   27.9582 N.ar    1  UNL1       -0.2280
      6 C           6.8029   -3.9035   29.3355 C.ar    1  UNL1        0.1174
      7 C           6.9216   -4.5570   30.6804 C.ar    1  UNL1        0.1190
      8 N           6.4545   -3.8345   31.9091 N.ar    1  UNL1       -0.2465
      9 C           5.8686   -2.4585   31.7928 C.ar    1  UNL1        0.0602
     10 C           5.7498   -1.8051   30.4479 C.ar    1  UNL1        0.0335
     11 C           6.2170   -2.5276   29.2192 C.ar    1  UNL1        0.0814
     12 C           5.4014   -1.7360   33.0216 C.3     1  UNL1        0.0403
     13 C           5.6965   -0.8711   34.2111 C.3     1  UNL1        0.0063
     14 C           4.2972   -1.3495   33.9604 C.3     1  UNL1        0.0063
     15 C           6.6498    0.3398   27.1219 C.3     1  UNL1        0.0265
     16 C           5.7322   -0.8441   27.2004 C.3     1  UNL1        0.1073
     17 N           6.0742   -4.0959   24.6405 N.3     1  UNL1       -0.1735
     18 H           5.2027   -4.1839   25.1631 H       1  UNL1        0.1492
     19 S           5.7118   -3.5869   23.2768 S.O2    1  UNL1        0.0621
     20 O           6.6417   -4.5870   22.6564 O.2     1  UNL1       -0.1529
     21 O           4.7819   -2.5867   23.8973 O.2     1  UNL1       -0.1529
     22 C           5.3495   -3.0778   21.9132 C.ar    1  UNL1        0.1411
     23 C           4.0717   -2.3187   21.7111 C.ar    1  UNL1        0.0238
     24 C           3.7093   -1.8096   20.3475 C.ar    1  UNL1        0.0310
     25 C           4.6248   -2.0597   19.1859 C.ar    1  UNL1        0.1492
     26 N           5.9026   -2.8189   19.3879 N.ar    1  UNL1       -0.2321
     27 C           6.2650   -3.3279   20.7515 C.ar    1  UNL1        0.1195
     28 C           4.2624   -1.5506   17.8222 C.1     1  UNL1        0.1198
     29 N           3.9001   -1.0416   16.4586 N.1     1  UNL1       -0.1893
@<TRIPOS>BOND
     1    15    16    1
     2    16     3    1
     3     3     4   ar
     4     4     1    1
     5     1     2    1
     6     1    17    1
     7    17    19    1
     8    19    20    2
     9    19    21    2
    10    19    22    1
    11    22    23   ar
    12    23    24   ar
    13    24    25   ar
    14    25    28    1
    15    28    29    3
    16    25    26   ar
    17    26    27   ar
    18     4     5   ar
    19     5     6   ar
    20     6     7   ar
    21     7     8   ar
    22     8     9   ar
    23     9    12    1
    24    12    13    1
    25    13    14    1
    26     9    10   ar
    27    10    11   ar
    28    11     3   ar
    29    27    22   ar
    30    11     6   ar
    31    14    12    1
    32    17    18    1
