@<TRIPOS>MOLECULE
*****
 34 38 0 0 0
SMALL
GASTEIGER

@<TRIPOS>ATOM
      1 C           0.3194    2.1610   19.2403 C.ar    1  UNL1        0.1074
      2 C          -0.0579    2.8572   17.9664 C.ar    1  UNL1        0.0588
      3 S          -1.0202    3.9564   18.3064 S.2     1  UNL1       -0.0508
      4 C          -1.2377    3.9395   19.7904 C.ar    1  UNL1        0.1646
      5 N          -0.4097    2.8298   20.3676 N.ar    1  UNL1       -0.2224
      6 C           3.1799   -0.4557   18.3910 C.ar    1  UNL1        0.2416
      7 N           2.2387    0.7056   18.2663 N.ar    1  UNL1       -0.2089
      8 C           1.2606    0.9997   19.3650 C.ar    1  UNL1        0.1026
      9 C           1.2239    0.1325   20.5883 C.ar    1  UNL1        0.0224
     10 C           2.1652   -1.0288   20.7130 C.ar    1  UNL1        0.0239
     11 C           3.1431   -1.3229   19.6143 C.ar    1  UNL1        0.1189
     12 N           4.0843   -2.4841   19.7390 N.ar    1  UNL1       -0.2826
     13 C           3.7881   -3.9042   19.3571 C.ar    1  UNL1        0.1826
     14 N           5.0076   -4.7269   19.6495 N.ar    1  UNL1       -0.2280
     15 C           6.0578   -3.8154   20.2122 C.ar    1  UNL1        0.0786
     16 C           7.4364   -4.2192   20.6438 C.3     1  UNL1        0.0538
     17 C           5.4870   -2.4293   20.2675 C.ar    1  UNL1        0.0963
     18 C           5.4294    0.0393   17.1890 C.3     1  UNL1        0.2543
     19 O           4.1578   -0.7497   17.2923 O.3     1  UNL1       -0.4551
     20 N          -2.1270    4.8691   20.5619 N.pl3   1  UNL1       -0.2786
     21 H          -1.9729    5.8408   20.5259 H       1  UNL1        0.1555
     22 C          -3.2512    4.3181   21.3882 C.ar    1  UNL1        0.1276
     23 C          -3.3089    4.2829   22.8867 C.ar    1  UNL1        0.0244
     24 C          -4.6084    3.6487   23.2856 C.ar    1  UNL1        0.0773
     25 N          -5.3537    3.2919   22.0337 N.ar    1  UNL1       -0.1728
     26 N          -4.5149    3.7057   20.8610 N.ar    1  UNL1       -0.2357
     27 C          -4.9451    3.4780   24.7373 C.3     1  UNL1        0.0474
     28 C          -3.9823    3.9415   25.7900 C.3     1  UNL1        0.0067
     29 C          -2.6829    4.5757   25.3910 C.3     1  UNL1        0.0052
     30 C          -2.3462    4.7464   23.9393 C.3     1  UNL1        0.0305
     31 C          -4.8764    3.5366   19.4151 C.3     1  UNL1        0.1604
     32 C          -6.3178    3.5019   19.0014 C.3     1  UNL1        0.1635
     33 O          -7.3553    4.1885   19.8394 O.3     1  UNL1       -0.3799
     34 H          -7.4224    3.7443   20.6991 H       1  UNL1        0.2105
@<TRIPOS>BOND
     1    18    19    1
     2    19     6    1
     3     6     7   ar
     4     7     8   ar
     5     8     1    1
     6     1     2   ar
     7     2     3   ar
     8     3     4   ar
     9     4    20    1
    10    20    22    1
    11    22    23   ar
    12    23    24   ar
    13    24    25   ar
    14    25    26   ar
    15    26    31    1
    16    31    32    1
    17    32    33    1
    18    24    27    1
    19    27    28    1
    20    28    29    1
    21    29    30    1
    22     4     5   ar
    23     8     9   ar
    24     9    10   ar
    25    10    11   ar
    26    11    12    1
    27    12    13   ar
    28    13    14   ar
    29    14    15   ar
    30    15    16    1
    31    15    17   ar
    32    11     6   ar
    33    17    12   ar
    34     5     1   ar
    35    26    22   ar
    36    30    23    1
    37    20    21    1
    38    33    34    1
@<TRIPOS>MOLECULE
*****
 34 38 0 0 0
SMALL
GASTEIGER

@<TRIPOS>ATOM
      1 C           3.7046    0.4274   33.1720 C.ar    1  UNL1        0.1074
      2 C           2.6758    1.2346   32.4373 C.ar    1  UNL1        0.0588
      3 S           2.0652    2.2013   33.4082 S.2     1  UNL1       -0.0508
      4 C           2.7167    1.9915   34.7430 C.ar    1  UNL1        0.1646
      5 N           3.7299    0.8951   34.5969 N.ar    1  UNL1       -0.2224
      6 C           6.1492   -1.5036   30.7132 C.ar    1  UNL1        0.2416
      7 N           5.2955   -0.4189   31.3003 N.ar    1  UNL1       -0.2089
      8 C           4.5582   -0.6572   32.5848 C.ar    1  UNL1        0.1026
      9 C           4.6747   -1.9803   33.2819 C.ar    1  UNL1        0.0224
     10 C           5.5284   -3.0650   32.6947 C.ar    1  UNL1        0.0239
     11 C           6.2656   -2.8265   31.4103 C.ar    1  UNL1        0.1189
     12 N           7.1193   -3.9111   30.8231 N.ar    1  UNL1       -0.2826
     13 C           8.5133   -4.2645   31.2499 C.ar    1  UNL1        0.1826
     14 N           8.9844   -5.4045   30.3966 N.ar    1  UNL1       -0.2280
     15 C           7.8816   -5.7559   29.4423 C.ar    1  UNL1        0.0786
     16 C           7.9241   -6.8398   28.4063 C.3     1  UNL1        0.0538
     17 C           6.7289   -4.8328   29.7059 C.ar    1  UNL1        0.0963
     18 C           6.1886   -1.4625   28.1157 C.3     1  UNL1        0.2543
     19 O           6.8864   -1.2651   29.4288 O.3     1  UNL1       -0.4551
     20 N           2.4090    2.7456   36.0026 N.pl3   1  UNL1       -0.2786
     21 H           1.6564    3.3800   36.0252 H       1  UNL1        0.1555
     22 C           3.2479    2.5332   37.2278 C.ar    1  UNL1        0.1276
     23 C           4.6980    2.8874   37.3757 C.ar    1  UNL1        0.0244
     24 C           5.1304    2.5025   38.7595 C.ar    1  UNL1        0.0773
     25 N           3.9475    1.9104   39.4668 N.ar    1  UNL1       -0.1728
     26 N           2.7841    1.9294   38.5202 N.ar    1  UNL1       -0.2357
     27 C           6.5453    2.7408   39.1967 C.3     1  UNL1        0.0474
     28 C           7.5278    3.3641   38.2501 C.3     1  UNL1        0.0067
     29 C           7.0954    3.7490   36.8663 C.3     1  UNL1        0.0052
     30 C           5.6805    3.5107   36.4291 C.3     1  UNL1        0.0305
     31 C           1.3999    1.4320   38.8143 C.3     1  UNL1        0.1604
     32 C           1.2071    0.1978   39.6447 C.3     1  UNL1        0.1635
     33 O           2.3628   -0.3833   40.4041 O.3     1  UNL1       -0.3799
     34 H           3.0286   -0.7105   39.7791 H       1  UNL1        0.2105
@<TRIPOS>BOND
     1    18    19    1
     2    19     6    1
     3     6     7   ar
     4     7     8   ar
     5     8     1    1
     6     1     2   ar
     7     2     3   ar
     8     3     4   ar
     9     4    20    1
    10    20    22    1
    11    22    23   ar
    12    23    24   ar
    13    24    25   ar
    14    25    26   ar
    15    26    31    1
    16    31    32    1
    17    32    33    1
    18    24    27    1
    19    27    28    1
    20    28    29    1
    21    29    30    1
    22     4     5   ar
    23     8     9   ar
    24     9    10   ar
    25    10    11   ar
    26    11    12    1
    27    12    13   ar
    28    13    14   ar
    29    14    15   ar
    30    15    16    1
    31    15    17   ar
    32    11     6   ar
    33    17    12   ar
    34     5     1   ar
    35    26    22   ar
    36    30    23    1
    37    20    21    1
    38    33    34    1
@<TRIPOS>MOLECULE
*****
 34 38 0 0 0
SMALL
GASTEIGER

@<TRIPOS>ATOM
      1 C         -16.7877   -0.9470   20.0090 C.ar    1  UNL1        0.1074
      2 C         -18.2808   -1.0705   20.0814 C.ar    1  UNL1        0.0588
      3 S         -18.8385    0.2681   20.4650 S.2     1  UNL1       -0.0508
      4 C         -17.6900    1.2189   20.6296 C.ar    1  UNL1        0.1646
      5 N         -16.4225    0.4679   20.3477 N.ar    1  UNL1       -0.2224
      6 C         -13.5650   -2.8174   18.6428 C.ar    1  UNL1        0.2416
      7 N         -14.5246   -1.7188   18.9926 N.ar    1  UNL1       -0.2089
      8 C         -15.8281   -2.0455   19.6591 C.ar    1  UNL1        0.1026
      9 C         -16.1720   -3.4708   19.9757 C.ar    1  UNL1        0.0224
     10 C         -15.2124   -4.5694   19.6258 C.ar    1  UNL1        0.0239
     11 C         -13.9089   -4.2427   18.9593 C.ar    1  UNL1        0.1189
     12 N         -12.9494   -5.3412   18.6095 N.ar    1  UNL1       -0.2826
     13 C         -13.2052   -6.4616   17.6453 C.ar    1  UNL1        0.1826
     14 N         -11.9795   -7.3250   17.6023 N.ar    1  UNL1       -0.2280
     15 C         -10.9660   -6.7384   18.5399 C.ar    1  UNL1        0.0786
     16 C          -9.5941   -7.2824   18.8079 C.3     1  UNL1        0.0538
     17 C         -11.5655   -5.5123   19.1623 C.ar    1  UNL1        0.0963
     18 C         -11.2788   -1.5834   18.6552 C.3     1  UNL1        0.2543
     19 O         -12.2616   -2.4907   17.9763 O.3     1  UNL1       -0.4551
     20 N         -17.7912    2.6665   21.0094 N.pl3   1  UNL1       -0.2786
     21 H         -18.6743    3.0766   21.1555 H       1  UNL1        0.1555
     22 C         -16.5470    3.4894   21.1667 C.ar    1  UNL1        0.1276
     23 C         -15.9915    4.0095   22.4593 C.ar    1  UNL1        0.0244
     24 C         -14.7410    4.7782   22.1505 C.ar    1  UNL1        0.0773
     25 N         -14.5237    4.7332   20.6670 N.ar    1  UNL1       -0.1728
     26 N         -15.6399    3.9367   20.0590 N.ar    1  UNL1       -0.2357
     27 C         -13.9617    5.4198   23.2600 C.3     1  UNL1        0.0474
     28 C         -14.4330    5.2927   24.6784 C.3     1  UNL1        0.0067
     29 C         -15.6835    4.5240   24.9872 C.3     1  UNL1        0.0052
     30 C         -16.4627    3.8824   23.8777 C.3     1  UNL1        0.0305
     31 C         -15.8177    3.6396   18.5995 C.3     1  UNL1        0.1604
     32 C         -14.9733    2.5902   17.9394 C.3     1  UNL1        0.1635
     33 O         -14.2409    1.5822   18.7745 O.3     1  UNL1       -0.3799
     34 H         -13.5604    2.0311   19.3002 H       1  UNL1        0.2105
@<TRIPOS>BOND
     1    18    19    1
     2    19     6    1
     3     6     7   ar
     4     7     8   ar
     5     8     1    1
     6     1     2   ar
     7     2     3   ar
     8     3     4   ar
     9     4    20    1
    10    20    22    1
    11    22    23   ar
    12    23    24   ar
    13    24    25   ar
    14    25    26   ar
    15    26    31    1
    16    31    32    1
    17    32    33    1
    18    24    27    1
    19    27    28    1
    20    28    29    1
    21    29    30    1
    22     4     5   ar
    23     8     9   ar
    24     9    10   ar
    25    10    11   ar
    26    11    12    1
    27    12    13   ar
    28    13    14   ar
    29    14    15   ar
    30    15    16    1
    31    15    17   ar
    32    11     6   ar
    33    17    12   ar
    34     5     1   ar
    35    26    22   ar
    36    30    23    1
    37    20    21    1
    38    33    34    1
@<TRIPOS>MOLECULE
*****
 34 38 0 0 0
SMALL
GASTEIGER

@<TRIPOS>ATOM
      1 C           5.2504   -3.5687   20.9563 C.ar    1  UNL1        0.1074
      2 C           5.1800   -4.6821   19.9537 C.ar    1  UNL1        0.0588
      3 S           4.6638   -4.1136   18.6651 S.2     1  UNL1       -0.0508
      4 C           4.4153   -2.6488   18.8715 C.ar    1  UNL1        0.1646
      5 N           4.7778   -2.3120   20.2875 N.ar    1  UNL1       -0.2224
      6 C           7.1906   -4.8511   24.1721 C.ar    1  UNL1        0.2416
      7 N           6.7287   -4.7293   22.7502 N.ar    1  UNL1       -0.2089
      8 C           5.7124   -3.6906   22.3782 C.ar    1  UNL1        0.1026
      9 C           5.1580   -2.7738   23.4281 C.ar    1  UNL1        0.0224
     10 C           5.6200   -2.8958   24.8500 C.ar    1  UNL1        0.0239
     11 C           6.6363   -3.9344   25.2220 C.ar    1  UNL1        0.1189
     12 N           7.0983   -4.0563   26.6438 N.ar    1  UNL1       -0.2826
     13 C           8.2239   -3.2907   27.2739 C.ar    1  UNL1        0.1826
     14 N           8.3371   -3.7264   28.7047 N.ar    1  UNL1       -0.2280
     15 C           7.2813   -4.7613   28.9590 C.ar    1  UNL1        0.0786
     16 C           7.0346   -5.4681   30.2588 C.3     1  UNL1        0.0538
     17 C           6.5157   -4.9651   27.6853 C.ar    1  UNL1        0.0963
     18 C           8.5427   -6.9893   23.5806 C.3     1  UNL1        0.2543
     19 O           8.2069   -5.8897   24.5441 O.3     1  UNL1       -0.4551
     20 N           3.8954   -1.6891   17.8424 N.pl3   1  UNL1       -0.2786
     21 H           3.7422   -1.9932   16.9186 H       1  UNL1        0.1555
     22 C           3.6090   -0.2661   18.2207 C.ar    1  UNL1        0.1276
     23 C           2.4544    0.2099   19.0516 C.ar    1  UNL1        0.0244
     24 C           2.5588    1.7008   19.1791 C.ar    1  UNL1        0.0773
     25 N           3.7778    2.1462   18.4270 N.ar    1  UNL1       -0.1728
     26 N           4.4269    0.9305   17.8347 N.ar    1  UNL1       -0.2357
     27 C           1.5303    2.4603   19.9635 C.3     1  UNL1        0.0474
     28 C           0.3974    1.7288   20.6205 C.3     1  UNL1        0.0067
     29 C           0.2931    0.2379   20.4930 C.3     1  UNL1        0.0052
     30 C           1.3216   -0.5216   19.7086 C.3     1  UNL1        0.0305
     31 C           5.6748    0.9144   17.0025 C.3     1  UNL1        0.1604
     32 C           6.8646    0.1182   17.4502 C.3     1  UNL1        0.1635
     33 O           6.9035   -1.3640   17.2236 O.3     1  UNL1       -0.3799
     34 H           6.2134   -1.7907   17.7552 H       1  UNL1        0.2105
@<TRIPOS>BOND
     1    18    19    1
     2    19     6    1
     3     6     7   ar
     4     7     8   ar
     5     8     1    1
     6     1     2   ar
     7     2     3   ar
     8     3     4   ar
     9     4    20    1
    10    20    22    1
    11    22    23   ar
    12    23    24   ar
    13    24    25   ar
    14    25    26   ar
    15    26    31    1
    16    31    32    1
    17    32    33    1
    18    24    27    1
    19    27    28    1
    20    28    29    1
    21    29    30    1
    22     4     5   ar
    23     8     9   ar
    24     9    10   ar
    25    10    11   ar
    26    11    12    1
    27    12    13   ar
    28    13    14   ar
    29    14    15   ar
    30    15    16    1
    31    15    17   ar
    32    11     6   ar
    33    17    12   ar
    34     5     1   ar
    35    26    22   ar
    36    30    23    1
    37    20    21    1
    38    33    34    1
@<TRIPOS>MOLECULE
*****
 34 38 0 0 0
SMALL
GASTEIGER

@<TRIPOS>ATOM
      1 C           4.8400   -3.5247   20.8871 C.ar    1  UNL1        0.1074
      2 C           4.0110   -4.5693   20.2004 C.ar    1  UNL1        0.0588
      3 S           3.5540   -4.0084   18.8864 S.2     1  UNL1       -0.0508
      4 C           4.1005   -2.6172   18.7610 C.ar    1  UNL1        0.1646
      5 N           4.8953   -2.3182   19.9975 N.ar    1  UNL1       -0.2224
      6 C           7.3057   -4.7472   23.7464 C.ar    1  UNL1        0.2416
      7 N           6.6476   -4.6096   22.4055 N.ar    1  UNL1       -0.2089
      8 C           5.4981   -3.6623   22.2279 C.ar    1  UNL1        0.1026
      9 C           5.0068   -2.8527   23.3912 C.ar    1  UNL1        0.0224
     10 C           5.6650   -2.9904   24.7321 C.ar    1  UNL1        0.0239
     11 C           6.8144   -3.9377   24.9097 C.ar    1  UNL1        0.1189
     12 N           7.4725   -4.0754   26.2505 N.ar    1  UNL1       -0.2826
     13 C           8.6046   -3.2377   26.7672 C.ar    1  UNL1        0.1826
     14 N           8.9459   -3.7195   28.1461 N.ar    1  UNL1       -0.2280
     15 C           8.0248   -4.8549   28.4817 C.ar    1  UNL1        0.0786
     16 C           8.0159   -5.6336   29.7637 C.3     1  UNL1        0.0538
     17 C           7.1142   -5.0748   27.3100 C.ar    1  UNL1        0.0963
     18 C           8.1954   -7.1515   24.1683 C.3     1  UNL1        0.2543
     19 O           8.4551   -5.6945   23.9240 O.3     1  UNL1       -0.4551
     20 N           3.8893   -1.6880   17.6025 N.pl3   1  UNL1       -0.2786
     21 H           3.6735   -2.0511   16.7132 H       1  UNL1        0.1555
     22 C           4.0069   -0.2056   17.7989 C.ar    1  UNL1        0.1276
     23 C           5.2391    0.6189   17.5712 C.ar    1  UNL1        0.0244
     24 C           4.9068    2.0467   17.8891 C.ar    1  UNL1        0.0773
     25 N           3.4692    2.1045   18.3133 N.ar    1  UNL1       -0.1728
     26 N           2.9130    0.7126   18.2576 N.ar    1  UNL1       -0.2357
     27 C           5.9561    3.1096   17.7512 C.3     1  UNL1        0.0474
     28 C           7.3378    2.7448   17.2954 C.3     1  UNL1        0.0067
     29 C           7.6701    1.3170   16.9775 C.3     1  UNL1        0.0052
     30 C           6.6208    0.2541   17.1154 C.3     1  UNL1        0.0305
     31 C           1.5094    0.3095   18.6004 C.3     1  UNL1        0.1604
     32 C           1.2161   -0.3363   19.9221 C.3     1  UNL1        0.1635
     33 O          -0.1555   -0.2313   20.5202 O.3     1  UNL1       -0.3799
     34 H          -0.3393    0.6937   20.7472 H       1  UNL1        0.2105
@<TRIPOS>BOND
     1    18    19    1
     2    19     6    1
     3     6     7   ar
     4     7     8   ar
     5     8     1    1
     6     1     2   ar
     7     2     3   ar
     8     3     4   ar
     9     4    20    1
    10    20    22    1
    11    22    23   ar
    12    23    24   ar
    13    24    25   ar
    14    25    26   ar
    15    26    31    1
    16    31    32    1
    17    32    33    1
    18    24    27    1
    19    27    28    1
    20    28    29    1
    21    29    30    1
    22     4     5   ar
    23     8     9   ar
    24     9    10   ar
    25    10    11   ar
    26    11    12    1
    27    12    13   ar
    28    13    14   ar
    29    14    15   ar
    30    15    16    1
    31    15    17   ar
    32    11     6   ar
    33    17    12   ar
    34     5     1   ar
    35    26    22   ar
    36    30    23    1
    37    20    21    1
    38    33    34    1
@<TRIPOS>MOLECULE
*****
 34 38 0 0 0
SMALL
GASTEIGER

@<TRIPOS>ATOM
      1 C           3.6676   -0.4139   26.8690 C.ar    1  UNL1        0.1074
      2 C           4.1488    0.9059   27.3949 C.ar    1  UNL1        0.0588
      3 S           3.5965    1.0827   28.7783 S.2     1  UNL1       -0.0508
      4 C           2.7741   -0.1278   29.1073 C.ar    1  UNL1        0.1646
      5 N           2.8180   -1.0527   27.9272 N.ar    1  UNL1       -0.2224
      6 C           3.4477   -1.2150   22.9882 C.ar    1  UNL1        0.2416
      7 N           3.1341   -0.6357   24.3359 N.ar    1  UNL1       -0.2089
      8 C           3.9811   -0.9931   25.5213 C.ar    1  UNL1        0.1026
      9 C           5.1415   -1.9296   25.3590 C.ar    1  UNL1        0.0224
     10 C           5.4550   -2.5089   24.0112 C.ar    1  UNL1        0.0239
     11 C           4.6080   -2.1515   22.8259 C.ar    1  UNL1        0.1189
     12 N           4.9215   -2.7307   21.4782 N.ar    1  UNL1       -0.2826
     13 C           5.8601   -2.1468   20.4642 C.ar    1  UNL1        0.1826
     14 N           5.8701   -3.0507   19.2672 N.ar    1  UNL1       -0.2280
     15 C           4.9377   -4.1934   19.5415 C.ar    1  UNL1        0.0786
     16 C           4.6434   -5.3336   18.6123 C.3     1  UNL1        0.0538
     17 C           4.3515   -3.9956   20.9080 C.ar    1  UNL1        0.0963
     18 C           2.9804    0.3036   20.9326 C.3     1  UNL1        0.2543
     19 O           2.6008   -0.8577   21.8029 O.3     1  UNL1       -0.4551
     20 N           2.0370   -0.3707   30.3910 N.pl3   1  UNL1       -0.2786
     21 H           1.2447   -0.9551   30.4007 H       1  UNL1        0.1555
     22 C           2.5071    0.2767   31.6598 C.ar    1  UNL1        0.1276
     23 C           1.9994    1.5670   32.2318 C.ar    1  UNL1        0.0244
     24 C           2.7459    1.8352   33.5049 C.ar    1  UNL1        0.0773
     25 N           3.7149    0.7106   33.7197 N.ar    1  UNL1       -0.1728
     26 N           3.5674   -0.2527   32.5794 N.ar    1  UNL1       -0.2357
     27 C           2.4468    3.0689   34.3041 C.3     1  UNL1        0.0474
     28 C           1.4012    4.0343   33.8301 C.3     1  UNL1        0.0067
     29 C           0.6547    3.7661   32.5570 C.3     1  UNL1        0.0052
     30 C           0.9538    2.5325   31.7579 C.3     1  UNL1        0.0305
     31 C           4.3437   -1.5223   32.3916 C.3     1  UNL1        0.1604
     32 C           4.5268   -2.4667   33.5425 C.3     1  UNL1        0.1635
     33 O           3.5691   -3.6043   33.7388 O.3     1  UNL1       -0.3799
     34 H           2.6906   -3.2540   33.9545 H       1  UNL1        0.2105
@<TRIPOS>BOND
     1    18    19    1
     2    19     6    1
     3     6     7   ar
     4     7     8   ar
     5     8     1    1
     6     1     2   ar
     7     2     3   ar
     8     3     4   ar
     9     4    20    1
    10    20    22    1
    11    22    23   ar
    12    23    24   ar
    13    24    25   ar
    14    25    26   ar
    15    26    31    1
    16    31    32    1
    17    32    33    1
    18    24    27    1
    19    27    28    1
    20    28    29    1
    21    29    30    1
    22     4     5   ar
    23     8     9   ar
    24     9    10   ar
    25    10    11   ar
    26    11    12    1
    27    12    13   ar
    28    13    14   ar
    29    14    15   ar
    30    15    16    1
    31    15    17   ar
    32    11     6   ar
    33    17    12   ar
    34     5     1   ar
    35    26    22   ar
    36    30    23    1
    37    20    21    1
    38    33    34    1
@<TRIPOS>MOLECULE
*****
 34 38 0 0 0
SMALL
GASTEIGER

@<TRIPOS>ATOM
      1 C           3.9667   -0.6066   27.0964 C.ar    1  UNL1        0.1074
      2 C           4.7209    0.5133   27.7497 C.ar    1  UNL1        0.0588
      3 S           4.1635    0.7047   29.1291 S.2     1  UNL1       -0.0508
      4 C           3.0648   -0.2969   29.3281 C.ar    1  UNL1        0.1646
      5 N           2.9432   -1.1074   28.0718 N.ar    1  UNL1       -0.2224
      6 C           5.5081   -2.6673   24.0751 C.ar    1  UNL1        0.2416
      7 N           5.2790   -2.1406   25.4608 N.ar    1  UNL1       -0.2089
      8 C           4.1958   -1.1334   25.7107 C.ar    1  UNL1        0.1026
      9 C           3.3419   -0.6529   24.5749 C.ar    1  UNL1        0.0224
     10 C           3.5711   -1.1797   23.1892 C.ar    1  UNL1        0.0239
     11 C           4.6542   -2.1869   22.9394 C.ar    1  UNL1        0.1189
     12 N           4.8833   -2.7137   21.5537 N.ar    1  UNL1       -0.2826
     13 C           5.6582   -2.0289   20.4671 C.ar    1  UNL1        0.1826
     14 N           5.6316   -2.9096   19.2532 N.ar    1  UNL1       -0.2280
     15 C           4.8403   -4.1388   19.5896 C.ar    1  UNL1        0.0786
     16 C           4.5606   -5.2874   18.6663 C.3     1  UNL1        0.0538
     17 C           4.3778   -4.0176   21.0115 C.ar    1  UNL1        0.0963
     18 C           8.0295   -3.2492   23.8429 C.3     1  UNL1        0.2543
     19 O           6.5911   -3.6746   23.8252 O.3     1  UNL1       -0.4551
     20 N           2.2335   -0.4595   30.5662 N.pl3   1  UNL1       -0.2786
     21 H           1.5022   -1.1183   30.5851 H       1  UNL1        0.1555
     22 C           2.5166    0.3817   31.7755 C.ar    1  UNL1        0.1276
     23 C           1.8394    1.6724   32.1298 C.ar    1  UNL1        0.0244
     24 C           2.4309    2.1683   33.4160 C.ar    1  UNL1        0.0773
     25 N           3.4736    1.1840   33.8565 N.ar    1  UNL1       -0.1728
     26 N           3.5266    0.0799   32.8426 N.ar    1  UNL1       -0.2357
     27 C           1.9436    3.4519   34.0199 C.3     1  UNL1        0.0474
     28 C           0.8648    4.2397   33.3375 C.3     1  UNL1        0.0067
     29 C           0.2733    3.7438   32.0514 C.3     1  UNL1        0.0052
     30 C           0.7607    2.4601   31.4475 C.3     1  UNL1        0.0305
     31 C           4.4308   -1.1161   32.8879 C.3     1  UNL1        0.1604
     32 C           4.2776   -2.1312   33.9815 C.3     1  UNL1        0.1635
     33 O           3.6480   -3.4606   33.6880 O.3     1  UNL1       -0.3799
     34 H           2.7154   -3.3322   33.4539 H       1  UNL1        0.2105
@<TRIPOS>BOND
     1    18    19    1
     2    19     6    1
     3     6     7   ar
     4     7     8   ar
     5     8     1    1
     6     1     2   ar
     7     2     3   ar
     8     3     4   ar
     9     4    20    1
    10    20    22    1
    11    22    23   ar
    12    23    24   ar
    13    24    25   ar
    14    25    26   ar
    15    26    31    1
    16    31    32    1
    17    32    33    1
    18    24    27    1
    19    27    28    1
    20    28    29    1
    21    29    30    1
    22     4     5   ar
    23     8     9   ar
    24     9    10   ar
    25    10    11   ar
    26    11    12    1
    27    12    13   ar
    28    13    14   ar
    29    14    15   ar
    30    15    16    1
    31    15    17   ar
    32    11     6   ar
    33    17    12   ar
    34     5     1   ar
    35    26    22   ar
    36    30    23    1
    37    20    21    1
    38    33    34    1
@<TRIPOS>MOLECULE
*****
 34 38 0 0 0
SMALL
GASTEIGER

@<TRIPOS>ATOM
      1 C           4.8384   -1.5919   26.0837 C.ar    1  UNL1        0.1074
      2 C           4.3278   -1.4874   27.4902 C.ar    1  UNL1        0.0588
      3 S           5.3626   -2.0745   28.4037 S.2     1  UNL1       -0.0508
      4 C           6.5127   -2.5418   27.5618 C.ar    1  UNL1        0.1646
      5 N           6.1887   -2.2435   26.1279 N.ar    1  UNL1       -0.2224
      6 C           3.7773   -1.2291   22.2767 C.ar    1  UNL1        0.2416
      7 N           4.4917   -1.6946   23.5108 N.ar    1  UNL1       -0.2089
      8 C           4.1241   -1.1264   24.8496 C.ar    1  UNL1        0.1026
      9 C           3.0421   -0.0928   24.9541 C.ar    1  UNL1        0.0224
     10 C           2.3277    0.3727   23.7199 C.ar    1  UNL1        0.0239
     11 C           2.6954   -0.1955   22.3813 C.ar    1  UNL1        0.1189
     12 N           1.9810    0.2699   21.1472 N.ar    1  UNL1       -0.2826
     13 C           1.1182   -0.5742   20.2565 C.ar    1  UNL1        0.1826
     14 N           0.6080    0.2953   19.1460 N.ar    1  UNL1       -0.2280
     15 C           1.1555    1.6770   19.3501 C.ar    1  UNL1        0.0786
     16 C           0.8993    2.8655   18.4716 C.3     1  UNL1        0.0538
     17 C           2.0041    1.6612   20.5870 C.ar    1  UNL1        0.0963
     18 C           4.7650   -3.1601   20.8464 C.3     1  UNL1        0.2543
     19 O           4.1449   -1.7973   20.9381 O.3     1  UNL1       -0.4551
     20 N           7.7667   -3.1931   28.0653 N.pl3   1  UNL1       -0.2786
     21 H           8.4863   -2.6430   28.4513 H       1  UNL1        0.1555
     22 C           7.9243   -4.6824   27.9809 C.ar    1  UNL1        0.1276
     23 C           8.0088   -5.4899   26.7196 C.ar    1  UNL1        0.0244
     24 C           8.1618   -6.9322   27.1020 C.ar    1  UNL1        0.0773
     25 N           8.1718   -7.0161   28.5996 N.ar    1  UNL1       -0.1728
     26 N           8.0251   -5.6256   29.1428 N.ar    1  UNL1       -0.2357
     27 C           8.2722   -7.9828   26.0371 C.3     1  UNL1        0.0474
     28 C           8.2296   -7.5911   24.5898 C.3     1  UNL1        0.0067
     29 C           8.0766   -6.1487   24.2074 C.3     1  UNL1        0.0052
     30 C           7.9662   -5.0981   25.2723 C.3     1  UNL1        0.0305
     31 C           7.9859   -5.2452   30.5932 C.3     1  UNL1        0.1604
     32 C           6.9349   -5.8252   31.4926 C.3     1  UNL1        0.1635
     33 O           6.3725   -5.0047   32.6153 O.3     1  UNL1       -0.3799
     34 H           7.0678   -4.8314   33.2690 H       1  UNL1        0.2105
@<TRIPOS>BOND
     1    18    19    1
     2    19     6    1
     3     6     7   ar
     4     7     8   ar
     5     8     1    1
     6     1     2   ar
     7     2     3   ar
     8     3     4   ar
     9     4    20    1
    10    20    22    1
    11    22    23   ar
    12    23    24   ar
    13    24    25   ar
    14    25    26   ar
    15    26    31    1
    16    31    32    1
    17    32    33    1
    18    24    27    1
    19    27    28    1
    20    28    29    1
    21    29    30    1
    22     4     5   ar
    23     8     9   ar
    24     9    10   ar
    25    10    11   ar
    26    11    12    1
    27    12    13   ar
    28    13    14   ar
    29    14    15   ar
    30    15    16    1
    31    15    17   ar
    32    11     6   ar
    33    17    12   ar
    34     5     1   ar
    35    26    22   ar
    36    30    23    1
    37    20    21    1
    38    33    34    1
@<TRIPOS>MOLECULE
*****
 34 38 0 0 0
SMALL
GASTEIGER

@<TRIPOS>ATOM
      1 C           0.3405    2.2307   19.1114 C.ar    1  UNL1        0.1074
      2 C           0.1081    3.0070   17.8491 C.ar    1  UNL1        0.0588
      3 S          -0.8937    4.0835   18.1449 S.2     1  UNL1       -0.0508
      4 C          -1.2805    3.9724   19.5899 C.ar    1  UNL1        0.1646
      5 N          -0.5177    2.8273   20.1872 N.ar    1  UNL1       -0.2224
      6 C           3.1605   -0.4511   18.3331 C.ar    1  UNL1        0.2416
      7 N           2.2328    0.7169   18.1744 N.ar    1  UNL1       -0.2089
      8 C           1.2682    1.0627   19.2699 C.ar    1  UNL1        0.1026
      9 C           1.2314    0.2405   20.5240 C.ar    1  UNL1        0.0224
     10 C           2.1592   -0.9276   20.6825 C.ar    1  UNL1        0.0239
     11 C           3.1237   -1.2733   19.5870 C.ar    1  UNL1        0.1189
     12 N           4.0514   -2.4413   19.7456 N.ar    1  UNL1       -0.2826
     13 C           3.7582   -3.8596   19.3550 C.ar    1  UNL1        0.1826
     14 N           4.9607   -4.6909   19.6905 N.ar    1  UNL1       -0.2280
     15 C           5.9973   -3.7864   20.2886 C.ar    1  UNL1        0.0786
     16 C           7.3571   -4.1997   20.7683 C.3     1  UNL1        0.0538
     17 C           5.4352   -2.3960   20.3226 C.ar    1  UNL1        0.0963
     18 C           5.4383   -0.0786   17.1402 C.3     1  UNL1        0.2543
     19 O           4.1251   -0.7969   17.2376 O.3     1  UNL1       -0.4551
     20 N          -2.2585    4.8521   20.3110 N.pl3   1  UNL1       -0.2786
     21 H          -1.9330    5.5607   20.9120 H       1  UNL1        0.1555
     22 C          -3.7323    4.6521   20.1164 C.ar    1  UNL1        0.1276
     23 C          -4.5428    5.1441   18.9541 C.ar    1  UNL1        0.0244
     24 C          -5.9658    4.7211   19.1692 C.ar    1  UNL1        0.0773
     25 N          -6.0346    3.9677   20.4645 N.ar    1  UNL1       -0.1728
     26 N          -4.6542    3.9251   21.0499 N.ar    1  UNL1       -0.2357
     27 C          -7.0150    5.0766   18.1579 C.3     1  UNL1        0.0474
     28 C          -6.6412    5.8550   16.9314 C.3     1  UNL1        0.0067
     29 C          -5.2182    6.2780   16.7163 C.3     1  UNL1        0.0052
     30 C          -4.1691    5.9225   17.7276 C.3     1  UNL1        0.0305
     31 C          -4.2643    3.2704   22.3419 C.3     1  UNL1        0.1604
     32 C          -5.1279    3.4358   23.5571 C.3     1  UNL1        0.1635
     33 O          -6.5990    3.6851   23.4034 O.3     1  UNL1       -0.3799
     34 H          -6.7386    4.5496   22.9862 H       1  UNL1        0.2105
@<TRIPOS>BOND
     1    18    19    1
     2    19     6    1
     3     6     7   ar
     4     7     8   ar
     5     8     1    1
     6     1     2   ar
     7     2     3   ar
     8     3     4   ar
     9     4    20    1
    10    20    22    1
    11    22    23   ar
    12    23    24   ar
    13    24    25   ar
    14    25    26   ar
    15    26    31    1
    16    31    32    1
    17    32    33    1
    18    24    27    1
    19    27    28    1
    20    28    29    1
    21    29    30    1
    22     4     5   ar
    23     8     9   ar
    24     9    10   ar
    25    10    11   ar
    26    11    12    1
    27    12    13   ar
    28    13    14   ar
    29    14    15   ar
    30    15    16    1
    31    15    17   ar
    32    11     6   ar
    33    17    12   ar
    34     5     1   ar
    35    26    22   ar
    36    30    23    1
    37    20    21    1
    38    33    34    1
