@<TRIPOS>MOLECULE
*****
 24 26 0 0 0
SMALL
GASTEIGER

@<TRIPOS>ATOM
      1 C          -8.8410  -18.9241   20.8925 C.ar    1  UNL1        0.0395
      2 C          -8.4104  -19.6326   19.6425 C.ar    1  UNL1        0.0063
      3 C          -7.0358  -20.2262   19.5525 C.ar    1  UNL1        0.0376
      4 C          -6.0919  -20.1115   20.7125 C.ar    1  UNL1        0.1453
      5 C          -6.5224  -19.4030   21.9626 C.ar    1  UNL1        0.0376
      6 C          -7.8970  -18.8094   22.0526 C.ar    1  UNL1        0.0063
      7 N         -12.4402  -17.7692   21.7740 N.ar    1  UNL1       -0.1506
      8 N         -12.2214  -17.0644   20.4681 N.ar    1  UNL1       -0.0451
      9 N         -10.8464  -17.4113   19.9790 N.ar    1  UNL1       -0.1077
     10 C         -10.2156  -18.3304   20.9826 C.ar    1  UNL1        0.2058
     11 N         -11.2006  -18.5517   22.0920 N.ar    1  UNL1       -0.1297
     12 C         -13.6809  -17.7032   22.6145 C.3     1  UNL1        0.1572
     13 C         -13.5794  -17.7803   24.1090 C.3     1  UNL1        0.0700
     14 O         -14.4242  -18.7900   26.3488 O.co2   1  UNL1       -0.5491
     15 C         -14.6461  -18.4800   24.8981 C.2     1  UNL1        0.0524
     16 O         -15.9347  -18.8695   24.2365 O.co2   1  UNL1       -0.5491
     17 O          -4.7172  -20.7052   20.6225 O.3     1  UNL1       -0.4535
     18 C          -3.5222  -19.8108   20.4746 C.ar    1  UNL1        0.1454
     19 C          -2.5391  -19.6805   21.6000 C.ar    1  UNL1        0.0384
     20 C          -1.3440  -18.7860   21.4521 C.ar    1  UNL1        0.0145
     21 C          -1.1321  -18.0219   20.1789 C.ar    1  UNL1        0.0579
     22 CL          0.0630  -17.1275   20.0310 Cl      1  UNL1       -0.0822
     23 C          -2.1152  -18.1522   19.0535 C.ar    1  UNL1        0.0145
     24 C          -3.3102  -19.0466   19.2013 C.ar    1  UNL1        0.0384
@<TRIPOS>UNITY_ATOM_ATTR
14 1
charge -1
@<TRIPOS>BOND
     1    14    15   ar
     2    15    16   ar
     3    15    13    1
     4    13    12    1
     5    12     7    1
     6     7     8   ar
     7     8     9   ar
     8     9    10   ar
     9    10     1    1
    10     1     2   ar
    11     2     3   ar
    12     3     4   ar
    13     4    17    1
    14    17    18    1
    15    18    19   ar
    16    19    20   ar
    17    20    21   ar
    18    21    22    1
    19    21    23   ar
    20    23    24   ar
    21     4     5   ar
    22     5     6   ar
    23    10    11   ar
    24    11     7   ar
    25     6     1   ar
    26    24    18   ar
@<TRIPOS>MOLECULE
*****
 24 26 0 0 0
SMALL
GASTEIGER

@<TRIPOS>ATOM
      1 C          -6.9814  -19.1791   20.4401 C.ar    1  UNL1        0.0395
      2 C          -7.4315  -18.2062   21.4892 C.ar    1  UNL1        0.0063
      3 C          -8.8842  -17.8531   21.6108 C.ar    1  UNL1        0.0376
      4 C          -9.8869  -18.4731   20.6832 C.ar    1  UNL1        0.1453
      5 C          -9.4368  -19.4460   19.6341 C.ar    1  UNL1        0.0376
      6 C          -7.9841  -19.7991   19.5125 C.ar    1  UNL1        0.0063
      7 N          -3.1140  -19.3476   20.1562 N.ar    1  UNL1       -0.1506
      8 N          -3.4720  -20.8035   20.1063 N.ar    1  UNL1       -0.0451
      9 N          -4.9643  -20.9175   20.2066 N.ar    1  UNL1       -0.1077
     10 C          -5.5286  -19.5322   20.3184 C.ar    1  UNL1        0.2058
     11 N          -4.3851  -18.5620   20.2872 N.ar    1  UNL1       -0.1297
     12 C          -1.7283  -18.7776   20.0871 C.3     1  UNL1        0.1572
     13 C          -1.4604  -17.3932   20.5987 C.3     1  UNL1        0.0700
     14 O          -2.1787  -17.7927   23.0632 O.co2   1  UNL1       -0.5491
     15 C          -2.1343  -16.9125   21.8496 C.2     1  UNL1        0.0524
     16 O          -2.7638  -15.5515   21.8867 O.co2   1  UNL1       -0.5491
     17 O         -11.3397  -18.1200   20.8049 O.3     1  UNL1       -0.4535
     18 C         -12.0306  -18.2332   22.1315 C.ar    1  UNL1        0.1454
     19 C         -11.3466  -18.9184   23.2772 C.ar    1  UNL1        0.0384
     20 C         -12.0375  -19.0316   24.6039 C.ar    1  UNL1        0.0145
     21 C         -13.4123  -18.4597   24.7847 C.ar    1  UNL1        0.0579
     22 CL        -14.1031  -18.5729   26.1113 Cl      1  UNL1       -0.0822
     23 C         -14.0963  -17.7746   23.6390 C.ar    1  UNL1        0.0145
     24 C         -13.4055  -17.6614   22.3124 C.ar    1  UNL1        0.0384
@<TRIPOS>UNITY_ATOM_ATTR
14 1
charge -1
@<TRIPOS>BOND
     1    14    15   ar
     2    15    16   ar
     3    15    13    1
     4    13    12    1
     5    12     7    1
     6     7     8   ar
     7     8     9   ar
     8     9    10   ar
     9    10     1    1
    10     1     2   ar
    11     2     3   ar
    12     3     4   ar
    13     4    17    1
    14    17    18    1
    15    18    19   ar
    16    19    20   ar
    17    20    21   ar
    18    21    22    1
    19    21    23   ar
    20    23    24   ar
    21     4     5   ar
    22     5     6   ar
    23    10    11   ar
    24    11     7   ar
    25     6     1   ar
    26    24    18   ar
@<TRIPOS>MOLECULE
*****
 24 26 0 0 0
SMALL
GASTEIGER

@<TRIPOS>ATOM
      1 C          -6.0973  -19.0967   21.0799 C.ar    1  UNL1        0.0395
      2 C          -6.8547  -18.3054   22.1047 C.ar    1  UNL1        0.0063
      3 C          -8.3426  -18.1561   21.9873 C.ar    1  UNL1        0.0376
      4 C          -9.0731  -18.7980   20.8453 C.ar    1  UNL1        0.1453
      5 C          -8.3157  -19.5893   19.8205 C.ar    1  UNL1        0.0376
      6 C          -6.8278  -19.7386   19.9378 C.ar    1  UNL1        0.0063
      7 N          -2.2262  -18.9834   20.8200 N.ar    1  UNL1       -0.1506
      8 N          -2.4131  -19.9687   21.9355 N.ar    1  UNL1       -0.0451
      9 N          -3.8859  -20.1311   22.1686 N.ar    1  UNL1       -0.1077
     10 C          -4.6093  -19.2461   21.1972 C.ar    1  UNL1        0.2058
     11 N          -3.5836  -18.5368   20.3637 N.ar    1  UNL1       -0.1297
     12 C          -0.9126  -18.5251   20.2592 C.3     1  UNL1        0.1572
     13 C          -0.8648  -17.3566   19.3199 C.3     1  UNL1        0.0700
     14 O          -3.1040  -16.7997   18.1259 O.co2   1  UNL1       -0.5491
     15 C          -1.7112  -17.3547   18.0815 C.2     1  UNL1        0.0524
     16 O          -1.1648  -17.9078   16.7987 O.co2   1  UNL1       -0.5491
     17 O         -10.5611  -18.6486   20.7280 O.3     1  UNL1       -0.4535
     18 C         -11.4089  -18.5920   21.9641 C.ar    1  UNL1        0.1454
     19 C         -11.0246  -19.3905   23.1744 C.ar    1  UNL1        0.0384
     20 C         -11.8725  -19.3339   24.4105 C.ar    1  UNL1        0.0145
     21 C         -13.1047  -18.4789   24.4363 C.ar    1  UNL1        0.0579
     22 CL        -13.9525  -18.4223   25.6724 Cl      1  UNL1       -0.0822
     23 C         -13.4890  -17.6805   23.2260 C.ar    1  UNL1        0.0145
     24 C         -12.6412  -17.7370   21.9899 C.ar    1  UNL1        0.0384
@<TRIPOS>UNITY_ATOM_ATTR
14 1
charge -1
@<TRIPOS>BOND
     1    14    15   ar
     2    15    16   ar
     3    15    13    1
     4    13    12    1
     5    12     7    1
     6     7     8   ar
     7     8     9   ar
     8     9    10   ar
     9    10     1    1
    10     1     2   ar
    11     2     3   ar
    12     3     4   ar
    13     4    17    1
    14    17    18    1
    15    18    19   ar
    16    19    20   ar
    17    20    21   ar
    18    21    22    1
    19    21    23   ar
    20    23    24   ar
    21     4     5   ar
    22     5     6   ar
    23    10    11   ar
    24    11     7   ar
    25     6     1   ar
    26    24    18   ar
@<TRIPOS>MOLECULE
*****
 24 26 0 0 0
SMALL
GASTEIGER

@<TRIPOS>ATOM
      1 C           7.8772   -7.3865   26.2076 C.ar    1  UNL1        0.0395
      2 C           8.2861   -7.1906   24.7778 C.ar    1  UNL1        0.0063
      3 C           7.9836   -5.8968   24.0818 C.ar    1  UNL1        0.0376
      4 C           7.2723   -4.7988   24.8156 C.ar    1  UNL1        0.1453
      5 C           6.8634   -4.9947   26.2454 C.ar    1  UNL1        0.0376
      6 C           7.1659   -6.2885   26.9414 C.ar    1  UNL1        0.0063
      7 N           7.9170  -10.8501   27.9590 N.ar    1  UNL1       -0.1506
      8 N           9.3735  -10.4927   27.9905 N.ar    1  UNL1       -0.0451
      9 N           9.5358   -9.1517   27.3382 N.ar    1  UNL1       -0.1077
     10 C           8.1797   -8.6804   26.9036 C.ar    1  UNL1        0.2058
     11 N           7.1792   -9.7300   27.2873 N.ar    1  UNL1       -0.1297
     12 C           7.3056  -12.1070   28.5036 C.3     1  UNL1        0.1572
     13 C           5.8141  -12.2626   28.5357 C.3     1  UNL1        0.0700
     14 O           5.4154  -13.4000   26.2342 O.co2   1  UNL1       -0.5491
     15 C           5.1529  -13.3254   27.7091 C.2     1  UNL1        0.0524
     16 O           4.2293  -14.3137   28.3574 O.co2   1  UNL1       -0.5491
     17 O           6.9698   -3.5049   24.1196 O.3     1  UNL1       -0.4535
     18 C           6.3925   -3.5151   22.7352 C.ar    1  UNL1        0.1454
     19 C           7.2831   -3.2889   21.5495 C.ar    1  UNL1        0.0384
     20 C           6.7057   -3.2991   20.1651 C.ar    1  UNL1        0.0145
     21 C           5.2379   -3.5356   19.9663 C.ar    1  UNL1        0.0579
     22 CL          4.6606   -3.5458   18.5819 Cl      1  UNL1       -0.0822
     23 C           4.3473   -3.7617   21.1520 C.ar    1  UNL1        0.0145
     24 C           4.9246   -3.7515   22.5363 C.ar    1  UNL1        0.0384
@<TRIPOS>UNITY_ATOM_ATTR
14 1
charge -1
@<TRIPOS>BOND
     1    14    15   ar
     2    15    16   ar
     3    15    13    1
     4    13    12    1
     5    12     7    1
     6     7     8   ar
     7     8     9   ar
     8     9    10   ar
     9    10     1    1
    10     1     2   ar
    11     2     3   ar
    12     3     4   ar
    13     4    17    1
    14    17    18    1
    15    18    19   ar
    16    19    20   ar
    17    20    21   ar
    18    21    22    1
    19    21    23   ar
    20    23    24   ar
    21     4     5   ar
    22     5     6   ar
    23    10    11   ar
    24    11     7   ar
    25     6     1   ar
    26    24    18   ar
@<TRIPOS>MOLECULE
*****
 24 26 0 0 0
SMALL
GASTEIGER

@<TRIPOS>ATOM
      1 C           1.9797    0.6946   18.9450 C.ar    1  UNL1        0.0395
      2 C           0.9380    0.2756   19.9396 C.ar    1  UNL1        0.0063
      3 C          -0.0476    1.2789   20.4610 C.ar    1  UNL1        0.0376
      4 C           0.0086    2.7012   19.9878 C.ar    1  UNL1        0.1453
      5 C           1.0503    3.1202   18.9932 C.ar    1  UNL1        0.0376
      6 C           2.0359    2.1169   18.4718 C.ar    1  UNL1        0.0063
      7 N           4.4554   -2.2188   18.2751 N.ar    1  UNL1       -0.1506
      8 N           4.5089   -1.4865   16.9671 N.ar    1  UNL1       -0.0451
      9 N           3.5880   -0.3060   17.0588 N.ar    1  UNL1       -0.1077
     10 C           2.9654   -0.3088   18.4235 C.ar    1  UNL1        0.2058
     11 N           3.5015   -1.4910   19.1752 N.ar    1  UNL1       -0.1297
     12 C           5.2214   -3.4610   18.6220 C.3     1  UNL1        0.1572
     13 C           4.4934   -4.7532   18.8455 C.3     1  UNL1        0.0700
     14 O           3.0562   -6.2573   20.4017 O.co2   1  UNL1       -0.5491
     15 C           4.0090   -5.1135   20.2187 C.2     1  UNL1        0.0524
     16 O           4.4776   -4.3299   21.4088 O.co2   1  UNL1       -0.5491
     17 O          -0.9771    3.7045   20.5093 O.3     1  UNL1       -0.4535
     18 C          -2.4109    3.6443   20.0726 C.ar    1  UNL1        0.1454
     19 C          -2.7720    3.9232   18.6437 C.ar    1  UNL1        0.0384
     20 C          -4.2059    3.8629   18.2070 C.ar    1  UNL1        0.0145
     21 C          -5.2784    3.5237   19.1993 C.ar    1  UNL1        0.0579
     22 CL         -6.7121    3.4635   18.7626 Cl      1  UNL1       -0.0822
     23 C          -4.9172    3.2448   20.6282 C.ar    1  UNL1        0.0145
     24 C          -3.4835    3.3051   21.0648 C.ar    1  UNL1        0.0384
@<TRIPOS>UNITY_ATOM_ATTR
14 1
charge -1
@<TRIPOS>BOND
     1    14    15   ar
     2    15    16   ar
     3    15    13    1
     4    13    12    1
     5    12     7    1
     6     7     8   ar
     7     8     9   ar
     8     9    10   ar
     9    10     1    1
    10     1     2   ar
    11     2     3   ar
    12     3     4   ar
    13     4    17    1
    14    17    18    1
    15    18    19   ar
    16    19    20   ar
    17    20    21   ar
    18    21    22    1
    19    21    23   ar
    20    23    24   ar
    21     4     5   ar
    22     5     6   ar
    23    10    11   ar
    24    11     7   ar
    25     6     1   ar
    26    24    18   ar
@<TRIPOS>MOLECULE
*****
 24 26 0 0 0
SMALL
GASTEIGER

@<TRIPOS>ATOM
      1 C          -6.4815  -18.2012   22.3797 C.ar    1  UNL1        0.0395
      2 C          -7.2296  -16.9100   22.5317 C.ar    1  UNL1        0.0063
      3 C          -8.7074  -16.8653   22.2789 C.ar    1  UNL1        0.0376
      4 C          -9.4372  -18.1118   21.8742 C.ar    1  UNL1        0.1453
      5 C          -8.6891  -19.4029   21.7223 C.ar    1  UNL1        0.0376
      6 C          -7.2112  -19.4476   21.9751 C.ar    1  UNL1        0.0063
      7 N          -2.6145  -18.5295   22.3121 N.ar    1  UNL1       -0.1506
      8 N          -2.8442  -18.1000   23.7309 N.ar    1  UNL1       -0.0451
      9 N          -4.3207  -17.9248   23.9289 N.ar    1  UNL1       -0.1077
     10 C          -5.0036  -18.2459   22.6325 C.ar    1  UNL1        0.2058
     11 N          -3.9491  -18.6197   21.6333 N.ar    1  UNL1       -0.1297
     12 C          -1.2839  -18.8182   21.6827 C.3     1  UNL1        0.1572
     13 C          -1.1855  -19.0318   20.2013 C.3     1  UNL1        0.0700
     14 O           0.1388  -16.8397   19.7647 O.co2   1  UNL1       -0.5491
     15 C          -0.8301  -17.8864   19.3003 C.2     1  UNL1        0.0524
     16 O          -1.4435  -17.7877   17.9351 O.co2   1  UNL1       -0.5491
     17 O         -10.9151  -18.0670   21.6214 O.3     1  UNL1       -0.4535
     18 C         -11.8761  -18.2081   22.7645 C.ar    1  UNL1        0.1454
     19 C         -13.2939  -17.7421   22.6142 C.ar    1  UNL1        0.0384
     20 C         -14.2549  -17.8832   23.7573 C.ar    1  UNL1        0.0145
     21 C         -13.7981  -18.4902   25.0506 C.ar    1  UNL1        0.0579
     22 CL        -14.7591  -18.6313   26.1937 Cl      1  UNL1       -0.0822
     23 C         -12.3802  -18.9561   25.2009 C.ar    1  UNL1        0.0145
     24 C         -11.4192  -18.8151   24.0579 C.ar    1  UNL1        0.0384
@<TRIPOS>UNITY_ATOM_ATTR
14 1
charge -1
@<TRIPOS>BOND
     1    14    15   ar
     2    15    16   ar
     3    15    13    1
     4    13    12    1
     5    12     7    1
     6     7     8   ar
     7     8     9   ar
     8     9    10   ar
     9    10     1    1
    10     1     2   ar
    11     2     3   ar
    12     3     4   ar
    13     4    17    1
    14    17    18    1
    15    18    19   ar
    16    19    20   ar
    17    20    21   ar
    18    21    22    1
    19    21    23   ar
    20    23    24   ar
    21     4     5   ar
    22     5     6   ar
    23    10    11   ar
    24    11     7   ar
    25     6     1   ar
    26    24    18   ar
@<TRIPOS>MOLECULE
*****
 24 26 0 0 0
SMALL
GASTEIGER

@<TRIPOS>ATOM
      1 C           5.9944   -3.4330   20.4854 C.ar    1  UNL1        0.0395
      2 C           6.2425   -1.9556   20.4102 C.ar    1  UNL1        0.0063
      3 C           5.3157   -1.0787   19.6216 C.ar    1  UNL1        0.0376
      4 C           4.1408   -1.6791   18.9081 C.ar    1  UNL1        0.1453
      5 C           3.8927   -3.1565   18.9833 C.ar    1  UNL1        0.0376
      6 C           4.8195   -4.0334   19.7720 C.ar    1  UNL1        0.0063
      7 N           7.9896   -5.4699   23.1190 N.ar    1  UNL1       -0.1506
      8 N           8.7053   -5.8491   21.8563 N.ar    1  UNL1       -0.0451
      9 N           8.0450   -5.1322   20.7162 N.ar    1  UNL1       -0.1077
     10 C           6.9213   -4.3100   21.2741 C.ar    1  UNL1        0.2058
     11 N           6.8871   -4.5187   22.7591 N.ar    1  UNL1       -0.1297
     12 C           8.3188   -5.9566   24.4992 C.3     1  UNL1        0.1572
     13 C           7.9795   -7.3617   24.8998 C.3     1  UNL1        0.0700
     14 O           6.4613   -6.5685   26.8531 O.co2   1  UNL1       -0.5491
     15 C           7.3150   -7.6259   26.2184 C.2     1  UNL1        0.0524
     16 O           7.5042   -8.9475   26.9021 O.co2   1  UNL1       -0.5491
     17 O           3.2140   -0.8021   18.1194 O.3     1  UNL1       -0.4535
     18 C           2.1914    0.0364   18.8272 C.ar    1  UNL1        0.1454
     19 C           1.3328   -0.5715   19.8965 C.ar    1  UNL1        0.0384
     20 C           0.3101    0.2672   20.6043 C.ar    1  UNL1        0.0145
     21 C           0.1460    1.7136   20.2427 C.ar    1  UNL1        0.0579
     22 CL         -0.8766    2.5522   20.9505 Cl      1  UNL1       -0.0822
     23 C           1.0046    2.3215   19.1735 C.ar    1  UNL1        0.0145
     24 C           2.0272    1.4830   18.4657 C.ar    1  UNL1        0.0384
@<TRIPOS>UNITY_ATOM_ATTR
14 1
charge -1
@<TRIPOS>BOND
     1    14    15   ar
     2    15    16   ar
     3    15    13    1
     4    13    12    1
     5    12     7    1
     6     7     8   ar
     7     8     9   ar
     8     9    10   ar
     9    10     1    1
    10     1     2   ar
    11     2     3   ar
    12     3     4   ar
    13     4    17    1
    14    17    18    1
    15    18    19   ar
    16    19    20   ar
    17    20    21   ar
    18    21    22    1
    19    21    23   ar
    20    23    24   ar
    21     4     5   ar
    22     5     6   ar
    23    10    11   ar
    24    11     7   ar
    25     6     1   ar
    26    24    18   ar
@<TRIPOS>MOLECULE
*****
 24 26 0 0 0
SMALL
GASTEIGER

@<TRIPOS>ATOM
      1 C           5.2698   -0.8136   34.1615 C.ar    1  UNL1        0.0395
      2 C           4.5251   -1.9424   33.5126 C.ar    1  UNL1        0.0063
      3 C           5.2457   -2.8895   32.5997 C.ar    1  UNL1        0.0376
      4 C           6.7111   -2.7079   32.3357 C.ar    1  UNL1        0.1453
      5 C           7.4558   -1.5791   32.9846 C.ar    1  UNL1        0.0376
      6 C           6.7352   -0.6319   33.8975 C.ar    1  UNL1        0.0063
      7 N           3.6183    1.1606   37.0669 N.ar    1  UNL1       -0.1506
      8 N           3.2620    2.0221   35.8918 N.ar    1  UNL1       -0.0451
      9 N           3.8373    1.3874   34.6604 N.ar    1  UNL1       -0.1077
     10 C           4.5491    0.1337   35.0745 C.ar    1  UNL1        0.2058
     11 N           4.4138   -0.0065   36.5618 N.ar    1  UNL1       -0.1297
     12 C           3.2447    1.4205   38.4962 C.3     1  UNL1        0.1572
     13 C           2.0335    0.7614   39.0866 C.3     1  UNL1        0.0700
     14 O           0.0944    2.4663   38.7987 O.co2   1  UNL1       -0.5491
     15 C           0.9399    1.5978   39.6821 C.2     1  UNL1        0.0524
     16 O           0.6919    1.5655   41.1611 O.co2   1  UNL1       -0.5491
     17 O           7.4318   -3.6551   31.4227 O.3     1  UNL1       -0.4535
     18 C           7.1548   -3.6328   29.9487 C.ar    1  UNL1        0.1454
     19 C           6.7607   -4.8950   29.2404 C.ar    1  UNL1        0.0384
     20 C           6.4838   -4.8726   27.7663 C.ar    1  UNL1        0.0145
     21 C           6.6010   -3.5881   27.0006 C.ar    1  UNL1        0.0579
     22 CL          6.3240   -3.5658   25.5266 Cl      1  UNL1       -0.0822
     23 C           6.9951   -2.3260   27.7089 C.ar    1  UNL1        0.0145
     24 C           7.2720   -2.3483   29.1829 C.ar    1  UNL1        0.0384
@<TRIPOS>UNITY_ATOM_ATTR
14 1
charge -1
@<TRIPOS>BOND
     1    14    15   ar
     2    15    16   ar
     3    15    13    1
     4    13    12    1
     5    12     7    1
     6     7     8   ar
     7     8     9   ar
     8     9    10   ar
     9    10     1    1
    10     1     2   ar
    11     2     3   ar
    12     3     4   ar
    13     4    17    1
    14    17    18    1
    15    18    19   ar
    16    19    20   ar
    17    20    21   ar
    18    21    22    1
    19    21    23   ar
    20    23    24   ar
    21     4     5   ar
    22     5     6   ar
    23    10    11   ar
    24    11     7   ar
    25     6     1   ar
    26    24    18   ar
@<TRIPOS>MOLECULE
*****
 24 26 0 0 0
SMALL
GASTEIGER

@<TRIPOS>ATOM
      1 C         -15.3700   -0.7789   19.5234 C.ar    1  UNL1        0.0395
      2 C         -14.8319   -2.1287   19.8952 C.ar    1  UNL1        0.0063
      3 C         -13.4819   -2.5594   19.4031 C.ar    1  UNL1        0.0376
      4 C         -12.6701   -1.6402   18.5394 C.ar    1  UNL1        0.1453
      5 C         -13.2083   -0.2903   18.1676 C.ar    1  UNL1        0.0376
      6 C         -14.5583    0.1403   18.6597 C.ar    1  UNL1        0.0063
      7 N         -18.5929    1.0330   20.7050 N.ar    1  UNL1       -0.1506
      8 N         -19.0020   -0.4039   20.8402 N.ar    1  UNL1       -0.0451
      9 N         -17.8445   -1.2574   20.4140 N.ar    1  UNL1       -0.1077
     10 C         -16.7201   -0.3481   20.0155 C.ar    1  UNL1        0.2058
     11 N         -17.1826    1.0674   20.1953 N.ar    1  UNL1       -0.1297
     12 C         -19.4446    2.2259   21.0237 C.3     1  UNL1        0.1572
     13 C         -19.1716    3.0343   22.2573 C.3     1  UNL1        0.0700
     14 O         -17.2648    1.9753   23.6687 O.co2   1  UNL1       -0.5491
     15 C         -18.7073    2.3552   23.5116 C.2     1  UNL1        0.0524
     16 O         -19.6855    2.0559   24.6086 O.co2   1  UNL1       -0.5491
     17 O         -11.3201   -2.0709   18.0473 O.3     1  UNL1       -0.4535
     18 C         -10.9486   -3.5241   18.0523 C.ar    1  UNL1        0.1454
     19 C          -9.9872   -4.0489   19.0771 C.ar    1  UNL1        0.0384
     20 C          -9.6157   -5.5023   19.0820 C.ar    1  UNL1        0.0145
     21 C         -10.2056   -6.4306   18.0622 C.ar    1  UNL1        0.0579
     22 CL         -9.8341   -7.8838   18.0672 Cl      1  UNL1       -0.0822
     23 C         -11.1670   -5.9058   17.0374 C.ar    1  UNL1        0.0145
     24 C         -11.5385   -4.4525   17.0324 C.ar    1  UNL1        0.0384
@<TRIPOS>UNITY_ATOM_ATTR
14 1
charge -1
@<TRIPOS>BOND
     1    14    15   ar
     2    15    16   ar
     3    15    13    1
     4    13    12    1
     5    12     7    1
     6     7     8   ar
     7     8     9   ar
     8     9    10   ar
     9    10     1    1
    10     1     2   ar
    11     2     3   ar
    12     3     4   ar
    13     4    17    1
    14    17    18    1
    15    18    19   ar
    16    19    20   ar
    17    20    21   ar
    18    21    22    1
    19    21    23   ar
    20    23    24   ar
    21     4     5   ar
    22     5     6   ar
    23    10    11   ar
    24    11     7   ar
    25     6     1   ar
    26    24    18   ar
