@<TRIPOS>MOLECULE
*****
 30 34 0 0 0
SMALL
GASTEIGER

@<TRIPOS>ATOM
      1 C           2.4218   -0.6825   20.1829 C.ar    1  UNL1        0.0004
      2 C           2.2346   -0.2734   18.7520 C.ar    1  UNL1        0.0031
      3 C           1.4263    0.9458   18.4202 C.ar    1  UNL1        0.0370
      4 C           0.8052    1.7559   19.5193 C.ar    1  UNL1        0.1415
      5 C           0.9925    1.3468   20.9502 C.ar    1  UNL1        0.0699
      6 C           1.8008    0.1275   21.2820 C.ar    1  UNL1        0.0061
      7 C           0.4640    2.0076   22.1887 C.ar    1  UNL1        0.1704
      8 N           0.7245    1.4951   23.5742 N.ar    1  UNL1       -0.1273
      9 N           0.0392    2.4117   24.5440 N.ar    1  UNL1       -0.1127
     10 C          -0.6448    3.4906   23.7578 C.ar    1  UNL1        0.2224
     11 N          -0.3822    3.2409   22.3022 N.ar    1  UNL1       -0.2796
     12 C          -0.9090    4.1179   21.2052 C.3     1  UNL1        0.1574
     13 C          -0.7197    3.9783   19.7238 C.3     1  UNL1        0.2299
     14 O           0.0433    2.9270   18.9735 O.3     1  UNL1       -0.4733
     15 C           4.5335   -5.2089   18.7500 C.3     1  UNL1        0.0521
     16 C           4.2860   -4.1650   19.7983 C.ar    1  UNL1        0.0594
     17 C           3.4777   -2.9457   19.4665 C.ar    1  UNL1        0.0147
     18 C           3.2302   -1.9018   20.5147 C.ar    1  UNL1        0.0027
     19 C           3.7910   -2.0770   21.8949 C.ar    1  UNL1        0.0207
     20 C           4.5993   -3.2962   22.2267 C.ar    1  UNL1        0.0984
     21 N           4.8468   -4.3403   21.1784 N.ar    1  UNL1       -0.2481
     22 N          -1.4499    4.6208   24.3274 N.pl3   1  UNL1       -0.2826
     23 H          -1.0098    5.4699   24.5611 H       1  UNL1        0.1551
     24 C          -2.9256    4.4575   24.5408 C.ar    1  UNL1        0.0513
     25 C          -3.7383    3.6487   23.5736 C.ar    1  UNL1        0.0147
     26 C          -5.2141    3.4854   23.7871 C.ar    1  UNL1        0.0021
     27 C          -5.8770    4.1309   24.9677 C.ar    1  UNL1        0.0115
     28 C          -5.0644    4.9396   25.9349 C.ar    1  UNL1        0.0589
     29 CL         -5.7273    5.5850   27.1155 Cl      1  UNL1       -0.0822
     30 C          -3.5886    5.1029   25.7214 C.ar    1  UNL1        0.0261
@<TRIPOS>BOND
     1    15    16    1
     2    16    17   ar
     3    17    18   ar
     4    18     1    1
     5     1     2   ar
     6     2     3   ar
     7     3     4   ar
     8     4     5   ar
     9     5     6   ar
    10     5     7    1
    11     7     8   ar
    12     8     9   ar
    13     9    10   ar
    14    10    22    1
    15    22    24    1
    16    24    25   ar
    17    25    26   ar
    18    26    27   ar
    19    27    28   ar
    20    28    29    1
    21    28    30   ar
    22    10    11   ar
    23    11    12    1
    24    12    13    1
    25    13    14    1
    26    18    19   ar
    27    19    20   ar
    28    20    21   ar
    29    21    16   ar
    30     6     1   ar
    31    11     7   ar
    32    14     4    1
    33    30    24   ar
    34    22    23    1
@<TRIPOS>MOLECULE
*****
 30 34 0 0 0
SMALL
GASTEIGER

@<TRIPOS>ATOM
      1 C           0.3038    1.8927   26.9717 C.ar    1  UNL1        0.0004
      2 C          -0.8130    2.8806   26.8073 C.ar    1  UNL1        0.0031
      3 C          -1.2747    3.2688   25.4340 C.ar    1  UNL1        0.0370
      4 C          -0.6197    2.6692   24.2251 C.ar    1  UNL1        0.1415
      5 C           0.4970    1.6814   24.3895 C.ar    1  UNL1        0.0699
      6 C           0.9587    1.2931   25.7628 C.ar    1  UNL1        0.0061
      7 C           1.2805    0.9701   23.3264 C.ar    1  UNL1        0.1704
      8 N           2.3827   -0.0029   23.6237 N.ar    1  UNL1       -0.1273
      9 N           2.9242   -0.5033   22.3174 N.ar    1  UNL1       -0.1127
     10 C           2.1566    0.1604   21.2128 C.ar    1  UNL1        0.2224
     11 N           1.1407    1.0710   21.8363 N.ar    1  UNL1       -0.2796
     12 C           0.1830    1.9081   21.0414 C.3     1  UNL1        0.1574
     13 C          -0.8715    2.8510   21.5401 C.3     1  UNL1        0.2299
     14 O          -1.2288    3.1898   22.9570 O.3     1  UNL1       -0.4733
     15 C           0.8287    2.9957   32.0223 C.3     1  UNL1        0.0521
     16 C           1.0280    2.0559   30.8704 C.ar    1  UNL1        0.0594
     17 C           0.5662    2.4442   29.4970 C.ar    1  UNL1        0.0147
     18 C           0.7656    1.5044   28.3451 C.ar    1  UNL1        0.0027
     19 C           1.4267    0.1763   28.5664 C.ar    1  UNL1        0.0207
     20 C           1.8885   -0.2121   29.9397 C.ar    1  UNL1        0.0984
     21 N           1.6891    0.7278   31.0917 N.ar    1  UNL1       -0.2481
     22 N           2.3679   -0.0497   19.7427 N.pl3   1  UNL1       -0.2826
     23 H           1.8425    0.4683   19.0909 H       1  UNL1        0.1551
     24 C           3.3796   -1.0491   19.2655 C.ar    1  UNL1        0.0513
     25 C           4.6272   -0.5825   18.5758 C.ar    1  UNL1        0.0147
     26 C           5.6389   -1.5820   18.0987 C.ar    1  UNL1        0.0021
     27 C           5.4029   -3.0479   18.3113 C.ar    1  UNL1        0.0115
     28 C           4.1553   -3.5145   19.0011 C.ar    1  UNL1        0.0589
     29 CL          3.9194   -4.9805   19.2137 Cl      1  UNL1       -0.0822
     30 C           3.1436   -2.5151   19.4782 C.ar    1  UNL1        0.0261
@<TRIPOS>BOND
     1    15    16    1
     2    16    17   ar
     3    17    18   ar
     4    18     1    1
     5     1     2   ar
     6     2     3   ar
     7     3     4   ar
     8     4     5   ar
     9     5     6   ar
    10     5     7    1
    11     7     8   ar
    12     8     9   ar
    13     9    10   ar
    14    10    22    1
    15    22    24    1
    16    24    25   ar
    17    25    26   ar
    18    26    27   ar
    19    27    28   ar
    20    28    29    1
    21    28    30   ar
    22    10    11   ar
    23    11    12    1
    24    12    13    1
    25    13    14    1
    26    18    19   ar
    27    19    20   ar
    28    20    21   ar
    29    21    16   ar
    30     6     1   ar
    31    11     7   ar
    32    14     4    1
    33    30    24   ar
    34    22    23    1
@<TRIPOS>MOLECULE
*****
 30 34 0 0 0
SMALL
GASTEIGER

@<TRIPOS>ATOM
      1 C         -11.1784   -3.0447   17.5180 C.ar    1  UNL1        0.0004
      2 C         -10.2839   -2.1846   16.6755 C.ar    1  UNL1        0.0031
      3 C         -10.6246   -0.7409   16.4524 C.ar    1  UNL1        0.0370
      4 C         -11.8598   -0.1575   17.0719 C.ar    1  UNL1        0.1415
      5 C         -12.7544   -1.0176   17.9144 C.ar    1  UNL1        0.0699
      6 C         -12.4137   -2.4612   18.1375 C.ar    1  UNL1        0.0061
      7 C         -14.0234   -0.6389   18.6186 C.ar    1  UNL1        0.1704
      8 N         -14.8329   -1.6005   19.4373 N.ar    1  UNL1       -0.1273
      9 N         -16.0211   -0.8624   19.9789 N.ar    1  UNL1       -0.1127
     10 C         -15.9460    0.5554   19.4949 C.ar    1  UNL1        0.2224
     11 N         -14.7114    0.6936   18.6543 N.ar    1  UNL1       -0.2796
     12 C         -14.3002    1.9764   17.9945 C.3     1  UNL1        0.1574
     13 C         -13.0995    2.2436   17.1361 C.3     1  UNL1        0.2299
     14 O         -12.0134    1.2939   16.7255 O.3     1  UNL1       -0.4733
     15 C         -11.6452   -8.0397   16.1644 C.3     1  UNL1        0.0521
     16 C         -11.0711   -6.9859   17.0643 C.ar    1  UNL1        0.0594
     17 C         -11.4118   -5.5422   16.8412 C.ar    1  UNL1        0.0147
     18 C         -10.8377   -4.4884   17.7411 C.ar    1  UNL1        0.0027
     19 C          -9.9230   -4.8783   18.8642 C.ar    1  UNL1        0.0207
     20 C          -9.5823   -6.3219   19.0873 C.ar    1  UNL1        0.0984
     21 N         -10.1564   -7.3758   18.1874 N.ar    1  UNL1       -0.2481
     22 N         -16.9325    1.6440   19.7984 N.pl3   1  UNL1       -0.2826
     23 H         -17.6709    1.8272   19.1737 H       1  UNL1        0.1551
     24 C         -16.7938    2.4532   21.0537 C.ar    1  UNL1        0.0513
     25 C         -17.5138    2.0326   22.3006 C.ar    1  UNL1        0.0147
     26 C         -17.3751    2.8420   23.5559 C.ar    1  UNL1        0.0021
     27 C         -16.5164    4.0718   23.5643 C.ar    1  UNL1        0.0115
     28 C         -15.7965    4.4925   22.3174 C.ar    1  UNL1        0.0589
     29 CL        -14.9378    5.7223   22.3258 Cl      1  UNL1       -0.0822
     30 C         -15.9352    3.6831   21.0621 C.ar    1  UNL1        0.0261
@<TRIPOS>BOND
     1    15    16    1
     2    16    17   ar
     3    17    18   ar
     4    18     1    1
     5     1     2   ar
     6     2     3   ar
     7     3     4   ar
     8     4     5   ar
     9     5     6   ar
    10     5     7    1
    11     7     8   ar
    12     8     9   ar
    13     9    10   ar
    14    10    22    1
    15    22    24    1
    16    24    25   ar
    17    25    26   ar
    18    26    27   ar
    19    27    28   ar
    20    28    29    1
    21    28    30   ar
    22    10    11   ar
    23    11    12    1
    24    12    13    1
    25    13    14    1
    26    18    19   ar
    27    19    20   ar
    28    20    21   ar
    29    21    16   ar
    30     6     1   ar
    31    11     7   ar
    32    14     4    1
    33    30    24   ar
    34    22    23    1
@<TRIPOS>MOLECULE
*****
 30 34 0 0 0
SMALL
GASTEIGER

@<TRIPOS>ATOM
      1 C           4.6790    1.5148   36.4606 C.ar    1  UNL1        0.0004
      2 C           5.9306    2.3232   36.6337 C.ar    1  UNL1        0.0031
      3 C           7.1821    1.9334   35.9045 C.ar    1  UNL1        0.0370
      4 C           7.1819    0.7352   35.0021 C.ar    1  UNL1        0.1415
      5 C           5.9303   -0.0732   34.8290 C.ar    1  UNL1        0.0699
      6 C           4.6789    0.3166   35.5582 C.ar    1  UNL1        0.0061
      7 C           5.7148   -1.2940   33.9846 C.ar    1  UNL1        0.1704
      8 N           4.4035   -2.0170   33.8966 N.ar    1  UNL1       -0.1273
      9 N           4.5759   -3.1778   32.9623 N.ar    1  UNL1       -0.1127
     10 C           5.9937   -3.1722   32.4729 C.ar    1  UNL1        0.2224
     11 N           6.6976   -2.0080   33.1047 N.ar    1  UNL1       -0.2796
     12 C           8.1388   -1.6775   32.8519 C.3     1  UNL1        0.1574
     13 C           8.9530   -0.5514   33.4165 C.3     1  UNL1        0.2299
     14 O           8.5271    0.5223   34.3735 O.3     1  UNL1       -0.4733
     15 C           0.9795    0.4340   39.9457 C.3     1  UNL1        0.0521
     16 C           1.5777    1.3643   38.9325 C.ar    1  UNL1        0.0594
     17 C           2.8293    0.9744   38.2032 C.ar    1  UNL1        0.0147
     18 C           3.4275    1.9047   37.1899 C.ar    1  UNL1        0.0027
     19 C           2.7743    3.2247   36.9059 C.ar    1  UNL1        0.0207
     20 C           1.5228    3.6146   37.6351 C.ar    1  UNL1        0.0984
     21 N           0.9245    2.6843   38.6484 N.ar    1  UNL1       -0.2481
     22 N           6.6010   -4.1579   31.5191 N.pl3   1  UNL1       -0.2826
     23 H           7.0213   -4.9796   31.8618 H       1  UNL1        0.1551
     24 C           6.5680   -3.8917   30.0433 C.ar    1  UNL1        0.0513
     25 C           6.4882   -2.4820   29.5371 C.ar    1  UNL1        0.0147
     26 C           6.4552   -2.2158   28.0613 C.ar    1  UNL1        0.0021
     27 C           6.5020   -3.3593   27.0917 C.ar    1  UNL1        0.0115
     28 C           6.5818   -4.7691   27.5979 C.ar    1  UNL1        0.0589
     29 CL          6.6286   -5.9126   26.6284 Cl      1  UNL1       -0.0822
     30 C           6.6148   -5.0352   29.0738 C.ar    1  UNL1        0.0261
@<TRIPOS>BOND
     1    15    16    1
     2    16    17   ar
     3    17    18   ar
     4    18     1    1
     5     1     2   ar
     6     2     3   ar
     7     3     4   ar
     8     4     5   ar
     9     5     6   ar
    10     5     7    1
    11     7     8   ar
    12     8     9   ar
    13     9    10   ar
    14    10    22    1
    15    22    24    1
    16    24    25   ar
    17    25    26   ar
    18    26    27   ar
    19    27    28   ar
    20    28    29    1
    21    28    30   ar
    22    10    11   ar
    23    11    12    1
    24    12    13    1
    25    13    14    1
    26    18    19   ar
    27    19    20   ar
    28    20    21   ar
    29    21    16   ar
    30     6     1   ar
    31    11     7   ar
    32    14     4    1
    33    30    24   ar
    34    22    23    1
@<TRIPOS>MOLECULE
*****
 30 34 0 0 0
SMALL
GASTEIGER

@<TRIPOS>ATOM
      1 C         -14.4367   -6.6971   18.8643 C.ar    1  UNL1        0.0004
      2 C         -12.9490   -6.8285   19.0030 C.ar    1  UNL1        0.0031
      3 C         -12.0882   -5.6008   19.0446 C.ar    1  UNL1        0.0370
      4 C         -12.7153   -4.2416   18.9476 C.ar    1  UNL1        0.1415
      5 C         -14.2030   -4.1101   18.8090 C.ar    1  UNL1        0.0699
      6 C         -15.0637   -5.3379   18.7673 C.ar    1  UNL1        0.0061
      7 C         -15.0252   -2.8605   18.6976 C.ar    1  UNL1        0.1704
      8 N         -16.5190   -2.8634   18.5624 N.ar    1  UNL1       -0.1273
      9 N         -16.9797   -1.4383   18.4785 N.ar    1  UNL1       -0.1127
     10 C         -15.7705   -0.5547   18.5619 C.ar    1  UNL1        0.2224
     11 N         -14.5625   -1.4336   18.6973 N.ar    1  UNL1       -0.2796
     12 C         -13.1635   -0.9040   18.8084 C.3     1  UNL1        0.1574
     13 C         -11.8816   -1.6704   18.9471 C.3     1  UNL1        0.2299
     14 O         -11.6822   -3.1558   19.0091 O.3     1  UNL1       -0.4733
     15 C         -18.9163   -9.0916   19.9598 C.3     1  UNL1        0.0521
     16 C         -17.5373   -9.1221   19.3704 C.ar    1  UNL1        0.0594
     17 C         -16.6765   -7.8943   19.4121 C.ar    1  UNL1        0.0147
     18 C         -15.2975   -7.9248   18.8226 C.ar    1  UNL1        0.0027
     19 C         -14.7793   -9.1831   18.1915 C.ar    1  UNL1        0.0207
     20 C         -15.6400  -10.4108   18.1498 C.ar    1  UNL1        0.0984
     21 N         -17.0190  -10.3803   18.7393 N.ar    1  UNL1       -0.2481
     22 N         -15.7695    0.9447   18.5177 N.pl3   1  UNL1       -0.2826
     23 H         -15.5435    1.4123   17.6813 H       1  UNL1        0.1551
     24 C         -16.1129    1.7316   19.7476 C.ar    1  UNL1        0.0513
     25 C         -16.9908    1.1278   20.8035 C.ar    1  UNL1        0.0147
     26 C         -17.3342    1.9148   22.0334 C.ar    1  UNL1        0.0021
     27 C         -16.7997    3.3055   22.2075 C.ar    1  UNL1        0.0115
     28 C         -15.9219    3.9093   21.1517 C.ar    1  UNL1        0.0589
     29 CL        -15.3874    5.2999   21.3257 Cl      1  UNL1       -0.0822
     30 C         -15.5785    3.1223   19.9217 C.ar    1  UNL1        0.0261
@<TRIPOS>BOND
     1    15    16    1
     2    16    17   ar
     3    17    18   ar
     4    18     1    1
     5     1     2   ar
     6     2     3   ar
     7     3     4   ar
     8     4     5   ar
     9     5     6   ar
    10     5     7    1
    11     7     8   ar
    12     8     9   ar
    13     9    10   ar
    14    10    22    1
    15    22    24    1
    16    24    25   ar
    17    25    26   ar
    18    26    27   ar
    19    27    28   ar
    20    28    29    1
    21    28    30   ar
    22    10    11   ar
    23    11    12    1
    24    12    13    1
    25    13    14    1
    26    18    19   ar
    27    19    20   ar
    28    20    21   ar
    29    21    16   ar
    30     6     1   ar
    31    11     7   ar
    32    14     4    1
    33    30    24   ar
    34    22    23    1
@<TRIPOS>MOLECULE
*****
 30 34 0 0 0
SMALL
GASTEIGER

@<TRIPOS>ATOM
      1 C           3.5596   -1.7445   21.7818 C.ar    1  UNL1        0.0004
      2 C           4.0529   -2.5747   20.6341 C.ar    1  UNL1        0.0031
      3 C           5.1835   -3.5392   20.8376 C.ar    1  UNL1        0.0370
      4 C           5.8207   -3.6735   22.1889 C.ar    1  UNL1        0.1415
      5 C           5.3274   -2.8433   23.3366 C.ar    1  UNL1        0.0699
      6 C           4.1968   -1.8788   23.1331 C.ar    1  UNL1        0.0061
      7 C           5.8177   -2.8217   24.7540 C.ar    1  UNL1        0.1704
      8 N           5.2349   -1.9380   25.8167 N.ar    1  UNL1       -0.1273
      9 N           5.9796   -2.1951   27.0932 N.ar    1  UNL1       -0.1127
     10 C           7.0226   -3.2377   26.8194 C.ar    1  UNL1        0.2224
     11 N           6.9226   -3.6250   25.3737 N.ar    1  UNL1       -0.2796
     12 C           7.8100   -4.6483   24.7291 C.3     1  UNL1        0.1574
     13 C           7.8116   -5.1210   23.3056 C.3     1  UNL1        0.2299
     14 O           6.9263   -4.6872   22.1751 O.3     1  UNL1       -0.4733
     15 C           0.6183    2.1721   23.5167 C.3     1  UNL1        0.0521
     16 C           0.9583    1.1784   22.4458 C.ar    1  UNL1        0.0594
     17 C           2.0889    0.2138   22.6493 C.ar    1  UNL1        0.0147
     18 C           2.4290   -0.7799   21.5784 C.ar    1  UNL1        0.0027
     19 C           1.6384   -0.8090   20.3039 C.ar    1  UNL1        0.0207
     20 C           0.5079    0.1555   20.1004 C.ar    1  UNL1        0.0984
     21 N           0.1678    1.1492   21.1714 N.ar    1  UNL1       -0.2481
     22 N           7.9949   -3.7951   27.8164 N.pl3   1  UNL1       -0.2826
     23 H           8.9174   -4.0019   27.5417 H       1  UNL1        0.1551
     24 C           7.5617   -4.0375   29.2319 C.ar    1  UNL1        0.0513
     25 C           7.4393   -5.4403   29.7489 C.ar    1  UNL1        0.0147
     26 C           7.0061   -5.6826   31.1645 C.ar    1  UNL1        0.0021
     27 C           6.6954   -4.5223   32.0628 C.ar    1  UNL1        0.0115
     28 C           6.8178   -3.1196   31.5457 C.ar    1  UNL1        0.0589
     29 CL          6.5070   -1.9593   32.4440 Cl      1  UNL1       -0.0822
     30 C           7.2510   -2.8772   30.1302 C.ar    1  UNL1        0.0261
@<TRIPOS>BOND
     1    15    16    1
     2    16    17   ar
     3    17    18   ar
     4    18     1    1
     5     1     2   ar
     6     2     3   ar
     7     3     4   ar
     8     4     5   ar
     9     5     6   ar
    10     5     7    1
    11     7     8   ar
    12     8     9   ar
    13     9    10   ar
    14    10    22    1
    15    22    24    1
    16    24    25   ar
    17    25    26   ar
    18    26    27   ar
    19    27    28   ar
    20    28    29    1
    21    28    30   ar
    22    10    11   ar
    23    11    12    1
    24    12    13    1
    25    13    14    1
    26    18    19   ar
    27    19    20   ar
    28    20    21   ar
    29    21    16   ar
    30     6     1   ar
    31    11     7   ar
    32    14     4    1
    33    30    24   ar
    34    22    23    1
@<TRIPOS>MOLECULE
*****
 30 34 0 0 0
SMALL
GASTEIGER

@<TRIPOS>ATOM
      1 C           3.0541   -0.9010   22.4894 C.ar    1  UNL1        0.0004
      2 C           2.9773   -0.5910   23.9550 C.ar    1  UNL1        0.0031
      3 C           2.1166    0.5383   24.4385 C.ar    1  UNL1        0.0370
      4 C           1.3328    1.3576   23.4565 C.ar    1  UNL1        0.1415
      5 C           1.4096    1.0476   21.9909 C.ar    1  UNL1        0.0699
      6 C           2.2703   -0.0817   21.5074 C.ar    1  UNL1        0.0061
      7 C           0.7153    1.7339   20.8521 C.ar    1  UNL1        0.1704
      8 N           0.8769    1.3243   19.4182 N.ar    1  UNL1       -0.1273
      9 N           0.0340    2.2370   18.5776 N.ar    1  UNL1       -0.1127
     10 C          -0.6485    3.2106   19.4920 C.ar    1  UNL1        0.2224
     11 N          -0.2275    2.8997   20.8977 N.ar    1  UNL1       -0.2796
     12 C          -0.7087    3.6672   22.0933 C.3     1  UNL1        0.1574
     13 C          -0.3661    3.4584   23.5386 C.3     1  UNL1        0.2299
     14 O           0.5425    2.4305   24.1453 O.3     1  UNL1       -0.4733
     15 C           4.7737   -3.9096   18.6175 C.3     1  UNL1        0.0521
     16 C           4.7746   -3.5346   20.0698 C.ar    1  UNL1        0.0594
     17 C           3.9139   -2.4053   20.5534 C.ar    1  UNL1        0.0147
     18 C           3.9148   -2.0304   22.0058 C.ar    1  UNL1        0.0027
     19 C           4.7764   -2.7847   22.9746 C.ar    1  UNL1        0.0207
     20 C           5.6371   -3.9140   22.4911 C.ar    1  UNL1        0.0984
     21 N           5.6362   -4.2890   21.0386 N.ar    1  UNL1       -0.2481
     22 N          -1.5872    4.3033   19.0739 N.pl3   1  UNL1       -0.2826
     23 H          -1.2308    5.1723   18.7789 H       1  UNL1        0.1551
     24 C          -3.0690    4.0721   19.1053 C.ar    1  UNL1        0.0513
     25 C          -3.8225    3.8620   17.8255 C.ar    1  UNL1        0.0147
     26 C          -5.3043    3.6307   17.8570 C.ar    1  UNL1        0.0021
     27 C          -6.0324    3.6096   19.1682 C.ar    1  UNL1        0.0115
     28 C          -5.2788    3.8197   20.4481 C.ar    1  UNL1        0.0589
     29 CL         -6.0068    3.7985   21.7593 Cl      1  UNL1       -0.0822
     30 C          -3.7970    4.0509   20.4166 C.ar    1  UNL1        0.0261
@<TRIPOS>BOND
     1    15    16    1
     2    16    17   ar
     3    17    18   ar
     4    18     1    1
     5     1     2   ar
     6     2     3   ar
     7     3     4   ar
     8     4     5   ar
     9     5     6   ar
    10     5     7    1
    11     7     8   ar
    12     8     9   ar
    13     9    10   ar
    14    10    22    1
    15    22    24    1
    16    24    25   ar
    17    25    26   ar
    18    26    27   ar
    19    27    28   ar
    20    28    29    1
    21    28    30   ar
    22    10    11   ar
    23    11    12    1
    24    12    13    1
    25    13    14    1
    26    18    19   ar
    27    19    20   ar
    28    20    21   ar
    29    21    16   ar
    30     6     1   ar
    31    11     7   ar
    32    14     4    1
    33    30    24   ar
    34    22    23    1
@<TRIPOS>MOLECULE
*****
 30 34 0 0 0
SMALL
GASTEIGER

@<TRIPOS>ATOM
      1 C           3.0738   -0.7096   21.5562 C.ar    1  UNL1        0.0004
      2 C           3.5466   -1.1801   22.8997 C.ar    1  UNL1        0.0031
      3 C           2.9735   -0.5795   24.1490 C.ar    1  UNL1        0.0370
      4 C           1.9276    0.4916   24.0548 C.ar    1  UNL1        0.1415
      5 C           1.4547    0.9620   22.7113 C.ar    1  UNL1        0.0699
      6 C           2.0278    0.3614   21.4620 C.ar    1  UNL1        0.0061
      7 C           0.4291    2.0098   22.3950 C.ar    1  UNL1        0.1704
      8 N           0.0419    2.3919   20.9971 N.ar    1  UNL1       -0.1273
      9 N          -1.0035    3.4643   21.0823 N.ar    1  UNL1       -0.1127
     10 C          -1.2623    3.7450   22.5329 C.ar    1  UNL1        0.2224
     11 N          -0.3770    2.8461   23.3442 N.ar    1  UNL1       -0.2796
     12 C          -0.3565    2.8410   24.8440 C.3     1  UNL1        0.1574
     13 C           0.4750    1.9984   25.7652 C.3     1  UNL1        0.2299
     14 O           1.4916    0.9528   25.4139 O.3     1  UNL1       -0.4733
     15 C           4.5507   -4.8844   18.8376 C.3     1  UNL1        0.0521
     16 C           4.3854   -3.3976   18.9475 C.ar    1  UNL1        0.0594
     17 C           3.8123   -2.7970   20.1969 C.ar    1  UNL1        0.0147
     18 C           3.6469   -1.3102   20.3068 C.ar    1  UNL1        0.0027
     19 C           4.0545   -0.4240   19.1673 C.ar    1  UNL1        0.0207
     20 C           4.6276   -1.0245   17.9180 C.ar    1  UNL1        0.0984
     21 N           4.7930   -2.5113   17.8080 N.ar    1  UNL1       -0.2481
     22 N          -2.2357    4.7484   23.0766 N.pl3   1  UNL1       -0.2826
     23 H          -1.9065    5.5692   23.5093 H       1  UNL1        0.1551
     24 C          -3.7108    4.5014   22.9612 C.ar    1  UNL1        0.0513
     25 C          -4.5342    4.2869   24.1965 C.ar    1  UNL1        0.0147
     26 C          -6.0092    4.0398   24.0810 C.ar    1  UNL1        0.0021
     27 C          -6.6607    4.0073   22.7303 C.ar    1  UNL1        0.0115
     28 C          -5.8373    4.2218   21.4950 C.ar    1  UNL1        0.0589
     29 CL         -6.4888    4.1893   20.1443 Cl      1  UNL1       -0.0822
     30 C          -4.3622    4.4689   21.6105 C.ar    1  UNL1        0.0261
@<TRIPOS>BOND
     1    15    16    1
     2    16    17   ar
     3    17    18   ar
     4    18     1    1
     5     1     2   ar
     6     2     3   ar
     7     3     4   ar
     8     4     5   ar
     9     5     6   ar
    10     5     7    1
    11     7     8   ar
    12     8     9   ar
    13     9    10   ar
    14    10    22    1
    15    22    24    1
    16    24    25   ar
    17    25    26   ar
    18    26    27   ar
    19    27    28   ar
    20    28    29    1
    21    28    30   ar
    22    10    11   ar
    23    11    12    1
    24    12    13    1
    25    13    14    1
    26    18    19   ar
    27    19    20   ar
    28    20    21   ar
    29    21    16   ar
    30     6     1   ar
    31    11     7   ar
    32    14     4    1
    33    30    24   ar
    34    22    23    1
@<TRIPOS>MOLECULE
*****
 30 34 0 0 0
SMALL
GASTEIGER

@<TRIPOS>ATOM
      1 C          -1.8862    3.2359   24.9681 C.ar    1  UNL1        0.0004
      2 C          -0.9167    3.6045   23.8846 C.ar    1  UNL1        0.0031
      3 C           0.5138    3.1627   23.9760 C.ar    1  UNL1        0.0370
      4 C           0.9748    2.3522   25.1510 C.ar    1  UNL1        0.1415
      5 C           0.0053    1.9835   26.2345 C.ar    1  UNL1        0.0699
      6 C          -1.4252    2.4253   26.1431 C.ar    1  UNL1        0.0061
      7 C           0.2545    1.1884   27.4817 C.ar    1  UNL1        0.1704
      8 N          -0.8090    0.8860   28.4954 N.ar    1  UNL1       -0.1273
      9 N          -0.1858    0.0762   29.5936 N.ar    1  UNL1       -0.1127
     10 C           1.2628   -0.1219   29.2586 C.ar    1  UNL1        0.2224
     11 N           1.5350    0.5655   27.9535 N.ar    1  UNL1       -0.2796
     12 C           2.8824    0.5839   27.2945 C.3     1  UNL1        0.1574
     13 C           3.2821    1.2298   26.0011 C.3     1  UNL1        0.2299
     14 O           2.4331    2.0168   25.0471 O.3     1  UNL1       -0.4733
     15 C          -6.2070    3.9449   22.1702 C.3     1  UNL1        0.0521
     16 C          -5.4772    4.0322   23.4777 C.ar    1  UNL1        0.0594
     17 C          -4.0466    3.5904   23.5691 C.ar    1  UNL1        0.0147
     18 C          -3.3168    3.6777   24.8767 C.ar    1  UNL1        0.0027
     19 C          -4.0175    4.2068   26.0928 C.ar    1  UNL1        0.0207
     20 C          -5.4480    4.6487   26.0014 C.ar    1  UNL1        0.0984
     21 N          -6.1779    4.5614   24.6938 N.ar    1  UNL1       -0.2481
     22 N           2.2635   -0.8751   30.0841 N.pl3   1  UNL1       -0.2826
     23 H           2.5668   -1.7667   29.7972 H       1  UNL1        0.1551
     24 C           2.8021   -0.2699   31.3465 C.ar    1  UNL1        0.0513
     25 C           2.3530    1.0958   31.7744 C.ar    1  UNL1        0.0147
     26 C           2.8917    1.7010   33.0369 C.ar    1  UNL1        0.0021
     27 C           3.8793    0.9404   33.8712 C.ar    1  UNL1        0.0115
     28 C           4.3283   -0.4253   33.4432 C.ar    1  UNL1        0.0589
     29 CL          5.3159   -1.1858   34.2776 Cl      1  UNL1       -0.0822
     30 C           3.7897   -1.0304   32.1808 C.ar    1  UNL1        0.0261
@<TRIPOS>BOND
     1    15    16    1
     2    16    17   ar
     3    17    18   ar
     4    18     1    1
     5     1     2   ar
     6     2     3   ar
     7     3     4   ar
     8     4     5   ar
     9     5     6   ar
    10     5     7    1
    11     7     8   ar
    12     8     9   ar
    13     9    10   ar
    14    10    22    1
    15    22    24    1
    16    24    25   ar
    17    25    26   ar
    18    26    27   ar
    19    27    28   ar
    20    28    29    1
    21    28    30   ar
    22    10    11   ar
    23    11    12    1
    24    12    13    1
    25    13    14    1
    26    18    19   ar
    27    19    20   ar
    28    20    21   ar
    29    21    16   ar
    30     6     1   ar
    31    11     7   ar
    32    14     4    1
    33    30    24   ar
    34    22    23    1
