@<TRIPOS>MOLECULE
*****
 28 31 0 0 0
SMALL
GASTEIGER

@<TRIPOS>ATOM
      1 C          -7.7967  -17.5306   23.1603 C.3     1  UNL1        0.2085
      2 S          -7.9937  -18.6854   22.2234 S.3     1  UNL1       -0.0753
      3 C          -6.8093  -19.3231   21.5596 C.ar    1  UNL1        0.0443
      4 C          -7.0063  -20.4779   20.6227 C.ar    1  UNL1        0.0077
      5 C          -5.8219  -21.1155   19.9590 C.ar    1  UNL1        0.0006
      6 C          -4.4406  -20.5985   20.2321 C.ar    1  UNL1        0.0015
      7 C          -4.2436  -19.4437   21.1689 C.ar    1  UNL1        0.0182
      8 C          -5.4280  -18.8061   21.8327 C.ar    1  UNL1        0.0768
      9 N          -5.2310  -17.6513   22.7696 N.ar    1  UNL1       -0.2242
     10 C          -6.4154  -17.0136   23.4334 C.ar    1  UNL1        0.2069
     11 N          -5.9147  -15.8986   24.3029 N.ar    1  UNL1       -0.0545
     12 O          -4.4209  -15.8471   24.1764 O.2     1  UNL1       -0.2950
     13 C          -3.9984  -16.9304   23.2288 C.ar    1  UNL1        0.4472
     14 O          -2.5904  -17.2386   22.8133 O.2     1  UNL1       -0.2203
     15 C         -12.2757  -17.9265   23.3387 C.ar    1  UNL1        0.1387
     16 C         -11.4039  -19.0494   23.8171 C.ar    1  UNL1        0.0367
     17 C          -9.9109  -18.9175   23.7577 C.ar    1  UNL1        0.0024
     18 C          -9.2896  -17.6626   23.2197 C.ar    1  UNL1        0.0191
     19 C         -10.1615  -16.5397   22.7413 C.ar    1  UNL1        0.0024
     20 C         -11.6545  -16.6716   22.8008 C.ar    1  UNL1        0.0367
     21 C         -14.4462  -18.3273   24.7091 C.3     1  UNL1        0.2525
     22 O         -13.7687  -18.0584   23.3981 O.3     1  UNL1       -0.4714
     23 O          -8.1182  -16.4217   24.1178 O.3     1  UNL1       -0.3293
     24 C          -8.5430  -16.7414   25.5204 C.3     1  UNL1        0.2470
     25 C          -8.5747  -15.6600   26.5594 C.3     1  UNL1        0.4249
     26 F          -8.6064  -14.5786   27.5985 F       1  UNL1       -0.1674
     27 F          -9.2801  -14.7536   25.5947 F       1  UNL1       -0.1674
     28 F          -7.8693  -16.5664   27.5242 F       1  UNL1       -0.1674
@<TRIPOS>BOND
     1    21    22    1
     2    22    15    1
     3    15    16   ar
     4    16    17   ar
     5    17    18   ar
     6    18     1    1
     7     1    23    1
     8    23    24    1
     9    24    25    1
    10    25    26    1
    11    25    27    1
    12    25    28    1
    13     1     2    1
    14     2     3    1
    15     3     4   ar
    16     4     5   ar
    17     5     6   ar
    18     6     7   ar
    19     7     8   ar
    20     8     9    1
    21     9    10   ar
    22    10    11   ar
    23    11    12   ar
    24    12    13   ar
    25    13    14    2
    26    18    19   ar
    27    19    20   ar
    28    20    15   ar
    29    10     1    1
    30     8     3   ar
    31    13     9   ar
@<TRIPOS>MOLECULE
*****
 28 31 0 0 0
SMALL
GASTEIGER

@<TRIPOS>ATOM
      1 C          -8.5141  -18.2653   22.1538 C.3     1  UNL1        0.2085
      2 S          -7.0530  -18.3474   22.4829 S.3     1  UNL1       -0.0753
      3 C          -6.1245  -19.1136   21.5880 C.ar    1  UNL1        0.0443
      4 C          -4.6634  -19.1958   21.9171 C.ar    1  UNL1        0.0077
      5 C          -3.7350  -19.9620   21.0221 C.ar    1  UNL1        0.0006
      6 C          -4.2677  -20.6461   19.7981 C.ar    1  UNL1        0.0015
      7 C          -5.7288  -20.5639   19.4690 C.ar    1  UNL1        0.0182
      8 C          -6.6572  -19.7977   20.3639 C.ar    1  UNL1        0.0768
      9 N          -8.1184  -19.7156   20.0349 N.ar    1  UNL1       -0.2242
     10 C          -9.0468  -18.9493   20.9298 C.ar    1  UNL1        0.2069
     11 N         -10.4285  -19.0431   20.3535 N.ar    1  UNL1       -0.0545
     12 O         -10.3540  -19.8673   19.1024 O.2     1  UNL1       -0.2950
     13 C          -8.9263  -20.2829   18.9055 C.ar    1  UNL1        0.4472
     14 O          -8.3990  -21.1190   17.7773 O.2     1  UNL1       -0.2203
     15 C          -8.4279  -15.8342   25.9396 C.ar    1  UNL1        0.1387
     16 C          -7.6752  -15.3652   24.7299 C.ar    1  UNL1        0.0367
     17 C          -7.7039  -16.1755   23.4679 C.ar    1  UNL1        0.0024
     18 C          -8.4854  -17.4549   23.4157 C.ar    1  UNL1        0.0191
     19 C          -9.2380  -17.9238   24.6255 C.ar    1  UNL1        0.0024
     20 C          -9.2093  -17.1135   25.8874 C.ar    1  UNL1        0.0367
     21 C          -7.0917  -14.7350   27.8777 C.3     1  UNL1        0.2525
     22 O          -8.3991  -15.0238   27.2016 O.3     1  UNL1       -0.4714
     23 O          -9.9653  -17.9017   22.2629 O.3     1  UNL1       -0.3293
     24 C         -10.4471  -16.5765   21.7514 C.3     1  UNL1        0.2470
     25 C         -11.7570  -16.0206   22.2257 C.3     1  UNL1        0.4249
     26 F         -13.0670  -15.4648   22.7001 F       1  UNL1       -0.1674
     27 F         -12.4162  -16.4993   20.9662 F       1  UNL1       -0.1674
     28 F         -11.0978  -15.5420   23.4852 F       1  UNL1       -0.1674
@<TRIPOS>BOND
     1    21    22    1
     2    22    15    1
     3    15    16   ar
     4    16    17   ar
     5    17    18   ar
     6    18     1    1
     7     1    23    1
     8    23    24    1
     9    24    25    1
    10    25    26    1
    11    25    27    1
    12    25    28    1
    13     1     2    1
    14     2     3    1
    15     3     4   ar
    16     4     5   ar
    17     5     6   ar
    18     6     7   ar
    19     7     8   ar
    20     8     9    1
    21     9    10   ar
    22    10    11   ar
    23    11    12   ar
    24    12    13   ar
    25    13    14    2
    26    18    19   ar
    27    19    20   ar
    28    20    15   ar
    29    10     1    1
    30     8     3   ar
    31    13     9   ar
@<TRIPOS>MOLECULE
*****
 28 31 0 0 0
SMALL
GASTEIGER

@<TRIPOS>ATOM
      1 C          -8.5557  -17.7790   23.0547 C.3     1  UNL1        0.2085
      2 S          -8.7193  -16.9042   24.2621 S.3     1  UNL1       -0.0753
      3 C          -7.5218  -16.2414   24.8760 C.ar    1  UNL1        0.0443
      4 C          -7.6854  -15.3666   26.0834 C.ar    1  UNL1        0.0077
      5 C          -6.4880  -14.7038   26.6971 C.ar    1  UNL1        0.0006
      6 C          -5.1269  -14.9158   26.1034 C.ar    1  UNL1        0.0015
      7 C          -4.9632  -15.7906   24.8960 C.ar    1  UNL1        0.0182
      8 C          -6.1607  -16.4534   24.2823 C.ar    1  UNL1        0.0768
      9 N          -5.9971  -17.3282   23.0748 N.ar    1  UNL1       -0.2242
     10 C          -7.1945  -17.9910   22.4610 C.ar    1  UNL1        0.2069
     11 N          -6.7274  -18.7926   21.2824 N.ar    1  UNL1       -0.0545
     12 O          -5.2412  -18.6252   21.1677 O.2     1  UNL1       -0.2950
     13 C          -4.7898  -17.7201   22.2755 C.ar    1  UNL1        0.4472
     14 O          -3.3789  -17.2836   22.5379 O.2     1  UNL1       -0.2203
     15 C         -13.0051  -18.0923   23.6495 C.ar    1  UNL1        0.1387
     16 C         -12.1048  -19.1904   24.1327 C.ar    1  UNL1        0.0367
     17 C         -10.6216  -19.0860   23.9345 C.ar    1  UNL1        0.0024
     18 C         -10.0388  -17.8834   23.2530 C.ar    1  UNL1        0.0191
     19 C         -10.9392  -16.7854   22.7698 C.ar    1  UNL1        0.0024
     20 C         -12.4224  -16.8898   22.9680 C.ar    1  UNL1        0.0367
     21 C         -15.0417  -18.5482   25.1969 C.3     1  UNL1        0.2525
     22 O         -14.4884  -18.1967   23.8478 O.3     1  UNL1       -0.4714
     23 O          -8.9071  -18.6901   21.9161 O.3     1  UNL1       -0.3293
     24 C          -9.5339  -18.1304   20.6736 C.3     1  UNL1        0.2470
     25 C         -10.0976  -19.0553   19.6359 C.3     1  UNL1        0.4249
     26 F         -10.6612  -19.9801   18.5981 F       1  UNL1       -0.1674
     27 F          -8.7829  -19.0464   18.9138 F       1  UNL1       -0.1674
     28 F         -11.4123  -19.0642   20.3580 F       1  UNL1       -0.1674
@<TRIPOS>BOND
     1    21    22    1
     2    22    15    1
     3    15    16   ar
     4    16    17   ar
     5    17    18   ar
     6    18     1    1
     7     1    23    1
     8    23    24    1
     9    24    25    1
    10    25    26    1
    11    25    27    1
    12    25    28    1
    13     1     2    1
    14     2     3    1
    15     3     4   ar
    16     4     5   ar
    17     5     6   ar
    18     6     7   ar
    19     7     8   ar
    20     8     9    1
    21     9    10   ar
    22    10    11   ar
    23    11    12   ar
    24    12    13   ar
    25    13    14    2
    26    18    19   ar
    27    19    20   ar
    28    20    15   ar
    29    10     1    1
    30     8     3   ar
    31    13     9   ar
@<TRIPOS>MOLECULE
*****
 28 31 0 0 0
SMALL
GASTEIGER

@<TRIPOS>ATOM
      1 C         -14.5391   -6.1202   18.4486 C.3     1  UNL1        0.2085
      2 S         -15.5802   -5.0999   18.8022 S.3     1  UNL1       -0.0753
      3 C         -16.9818   -5.5349   19.1127 C.ar    1  UNL1        0.0443
      4 C         -18.0228   -4.5146   19.4663 C.ar    1  UNL1        0.0077
      5 C         -19.4243   -4.9497   19.7768 C.ar    1  UNL1        0.0006
      6 C         -19.7847   -6.4051   19.7338 C.ar    1  UNL1        0.0015
      7 C         -18.7437   -7.4254   19.3803 C.ar    1  UNL1        0.0182
      8 C         -17.3422   -6.9904   19.0697 C.ar    1  UNL1        0.0768
      9 N         -16.3010   -8.0107   18.7162 N.ar    1  UNL1       -0.2242
     10 C         -14.8995   -7.5756   18.4056 C.ar    1  UNL1        0.2069
     11 N         -14.0927   -8.8006   18.0919 N.ar    1  UNL1       -0.0545
     12 O         -14.9956   -9.9928   18.2086 O.2     1  UNL1       -0.2950
     13 C         -16.3604   -9.5046   18.5944 C.ar    1  UNL1        0.4472
     14 O         -17.5719  -10.3600   18.8190 O.2     1  UNL1       -0.2203
     15 C         -12.0761   -2.3640   18.1764 C.ar    1  UNL1        0.1387
     16 C         -12.3156   -3.1942   16.9503 C.ar    1  UNL1        0.0367
     17 C         -13.1366   -4.4464   17.0410 C.ar    1  UNL1        0.0024
     18 C         -13.7181   -4.8682   18.3579 C.ar    1  UNL1        0.0191
     19 C         -13.4786   -4.0378   19.5839 C.ar    1  UNL1        0.0024
     20 C         -12.6576   -2.7858   19.4932 C.ar    1  UNL1        0.0367
     21 C         -10.5125   -0.7919   16.8223 C.3     1  UNL1        0.2525
     22 O         -11.2551   -1.1119   18.0857 O.3     1  UNL1       -0.4714
     23 O         -13.2129   -6.7057   18.0636 O.3     1  UNL1       -0.3293
     24 C         -12.1062   -6.7845   19.0730 C.3     1  UNL1        0.2470
     25 C         -10.6760   -6.7639   18.6213 C.3     1  UNL1        0.4249
     26 F          -9.2458   -6.7432   18.1695 F       1  UNL1       -0.1674
     27 F         -10.4346   -5.5318   19.4420 F       1  UNL1       -0.1674
     28 F         -10.9175   -7.9960   17.8006 F       1  UNL1       -0.1674
@<TRIPOS>BOND
     1    21    22    1
     2    22    15    1
     3    15    16   ar
     4    16    17   ar
     5    17    18   ar
     6    18     1    1
     7     1    23    1
     8    23    24    1
     9    24    25    1
    10    25    26    1
    11    25    27    1
    12    25    28    1
    13     1     2    1
    14     2     3    1
    15     3     4   ar
    16     4     5   ar
    17     5     6   ar
    18     6     7   ar
    19     7     8   ar
    20     8     9    1
    21     9    10   ar
    22    10    11   ar
    23    11    12   ar
    24    12    13   ar
    25    13    14    2
    26    18    19   ar
    27    19    20   ar
    28    20    15   ar
    29    10     1    1
    30     8     3   ar
    31    13     9   ar
@<TRIPOS>MOLECULE
*****
 28 31 0 0 0
SMALL
GASTEIGER

@<TRIPOS>ATOM
      1 C           4.1343   -1.8338   21.6868 C.3     1  UNL1        0.2085
      2 S           3.4545   -0.9090   22.6524 S.3     1  UNL1       -0.0753
      3 C           3.7760   -0.9841   24.1157 C.ar    1  UNL1        0.0443
      4 C           3.0962   -0.0593   25.0814 C.ar    1  UNL1        0.0077
      5 C           3.4177   -0.1344   26.5445 C.ar    1  UNL1        0.0006
      6 C           4.4191   -1.1344   27.0421 C.ar    1  UNL1        0.0015
      7 C           5.0989   -2.0592   26.0764 C.ar    1  UNL1        0.0182
      8 C           4.7774   -1.9840   24.6132 C.ar    1  UNL1        0.0768
      9 N           5.4572   -2.9089   23.6474 N.ar    1  UNL1       -0.2242
     10 C           5.1357   -2.8337   22.1843 C.ar    1  UNL1        0.2069
     11 N           5.9594   -3.8674   21.4750 N.ar    1  UNL1       -0.0545
     12 O           6.7900   -4.5813   22.4999 O.2     1  UNL1       -0.2950
     13 C           6.4796   -3.9889   23.8426 C.ar    1  UNL1        0.4472
     14 O           7.0853   -4.4037   25.1506 O.2     1  UNL1       -0.2203
     15 C           1.5237    0.4817   18.8454 C.ar    1  UNL1        0.1387
     16 C           0.9277   -0.1424   20.0723 C.ar    1  UNL1        0.0367
     17 C           1.7978   -0.9142   21.0194 C.ar    1  UNL1        0.0024
     18 C           3.2642   -1.0620   20.7397 C.ar    1  UNL1        0.0191
     19 C           3.8602   -0.4379   19.5128 C.ar    1  UNL1        0.0024
     20 C           2.9900    0.3340   18.5657 C.ar    1  UNL1        0.0367
     21 C           0.2413    2.6565   18.2327 C.3     1  UNL1        0.2525
     22 O           0.6536    1.2536   17.8983 O.3     1  UNL1       -0.4714
     23 O           4.5120   -2.4906   20.3921 O.3     1  UNL1       -0.3293
     24 C           3.6034   -3.5133   19.7769 C.3     1  UNL1        0.2470
     25 C           4.1808   -4.6570   18.9968 C.3     1  UNL1        0.4249
     26 F           4.7581   -5.8008   18.2167 F       1  UNL1       -0.1674
     27 F           5.0133   -3.6949   18.2024 F       1  UNL1       -0.1674
     28 F           3.3482   -5.6191   19.7913 F       1  UNL1       -0.1674
@<TRIPOS>BOND
     1    21    22    1
     2    22    15    1
     3    15    16   ar
     4    16    17   ar
     5    17    18   ar
     6    18     1    1
     7     1    23    1
     8    23    24    1
     9    24    25    1
    10    25    26    1
    11    25    27    1
    12    25    28    1
    13     1     2    1
    14     2     3    1
    15     3     4   ar
    16     4     5   ar
    17     5     6   ar
    18     6     7   ar
    19     7     8   ar
    20     8     9    1
    21     9    10   ar
    22    10    11   ar
    23    11    12   ar
    24    12    13   ar
    25    13    14    2
    26    18    19   ar
    27    19    20   ar
    28    20    15   ar
    29    10     1    1
    30     8     3   ar
    31    13     9   ar
@<TRIPOS>MOLECULE
*****
 28 31 0 0 0
SMALL
GASTEIGER

@<TRIPOS>ATOM
      1 C          -6.6641  -18.2859   22.1869 C.3     1  UNL1        0.2085
      2 S          -6.8746  -18.9489   20.8581 S.3     1  UNL1       -0.0753
      3 C          -8.2659  -19.1807   20.3475 C.ar    1  UNL1        0.0443
      4 C          -8.4765  -19.8438   19.0187 C.ar    1  UNL1        0.0077
      5 C          -9.8677  -20.0755   18.5082 C.ar    1  UNL1        0.0006
      6 C         -11.0485  -19.6443   19.3267 C.ar    1  UNL1        0.0015
      7 C         -10.8379  -18.9812   20.6556 C.ar    1  UNL1        0.0182
      8 C          -9.4467  -18.7494   21.1660 C.ar    1  UNL1        0.0768
      9 N          -9.2361  -18.0864   22.4949 N.ar    1  UNL1       -0.2242
     10 C          -7.8448  -17.8546   23.0054 C.ar    1  UNL1        0.2069
     11 N          -7.9476  -17.1821   24.3422 N.ar    1  UNL1       -0.0545
     12 O          -9.4024  -16.9982   24.6580 O.2     1  UNL1       -0.2950
     13 C         -10.1988  -17.5571   23.5162 C.ar    1  UNL1        0.4472
     14 O         -11.6950  -17.5823   23.4139 O.2     1  UNL1       -0.2203
     15 C          -2.3866  -18.9716   20.9692 C.ar    1  UNL1        0.1387
     16 C          -3.4445  -18.7889   19.9216 C.ar    1  UNL1        0.0367
     17 C          -4.8704  -18.5604   20.3275 C.ar    1  UNL1        0.0024
     18 C          -5.2383  -18.5144   21.7811 C.ar    1  UNL1        0.0191
     19 C          -4.1803  -18.6971   22.8285 C.ar    1  UNL1        0.0024
     20 C          -2.7545  -18.9256   22.4227 C.ar    1  UNL1        0.0367
     21 C          -0.1833  -18.1001   19.9034 C.3     1  UNL1        0.2525
     22 O          -0.9607  -19.2001   20.5634 O.3     1  UNL1       -0.4714
     23 O          -5.9584  -17.7022   23.3749 O.3     1  UNL1       -0.3293
     24 C          -5.6459  -16.2357   23.4158 C.3     1  UNL1        0.2470
     25 C          -5.3873  -15.5602   24.7299 C.3     1  UNL1        0.4249
     26 F          -5.1287  -14.8848   26.0440 F       1  UNL1       -0.1674
     27 F          -6.3766  -14.4902   24.3746 F       1  UNL1       -0.1674
     28 F          -4.3980  -16.6303   25.0851 F       1  UNL1       -0.1674
@<TRIPOS>BOND
     1    21    22    1
     2    22    15    1
     3    15    16   ar
     4    16    17   ar
     5    17    18   ar
     6    18     1    1
     7     1    23    1
     8    23    24    1
     9    24    25    1
    10    25    26    1
    11    25    27    1
    12    25    28    1
    13     1     2    1
    14     2     3    1
    15     3     4   ar
    16     4     5   ar
    17     5     6   ar
    18     6     7   ar
    19     7     8   ar
    20     8     9    1
    21     9    10   ar
    22    10    11   ar
    23    11    12   ar
    24    12    13   ar
    25    13    14    2
    26    18    19   ar
    27    19    20   ar
    28    20    15   ar
    29    10     1    1
    30     8     3   ar
    31    13     9   ar
@<TRIPOS>MOLECULE
*****
 28 31 0 0 0
SMALL
GASTEIGER

@<TRIPOS>ATOM
      1 C           3.4143   -1.1224   21.3775 C.3     1  UNL1        0.2085
      2 S           3.5633   -0.8984   22.8532 S.3     1  UNL1       -0.0753
      3 C           2.5995   -0.0058   23.5774 C.ar    1  UNL1        0.0443
      4 C           2.7485    0.2182   25.0530 C.ar    1  UNL1        0.0077
      5 C           1.7847    1.1108   25.7772 C.ar    1  UNL1        0.0006
      6 C           0.6720    1.7794   25.0257 C.ar    1  UNL1        0.0015
      7 C           0.5230    1.5554   23.5500 C.ar    1  UNL1        0.0182
      8 C           1.4868    0.6628   22.8259 C.ar    1  UNL1        0.0768
      9 N           1.3378    0.4388   21.3501 N.ar    1  UNL1       -0.2242
     10 C           2.3016   -0.4538   20.6260 C.ar    1  UNL1        0.2069
     11 N           1.9066   -0.4855   19.1793 N.ar    1  UNL1       -0.0545
     12 O           0.6987    0.3875   19.0094 O.2     1  UNL1       -0.2950
     13 C           0.3472    0.9588   20.3511 C.ar    1  UNL1        0.4472
     14 O          -0.7945    1.8870   20.6424 O.2     1  UNL1       -0.2203
     15 C           7.0339   -3.6687   22.1930 C.ar    1  UNL1        0.1387
     16 C           5.7277   -3.9871   22.8582 C.ar    1  UNL1        0.0367
     17 C           4.5211   -3.1383   22.5864 C.ar    1  UNL1        0.0024
     18 C           4.6208   -1.9711   21.6493 C.ar    1  UNL1        0.0191
     19 C           5.9270   -1.6529   20.9842 C.ar    1  UNL1        0.0024
     20 C           7.1335   -2.5017   21.2560 C.ar    1  UNL1        0.0367
     21 C           8.2442   -5.4652   23.6275 C.3     1  UNL1        0.2525
     22 O           8.2404   -4.5175   22.4648 O.3     1  UNL1       -0.4714
     23 O           3.6844   -1.6411   19.9962 O.3     1  UNL1       -0.3293
     24 C           3.0934   -2.9480   19.5570 C.3     1  UNL1        0.2470
     25 C           3.9713   -4.0018   18.9497 C.3     1  UNL1        0.4249
     26 F           4.8492   -5.0556   18.3424 F       1  UNL1       -0.1674
     27 F           4.6951   -2.9472   18.1661 F       1  UNL1       -0.1674
     28 F           3.2475   -5.0562   19.7333 F       1  UNL1       -0.1674
@<TRIPOS>BOND
     1    21    22    1
     2    22    15    1
     3    15    16   ar
     4    16    17   ar
     5    17    18   ar
     6    18     1    1
     7     1    23    1
     8    23    24    1
     9    24    25    1
    10    25    26    1
    11    25    27    1
    12    25    28    1
    13     1     2    1
    14     2     3    1
    15     3     4   ar
    16     4     5   ar
    17     5     6   ar
    18     6     7   ar
    19     7     8   ar
    20     8     9    1
    21     9    10   ar
    22    10    11   ar
    23    11    12   ar
    24    12    13   ar
    25    13    14    2
    26    18    19   ar
    27    19    20   ar
    28    20    15   ar
    29    10     1    1
    30     8     3   ar
    31    13     9   ar
@<TRIPOS>MOLECULE
*****
 28 31 0 0 0
SMALL
GASTEIGER

@<TRIPOS>ATOM
      1 C          -7.7813  -18.9923   21.7815 C.3     1  UNL1        0.2085
      2 S          -7.5170  -17.8474   22.7138 S.3     1  UNL1       -0.0753
      3 C          -6.1061  -17.4518   23.0347 C.ar    1  UNL1        0.0443
      4 C          -5.8418  -16.3069   23.9671 C.ar    1  UNL1        0.0077
      5 C          -4.4309  -15.9113   24.2879 C.ar    1  UNL1        0.0006
      6 C          -3.2844  -16.6607   23.6765 C.ar    1  UNL1        0.0015
      7 C          -3.5487  -17.8056   22.7441 C.ar    1  UNL1        0.0182
      8 C          -4.9595  -18.2011   22.4233 C.ar    1  UNL1        0.0768
      9 N          -5.2239  -19.3461   21.4909 N.ar    1  UNL1       -0.2242
     10 C          -6.6347  -19.7417   21.1700 C.ar    1  UNL1        0.2069
     11 N          -6.5863  -20.9040   20.2232 N.ar    1  UNL1       -0.0545
     12 O          -5.1455  -21.2268   19.9589 O.2     1  UNL1       -0.2950
     13 C          -4.3034  -20.2640   20.7424 C.ar    1  UNL1        0.4472
     14 O          -2.8042  -20.2257   20.7722 O.2     1  UNL1       -0.2203
     15 C         -12.0059  -17.7924   22.7629 C.ar    1  UNL1        0.1387
     16 C         -11.5137  -19.1638   23.1195 C.ar    1  UNL1        0.0367
     17 C         -10.1055  -19.5638   22.7924 C.ar    1  UNL1        0.0024
     18 C          -9.1894  -18.5924   22.1086 C.ar    1  UNL1        0.0191
     19 C          -9.6817  -17.2211   21.7521 C.ar    1  UNL1        0.0024
     20 C         -11.0899  -16.8211   22.0792 C.ar    1  UNL1        0.0367
     21 C         -14.1562  -18.0923   24.1897 C.3     1  UNL1        0.2525
     22 O         -13.4141  -17.3924   23.0900 O.3     1  UNL1       -0.4714
     23 O          -8.5346  -19.9983   20.9628 O.3     1  UNL1       -0.3293
     24 C          -9.2889  -19.5591   19.7428 C.3     1  UNL1        0.2470
     25 C          -9.0817  -20.2680   18.4372 C.3     1  UNL1        0.4249
     26 F          -8.8745  -20.9768   17.1316 F       1  UNL1       -0.1674
     27 F          -8.1615  -19.1718   17.9881 F       1  UNL1       -0.1674
     28 F         -10.0019  -21.3641   18.8864 F       1  UNL1       -0.1674
@<TRIPOS>BOND
     1    21    22    1
     2    22    15    1
     3    15    16   ar
     4    16    17   ar
     5    17    18   ar
     6    18     1    1
     7     1    23    1
     8    23    24    1
     9    24    25    1
    10    25    26    1
    11    25    27    1
    12    25    28    1
    13     1     2    1
    14     2     3    1
    15     3     4   ar
    16     4     5   ar
    17     5     6   ar
    18     6     7   ar
    19     7     8   ar
    20     8     9    1
    21     9    10   ar
    22    10    11   ar
    23    11    12   ar
    24    12    13   ar
    25    13    14    2
    26    18    19   ar
    27    19    20   ar
    28    20    15   ar
    29    10     1    1
    30     8     3   ar
    31    13     9   ar
@<TRIPOS>MOLECULE
*****
 28 31 0 0 0
SMALL
GASTEIGER

@<TRIPOS>ATOM
      1 C           3.7811   -1.4472   21.5140 C.3     1  UNL1        0.2085
      2 S           3.5176   -0.7866   22.8346 S.3     1  UNL1       -0.0753
      3 C           4.2359   -1.2564   24.0648 C.ar    1  UNL1        0.0443
      4 C           3.9725   -0.5958   25.3855 C.ar    1  UNL1        0.0077
      5 C           4.6907   -1.0657   26.6156 C.ar    1  UNL1        0.0006
      6 C           5.6725   -2.1962   26.5251 C.ar    1  UNL1        0.0015
      7 C           5.9360   -2.8568   25.2044 C.ar    1  UNL1        0.0182
      8 C           5.2177   -2.3869   23.9743 C.ar    1  UNL1        0.0768
      9 N           5.4811   -3.0475   22.6536 N.ar    1  UNL1       -0.2242
     10 C           4.7629   -2.5777   21.4235 C.ar    1  UNL1        0.2069
     11 N           5.2246   -3.4159   20.2685 N.ar    1  UNL1       -0.0545
     12 O           6.2283   -4.4039   20.7848 O.2     1  UNL1       -0.2950
     13 C           6.3868   -4.1762   22.2589 C.ar    1  UNL1        0.4472
     14 O           7.2921   -4.9426   23.1771 O.2     1  UNL1       -0.2203
     15 C           0.7441    1.6268   20.2581 C.ar    1  UNL1        0.1387
     16 C           2.0157    2.0583   20.9264 C.ar    1  UNL1        0.0367
     17 C           3.0281    1.0337   21.3451 C.ar    1  UNL1        0.0024
     18 C           2.7688   -0.4226   21.0954 C.ar    1  UNL1        0.0191
     19 C           1.4971   -0.8540   20.4270 C.ar    1  UNL1        0.0024
     20 C           0.4848    0.1706   20.0084 C.ar    1  UNL1        0.0367
     21 C          -0.2055    3.2499   18.4655 C.3     1  UNL1        0.2525
     22 O          -0.2683    2.6514   19.8395 O.3     1  UNL1       -0.4714
     23 O           3.6930   -1.7520   20.0479 O.3     1  UNL1       -0.3293
     24 C           4.3918   -0.8708   19.0553 C.3     1  UNL1        0.2470
     25 C           4.0010   -0.9147   17.6078 C.3     1  UNL1        0.4249
     26 F           3.6102   -0.9586   16.1602 F       1  UNL1       -0.1674
     27 F           3.2279    0.3594   17.7778 F       1  UNL1       -0.1674
     28 F           4.7741   -2.1888   17.4378 F       1  UNL1       -0.1674
@<TRIPOS>BOND
     1    21    22    1
     2    22    15    1
     3    15    16   ar
     4    16    17   ar
     5    17    18   ar
     6    18     1    1
     7     1    23    1
     8    23    24    1
     9    24    25    1
    10    25    26    1
    11    25    27    1
    12    25    28    1
    13     1     2    1
    14     2     3    1
    15     3     4   ar
    16     4     5   ar
    17     5     6   ar
    18     6     7   ar
    19     7     8   ar
    20     8     9    1
    21     9    10   ar
    22    10    11   ar
    23    11    12   ar
    24    12    13   ar
    25    13    14    2
    26    18    19   ar
    27    19    20   ar
    28    20    15   ar
    29    10     1    1
    30     8     3   ar
    31    13     9   ar
