@<TRIPOS>MOLECULE
*****
 24 27 0 0 0
SMALL
GASTEIGER

@<TRIPOS>ATOM
      1 O           3.8000   -1.2520   16.2371 O.2     1  UNL1       -0.2699
      2 C           3.7724   -0.8154   17.6719 C.2     1  UNL1        0.2493
      3 N           4.3747   -1.6880   18.7331 N.am    1  UNL1       -0.2698
      4 C           5.0046   -2.9970   18.3594 C.3     1  UNL1        0.1021
      5 C           5.6068   -3.8695   19.4205 C.3     1  UNL1        0.0874
      6 C           5.5792   -3.4329   20.8553 C.ar    1  UNL1        0.1415
      7 O           6.0895   -4.0769   22.1104 O.2     1  UNL1       -0.4380
      8 C           5.7749   -3.1658   23.2597 C.ar    1  UNL1        0.2471
      9 N           5.0703   -1.9588   22.7149 N.ar    1  UNL1       -0.2100
     10 C           4.9494   -2.1239   21.2290 C.ar    1  UNL1        0.1124
     11 C           4.3471   -1.2514   20.1679 C.3     1  UNL1        0.1425
     12 C           6.1067   -3.4174   24.7008 C.ar    1  UNL1        0.1348
     13 C           6.7801   -4.6960   25.1031 C.ar    1  UNL1        0.0262
     14 C           7.1119   -4.9477   26.5441 C.ar    1  UNL1        0.0329
     15 C           6.7703   -3.9208   27.5827 C.ar    1  UNL1        0.1592
     16 F           7.1021   -4.1725   29.0238 F       1  UNL1       -0.2025
     17 C           6.0969   -2.6423   27.1804 C.ar    1  UNL1        0.1285
     18 N           5.7652   -2.3906   25.7394 N.ar    1  UNL1       -0.2368
     19 C           3.1426    0.4936   18.0456 C.ar    1  UNL1        0.0536
     20 C           1.6622    0.5757   18.2731 C.ar    1  UNL1        0.0045
     21 C           1.0323    1.8849   18.6468 C.ar    1  UNL1        0.0001
     22 C           1.8828    3.1117   18.7929 C.ar    1  UNL1        0.0000
     23 C           3.3632    3.0296   18.5654 C.ar    1  UNL1        0.0001
     24 C           3.9931    1.7205   18.1917 C.ar    1  UNL1        0.0045
@<TRIPOS>BOND
     1     1     2    2
     2     2    19    1
     3    19    20   ar
     4    20    21   ar
     5    21    22   ar
     6    22    23   ar
     7    23    24   ar
     8     2     3   am
     9     3     4    1
    10     4     5    1
    11     5     6    1
    12     6     7   ar
    13     7     8   ar
    14     8    12    1
    15    12    13   ar
    16    13    14   ar
    17    14    15   ar
    18    15    16    1
    19    15    17   ar
    20    17    18   ar
    21     8     9   ar
    22     9    10   ar
    23    10    11    1
    24    24    19   ar
    25    11     3    1
    26    10     6   ar
    27    18    12   ar
@<TRIPOS>MOLECULE
*****
 24 27 0 0 0
SMALL
GASTEIGER

@<TRIPOS>ATOM
      1 O           9.5360   -7.4057   30.2112 O.2     1  UNL1       -0.2699
      2 C           8.7571   -6.2594   29.6373 C.2     1  UNL1        0.2493
      3 N           8.4243   -6.2363   28.1749 N.am    1  UNL1       -0.2698
      4 C           8.8704   -7.3594   27.2863 C.3     1  UNL1        0.1021
      5 C           8.5376   -7.3362   25.8239 C.3     1  UNL1        0.0874
      6 C           7.7587   -6.1899   25.2501 C.ar    1  UNL1        0.1415
      7 O           7.2861   -5.8949   23.8573 O.2     1  UNL1       -0.4380
      8 C           6.5479   -4.5894   23.8851 C.ar    1  UNL1        0.2471
      9 N           6.5643   -4.0776   25.2951 N.ar    1  UNL1       -0.2100
     10 C           7.3126   -5.0668   26.1386 C.ar    1  UNL1        0.1124
     11 C           7.6454   -5.0900   27.6010 C.3     1  UNL1        0.1425
     12 C           5.9061   -3.9141   22.7095 C.ar    1  UNL1        0.1348
     13 C           4.8537   -2.8678   22.9281 C.ar    1  UNL1        0.0262
     14 C           4.2119   -2.1926   21.7525 C.ar    1  UNL1        0.0329
     15 C           4.6223   -2.5637   20.3583 C.ar    1  UNL1        0.1592
     16 F           3.9805   -1.8885   19.1826 F       1  UNL1       -0.2025
     17 C           5.6747   -3.6100   20.1397 C.ar    1  UNL1        0.1285
     18 N           6.3165   -4.2852   21.3153 N.ar    1  UNL1       -0.2368
     19 C           8.3110   -5.1363   30.5259 C.ar    1  UNL1        0.0536
     20 C           9.1937   -3.9396   30.7226 C.ar    1  UNL1        0.0045
     21 C           8.7476   -2.8165   31.6112 C.ar    1  UNL1        0.0001
     22 C           7.4187   -2.8900   32.3030 C.ar    1  UNL1        0.0000
     23 C           6.5360   -4.0867   32.1063 C.ar    1  UNL1        0.0001
     24 C           6.9821   -5.2098   31.2178 C.ar    1  UNL1        0.0045
@<TRIPOS>BOND
     1     1     2    2
     2     2    19    1
     3    19    20   ar
     4    20    21   ar
     5    21    22   ar
     6    22    23   ar
     7    23    24   ar
     8     2     3   am
     9     3     4    1
    10     4     5    1
    11     5     6    1
    12     6     7   ar
    13     7     8   ar
    14     8    12    1
    15    12    13   ar
    16    13    14   ar
    17    14    15   ar
    18    15    16    1
    19    15    17   ar
    20    17    18   ar
    21     8     9   ar
    22     9    10   ar
    23    10    11    1
    24    24    19   ar
    25    11     3    1
    26    10     6   ar
    27    18    12   ar
@<TRIPOS>MOLECULE
*****
 24 27 0 0 0
SMALL
GASTEIGER

@<TRIPOS>ATOM
      1 O           6.1580   -0.5392   36.9824 O.2     1  UNL1       -0.2699
      2 C           5.0562    0.2591   36.3510 C.2     1  UNL1        0.2493
      3 N           4.6595   -0.0043   34.9285 N.am    1  UNL1       -0.2698
      4 C           5.3645   -1.0660   34.1376 C.3     1  UNL1        0.1021
      5 C           4.9678   -1.3293   32.7152 C.3     1  UNL1        0.0874
      6 C           3.8660   -0.5309   32.0838 C.ar    1  UNL1        0.1415
      7 O           3.2610   -0.5653   30.7115 O.2     1  UNL1       -0.4380
      8 C           2.1821    0.4752   30.6545 C.ar    1  UNL1        0.2471
      9 N           2.1203    1.1526   31.9914 N.ar    1  UNL1       -0.2100
     10 C           3.1609    0.5308   32.8747 C.ar    1  UNL1        0.1124
     11 C           3.5577    0.7941   34.2971 C.3     1  UNL1        0.1425
     12 C           1.3169    0.7841   29.4687 C.ar    1  UNL1        0.1348
     13 C           1.9032    1.4712   28.2711 C.ar    1  UNL1        0.0262
     14 C           1.0381    1.7801   27.0854 C.ar    1  UNL1        0.0329
     15 C          -0.4134    1.4020   27.0972 C.ar    1  UNL1        0.1592
     16 F          -1.2786    1.7109   25.9114 F       1  UNL1       -0.2025
     17 C          -0.9997    0.7149   28.2947 C.ar    1  UNL1        0.1285
     18 N          -0.1346    0.4060   29.4805 N.ar    1  UNL1       -0.2368
     19 C           4.3512    1.3208   37.1420 C.ar    1  UNL1        0.0536
     20 C           3.1784    0.9591   38.0044 C.ar    1  UNL1        0.0045
     21 C           2.4733    2.0209   38.7954 C.ar    1  UNL1        0.0001
     22 C           2.9411    3.4443   38.7239 C.ar    1  UNL1        0.0000
     23 C           4.1138    3.8060   37.8615 C.ar    1  UNL1        0.0001
     24 C           4.8189    2.7443   37.0705 C.ar    1  UNL1        0.0045
@<TRIPOS>BOND
     1     1     2    2
     2     2    19    1
     3    19    20   ar
     4    20    21   ar
     5    21    22   ar
     6    22    23   ar
     7    23    24   ar
     8     2     3   am
     9     3     4    1
    10     4     5    1
    11     5     6    1
    12     6     7   ar
    13     7     8   ar
    14     8    12    1
    15    12    13   ar
    16    13    14   ar
    17    14    15   ar
    18    15    16    1
    19    15    17   ar
    20    17    18   ar
    21     8     9   ar
    22     9    10   ar
    23    10    11    1
    24    24    19   ar
    25    11     3    1
    26    10     6   ar
    27    18    12   ar
@<TRIPOS>MOLECULE
*****
 24 27 0 0 0
SMALL
GASTEIGER

@<TRIPOS>ATOM
      1 O          -3.2797    5.5638   19.5908 O.2     1  UNL1       -0.2699
      2 C          -2.6730    4.4342   20.3692 C.2     1  UNL1        0.2493
      3 N          -1.5490    3.6352   19.7788 N.am    1  UNL1       -0.2698
      4 C          -1.0319    3.9659   18.4102 C.3     1  UNL1        0.1021
      5 C           0.0920    3.1669   17.8199 C.3     1  UNL1        0.0874
      6 C           0.6988    2.0373   18.5983 C.ar    1  UNL1        0.1415
      7 O           1.8090    1.0805   18.2786 O.2     1  UNL1       -0.4380
      8 C           1.9779    0.1586   19.4497 C.ar    1  UNL1        0.2471
      9 N           0.9722    0.5456   20.4931 N.ar    1  UNL1       -0.2100
     10 C           0.1817    1.7067   19.9669 C.ar    1  UNL1        0.1124
     11 C          -0.9422    2.5056   20.5572 C.3     1  UNL1        0.1425
     12 C           2.9771   -0.9549   19.5583 C.ar    1  UNL1        0.1348
     13 C           3.2522   -1.5885   20.8898 C.ar    1  UNL1        0.0262
     14 C           4.2514   -2.7020   20.9984 C.ar    1  UNL1        0.0329
     15 C           4.9755   -3.1818   19.7756 C.ar    1  UNL1        0.1592
     16 F           5.9747   -4.2953   19.8842 F       1  UNL1       -0.2025
     17 C           4.7004   -2.5482   18.4441 C.ar    1  UNL1        0.1285
     18 N           3.7012   -1.4348   18.3354 N.ar    1  UNL1       -0.2368
     19 C          -3.1901    4.1036   21.7378 C.ar    1  UNL1        0.0536
     20 C          -2.4335    4.5502   22.9536 C.ar    1  UNL1        0.0045
     21 C          -2.9507    4.2196   24.3223 C.ar    1  UNL1        0.0001
     22 C          -4.2244    3.4423   24.4752 C.ar    1  UNL1        0.0000
     23 C          -4.9810    2.9956   23.2594 C.ar    1  UNL1        0.0001
     24 C          -4.4639    3.3263   21.8908 C.ar    1  UNL1        0.0045
@<TRIPOS>BOND
     1     1     2    2
     2     2    19    1
     3    19    20   ar
     4    20    21   ar
     5    21    22   ar
     6    22    23   ar
     7    23    24   ar
     8     2     3   am
     9     3     4    1
    10     4     5    1
    11     5     6    1
    12     6     7   ar
    13     7     8   ar
    14     8    12    1
    15    12    13   ar
    16    13    14   ar
    17    14    15   ar
    18    15    16    1
    19    15    17   ar
    20    17    18   ar
    21     8     9   ar
    22     9    10   ar
    23    10    11    1
    24    24    19   ar
    25    11     3    1
    26    10     6   ar
    27    18    12   ar
@<TRIPOS>MOLECULE
*****
 24 27 0 0 0
SMALL
GASTEIGER

@<TRIPOS>ATOM
      1 O           4.9705   -2.3675   23.5853 O.2     1  UNL1       -0.2699
      2 C           4.1729   -2.0023   22.3686 C.2     1  UNL1        0.2493
      3 N           3.1217   -0.9355   22.4533 N.am    1  UNL1       -0.2698
      4 C           2.8682   -0.2340   23.7546 C.3     1  UNL1        0.1021
      5 C           1.8171    0.8328   23.8392 C.3     1  UNL1        0.0874
      6 C           1.0195    1.1980   22.6225 C.ar    1  UNL1        0.1415
      7 O          -0.0740    2.2011   22.4030 O.2     1  UNL1       -0.4380
      8 C          -0.4963    2.1195   20.9660 C.ar    1  UNL1        0.2471
      9 N           0.3362    1.0660   20.2974 N.ar    1  UNL1       -0.2100
     10 C           1.2730    0.4965   21.3211 C.ar    1  UNL1        0.1124
     11 C           2.3241   -0.5703   21.2365 C.3     1  UNL1        0.1425
     12 C          -1.5636    2.9463   20.3123 C.ar    1  UNL1        0.1348
     13 C          -1.2061    3.8938   19.2058 C.ar    1  UNL1        0.0262
     14 C          -2.2734    4.7205   18.5521 C.ar    1  UNL1        0.0329
     15 C          -3.6982    4.5998   19.0050 C.ar    1  UNL1        0.1592
     16 F          -4.7656    5.4265   18.3513 F       1  UNL1       -0.2025
     17 C          -4.0558    3.6523   20.1115 C.ar    1  UNL1        0.1285
     18 N          -2.9885    2.8255   20.7652 N.ar    1  UNL1       -0.2368
     19 C           4.4264   -2.7038   21.0673 C.ar    1  UNL1        0.0536
     20 C           3.8635   -4.0741   20.8318 C.ar    1  UNL1        0.0045
     21 C           4.1171   -4.7756   19.5304 C.ar    1  UNL1        0.0001
     22 C           4.9334   -4.1068   18.4645 C.ar    1  UNL1        0.0000
     23 C           5.4963   -2.7365   18.6999 C.ar    1  UNL1        0.0001
     24 C           5.2428   -2.0350   20.0013 C.ar    1  UNL1        0.0045
@<TRIPOS>BOND
     1     1     2    2
     2     2    19    1
     3    19    20   ar
     4    20    21   ar
     5    21    22   ar
     6    22    23   ar
     7    23    24   ar
     8     2     3   am
     9     3     4    1
    10     4     5    1
    11     5     6    1
    12     6     7   ar
    13     7     8   ar
    14     8    12    1
    15    12    13   ar
    16    13    14   ar
    17    14    15   ar
    18    15    16    1
    19    15    17   ar
    20    17    18   ar
    21     8     9   ar
    22     9    10   ar
    23    10    11    1
    24    24    19   ar
    25    11     3    1
    26    10     6   ar
    27    18    12   ar
@<TRIPOS>MOLECULE
*****
 24 27 0 0 0
SMALL
GASTEIGER

@<TRIPOS>ATOM
      1 O           5.6039    0.5736   18.3169 O.2     1  UNL1       -0.2699
      2 C           4.3434    0.1669   19.0212 C.2     1  UNL1        0.2493
      3 N           3.1972    1.1292   19.1227 N.am    1  UNL1       -0.2698
      4 C           3.3114    2.4980   18.5200 C.3     1  UNL1        0.1021
      5 C           2.1652    3.4602   18.6216 C.3     1  UNL1        0.0874
      6 C           0.9048    3.0535   19.3258 C.ar    1  UNL1        0.1415
      7 O          -0.3815    3.7817   19.5820 O.2     1  UNL1       -0.4380
      8 C          -1.2906    2.8628   20.3431 C.ar    1  UNL1        0.2471
      9 N          -0.5662    1.5669   20.5572 N.ar    1  UNL1       -0.2100
     10 C           0.7905    1.6847   19.9285 C.ar    1  UNL1        0.1124
     11 C           1.9368    0.7226   19.8270 C.3     1  UNL1        0.1425
     12 C          -2.6801    3.1836   20.8083 C.ar    1  UNL1        0.1348
     13 C          -3.7504    3.5053   19.8079 C.ar    1  UNL1        0.0262
     14 C          -5.1399    3.8260   20.2731 C.ar    1  UNL1        0.0329
     15 C          -5.4590    3.8250   21.7387 C.ar    1  UNL1        0.1592
     16 F          -6.8486    4.1458   22.2040 F       1  UNL1       -0.2025
     17 C          -4.3887    3.5033   22.7391 C.ar    1  UNL1        0.1285
     18 N          -2.9992    3.1826   22.2740 N.ar    1  UNL1       -0.2368
     19 C           4.2292   -1.2019   19.6239 C.ar    1  UNL1        0.0536
     20 C           3.8440   -2.3698   18.7650 C.ar    1  UNL1        0.0045
     21 C           3.7298   -3.7386   19.3678 C.ar    1  UNL1        0.0001
     22 C           4.0008   -3.9395   20.8294 C.ar    1  UNL1        0.0000
     23 C           4.3860   -2.7716   21.6882 C.ar    1  UNL1        0.0001
     24 C           4.5002   -1.4028   21.0855 C.ar    1  UNL1        0.0045
@<TRIPOS>BOND
     1     1     2    2
     2     2    19    1
     3    19    20   ar
     4    20    21   ar
     5    21    22   ar
     6    22    23   ar
     7    23    24   ar
     8     2     3   am
     9     3     4    1
    10     4     5    1
    11     5     6    1
    12     6     7   ar
    13     7     8   ar
    14     8    12    1
    15    12    13   ar
    16    13    14   ar
    17    14    15   ar
    18    15    16    1
    19    15    17   ar
    20    17    18   ar
    21     8     9   ar
    22     9    10   ar
    23    10    11    1
    24    24    19   ar
    25    11     3    1
    26    10     6   ar
    27    18    12   ar
@<TRIPOS>MOLECULE
*****
 24 27 0 0 0
SMALL
GASTEIGER

@<TRIPOS>ATOM
      1 O           6.1820   -2.3562   18.2410 O.2     1  UNL1       -0.2699
      2 C           5.6454   -2.2447   19.6373 C.2     1  UNL1        0.2493
      3 N           6.2934   -3.0095   20.7532 N.am    1  UNL1       -0.2698
      4 C           7.4781   -3.8858   20.4728 C.3     1  UNL1        0.1021
      5 C           8.1261   -4.6506   21.5886 C.3     1  UNL1        0.0874
      6 C           7.5894   -4.5391   22.9849 C.ar    1  UNL1        0.1415
      7 O           8.0167   -5.1687   24.2777 O.2     1  UNL1       -0.4380
      8 C           7.0960   -4.6814   25.3570 C.ar    1  UNL1        0.2471
      9 N           6.0998   -3.7508   24.7313 N.ar    1  UNL1       -0.2100
     10 C           6.4047   -3.6628   23.2653 C.ar    1  UNL1        0.1124
     11 C           5.7567   -2.8980   22.1495 C.3     1  UNL1        0.1425
     12 C           7.1603   -5.0586   26.8074 C.ar    1  UNL1        0.1348
     13 C           6.5098   -4.1852   27.8390 C.ar    1  UNL1        0.0262
     14 C           6.5741   -4.5624   29.2894 C.ar    1  UNL1        0.0329
     15 C           7.2887   -5.8129   29.7082 C.ar    1  UNL1        0.1592
     16 F           7.3530   -6.1901   31.1586 F       1  UNL1       -0.2025
     17 C           7.9392   -6.6863   28.6766 C.ar    1  UNL1        0.1285
     18 N           7.8749   -6.3091   27.2262 N.ar    1  UNL1       -0.2368
     19 C           4.4607   -1.3684   19.9177 C.ar    1  UNL1        0.0536
     20 C           3.0769   -1.9467   19.8906 C.ar    1  UNL1        0.0045
     21 C           1.8922   -1.0703   20.1711 C.ar    1  UNL1        0.0001
     22 C           2.0913    0.3842   20.4786 C.ar    1  UNL1        0.0000
     23 C           3.4751    0.9625   20.5056 C.ar    1  UNL1        0.0001
     24 C           4.6598    0.0862   20.2252 C.ar    1  UNL1        0.0045
@<TRIPOS>BOND
     1     1     2    2
     2     2    19    1
     3    19    20   ar
     4    20    21   ar
     5    21    22   ar
     6    22    23   ar
     7    23    24   ar
     8     2     3   am
     9     3     4    1
    10     4     5    1
    11     5     6    1
    12     6     7   ar
    13     7     8   ar
    14     8    12    1
    15    12    13   ar
    16    13    14   ar
    17    14    15   ar
    18    15    16    1
    19    15    17   ar
    20    17    18   ar
    21     8     9   ar
    22     9    10   ar
    23    10    11    1
    24    24    19   ar
    25    11     3    1
    26    10     6   ar
    27    18    12   ar
@<TRIPOS>MOLECULE
*****
 24 27 0 0 0
SMALL
GASTEIGER

@<TRIPOS>ATOM
      1 O           4.5248   -0.2647   17.7505 O.2     1  UNL1       -0.2699
      2 C           4.2513   -0.6913   19.1623 C.2     1  UNL1        0.2493
      3 N           5.1497   -1.6888   19.8317 N.am    1  UNL1       -0.2698
      4 C           6.3214   -2.2596   19.0893 C.3     1  UNL1        0.1021
      5 C           7.2197   -3.2571   19.7588 C.3     1  UNL1        0.0874
      6 C           6.9462   -3.6837   21.1706 C.ar    1  UNL1        0.1415
      7 O           7.6515   -4.6421   22.0839 O.2     1  UNL1       -0.4380
      8 C           6.9156   -4.6635   23.3908 C.ar    1  UNL1        0.2471
      9 N           5.7555   -3.7185   23.2851 N.ar    1  UNL1       -0.2100
     10 C           5.7745   -3.1129   21.9129 C.ar    1  UNL1        0.1124
     11 C           4.8762   -2.1154   21.2435 C.3     1  UNL1        0.1425
     12 C           7.2763   -5.4858   24.5925 C.ar    1  UNL1        0.1348
     13 C           8.0073   -6.7843   24.4208 C.ar    1  UNL1        0.0262
     14 C           8.3680   -7.6065   25.6223 C.ar    1  UNL1        0.0329
     15 C           7.9978   -7.1302   26.9956 C.ar    1  UNL1        0.1592
     16 F           8.3585   -7.9524   28.1973 F       1  UNL1       -0.2025
     17 C           7.2668   -5.8316   27.1673 C.ar    1  UNL1        0.1285
     18 N           6.9060   -5.0094   25.9658 N.ar    1  UNL1       -0.2368
     19 C           3.0796   -0.1205   19.9047 C.ar    1  UNL1        0.0536
     20 C           1.7349   -0.7772   19.8025 C.ar    1  UNL1        0.0045
     21 C           0.5631   -0.2064   20.5450 C.ar    1  UNL1        0.0001
     22 C           0.7361    1.0212   21.3895 C.ar    1  UNL1        0.0000
     23 C           2.0808    1.6779   21.4916 C.ar    1  UNL1        0.0001
     24 C           3.2526    1.1071   20.7492 C.ar    1  UNL1        0.0045
@<TRIPOS>BOND
     1     1     2    2
     2     2    19    1
     3    19    20   ar
     4    20    21   ar
     5    21    22   ar
     6    22    23   ar
     7    23    24   ar
     8     2     3   am
     9     3     4    1
    10     4     5    1
    11     5     6    1
    12     6     7   ar
    13     7     8   ar
    14     8    12    1
    15    12    13   ar
    16    13    14   ar
    17    14    15   ar
    18    15    16    1
    19    15    17   ar
    20    17    18   ar
    21     8     9   ar
    22     9    10   ar
    23    10    11    1
    24    24    19   ar
    25    11     3    1
    26    10     6   ar
    27    18    12   ar
@<TRIPOS>MOLECULE
*****
 24 27 0 0 0
SMALL
GASTEIGER

@<TRIPOS>ATOM
      1 O          -3.9947    5.3239   22.7693 O.2     1  UNL1       -0.2699
      2 C          -3.5224    4.5370   21.5828 C.2     1  UNL1        0.2493
      3 N          -2.2667    3.7216   21.6752 N.am    1  UNL1       -0.2698
      4 C          -1.4834    3.6931   22.9540 C.3     1  UNL1        0.1021
      5 C          -0.2277    2.8778   23.0464 C.3     1  UNL1        0.0874
      6 C           0.2445    2.0909   21.8599 C.ar    1  UNL1        0.1415
      7 O           1.4354    1.2023   21.6543 O.2     1  UNL1       -0.4380
      8 C           1.3881    0.6816   20.2484 C.ar    1  UNL1        0.2471
      9 N           0.1679    1.2484   19.5851 N.ar    1  UNL1       -0.2100
     10 C          -0.5388    2.1194   20.5810 C.ar    1  UNL1        0.1124
     11 C          -1.7944    2.9347   20.4887 C.3     1  UNL1        0.1425
     12 C           2.3857   -0.2435   19.6167 C.ar    1  UNL1        0.1348
     13 C           2.9544    0.0761   18.2660 C.ar    1  UNL1        0.0262
     14 C           3.9520   -0.8489   17.6342 C.ar    1  UNL1        0.0329
     15 C           4.3808   -2.0935   18.3532 C.ar    1  UNL1        0.1592
     16 F           5.3785   -3.0186   17.7214 F       1  UNL1       -0.2025
     17 C           3.8121   -2.4132   19.7038 C.ar    1  UNL1        0.1285
     18 N           2.8145   -1.4882   20.3356 N.ar    1  UNL1       -0.2368
     19 C          -4.3057    4.5655   20.3039 C.ar    1  UNL1        0.0536
     20 C          -5.3549    3.5255   20.0437 C.ar    1  UNL1        0.0045
     21 C          -6.1382    3.5540   18.7647 C.ar    1  UNL1        0.0001
     22 C          -5.8724    4.6225   17.7461 C.ar    1  UNL1        0.0000
     23 C          -4.8233    5.6625   18.0063 C.ar    1  UNL1        0.0001
     24 C          -4.0399    5.6340   19.2852 C.ar    1  UNL1        0.0045
@<TRIPOS>BOND
     1     1     2    2
     2     2    19    1
     3    19    20   ar
     4    20    21   ar
     5    21    22   ar
     6    22    23   ar
     7    23    24   ar
     8     2     3   am
     9     3     4    1
    10     4     5    1
    11     5     6    1
    12     6     7   ar
    13     7     8   ar
    14     8    12    1
    15    12    13   ar
    16    13    14   ar
    17    14    15   ar
    18    15    16    1
    19    15    17   ar
    20    17    18   ar
    21     8     9   ar
    22     9    10   ar
    23    10    11    1
    24    24    19   ar
    25    11     3    1
    26    10     6   ar
    27    18    12   ar
