@<TRIPOS>MOLECULE
*****
 29 32 0 0 0
SMALL
GASTEIGER

@<TRIPOS>ATOM
      1 C           4.4511   -1.9669   20.1784 C.2     1  UNL1        0.0918
      2 C           5.5842   -2.3831   19.2881 C.2     1  UNL1        0.0183
      3 C           6.6679   -3.2735   19.8199 C.2     1  UNL1        0.0511
      4 C           6.6184   -3.7477   21.2421 C.2     1  UNL1        0.2322
      5 N           7.5364   -4.6255   22.0400 N.2     1  UNL1       -0.0308
      6 C           6.9707   -4.7519   23.4235 C.2     1  UNL1        0.3767
      7 N           5.7030   -3.9520   23.4806 N.2     1  UNL1       -0.0346
      8 C           5.4853   -3.3314   22.1325 C.2     1  UNL1        0.2191
      9 C           4.4017   -2.4410   21.6006 C.3     1  UNL1        0.1226
     10 C           7.5678   -5.5397   24.5517 C.ar    1  UNL1        0.1061
     11 C           8.1959   -6.8753   24.2837 C.ar    1  UNL1        0.0141
     12 C           8.7931   -7.6631   25.4118 C.ar    1  UNL1        0.0614
     13 C           8.7621   -7.1154   26.8079 C.ar    1  UNL1        0.2648
     14 O           9.3592   -7.9033   27.9361 O.2     1  UNL1       -0.2666
     15 N           8.1339   -5.7799   27.0758 N.ar    1  UNL1       -0.2729
     16 C           7.5368   -4.9920   25.9477 C.ar    1  UNL1        0.0906
     17 C           8.1029   -5.2322   28.4720 C.ar    1  UNL1        0.0669
     18 C           9.2384   -4.3894   28.9724 C.ar    1  UNL1        0.0176
     19 C           9.2073   -3.8418   30.3685 C.ar    1  UNL1        0.0015
     20 C           8.0409   -4.1369   31.2642 C.ar    1  UNL1        0.0001
     21 C           6.9055   -4.9797   30.7638 C.ar    1  UNL1        0.0015
     22 C           6.9365   -5.5273   29.3677 C.ar    1  UNL1        0.0176
     23 S           3.3675   -1.0765   19.6465 S.O2    1  UNL1        0.0022
     24 O           2.5530   -1.3308   20.8802 O.2     1  UNL1       -0.1690
     25 O           4.1819   -0.8221   18.4129 O.2     1  UNL1       -0.1690
     26 C           3.1896    0.2517   18.0021 C.3     1  UNL1        0.0240
     27 C           2.2838   -0.1861   19.1147 C.3     1  UNL1        0.1147
     28 C           1.3780   -0.6239   20.2273 C.3     1  UNL1        0.0240
     29 C           1.2001    0.7043   18.5828 C.3     1  UNL1        0.0240
@<TRIPOS>BOND
     1    26    27    1
     2    27    28    1
     3    27    29    1
     4    27    23    1
     5    23    24    2
     6    23    25    2
     7    23     1    1
     8     1     2    2
     9     2     3    1
    10     3     4    2
    11     4     5    1
    12     5     6    2
    13     6    10    1
    14    10    11   ar
    15    11    12   ar
    16    12    13   ar
    17    13    14    2
    18    13    15   ar
    19    15    17    1
    20    17    18   ar
    21    18    19   ar
    22    19    20   ar
    23    20    21   ar
    24    21    22   ar
    25    15    16   ar
    26     6     7    1
    27     7     8    2
    28     8     9    1
    29     9     1    1
    30     8     4    1
    31    16    10   ar
    32    22    17   ar
@<TRIPOS>MOLECULE
*****
 29 32 0 0 0
SMALL
GASTEIGER

@<TRIPOS>ATOM
      1 C           7.3051   -4.8777   26.7144 C.2     1  UNL1        0.0918
      2 C           8.1134   -5.8982   25.9694 C.2     1  UNL1        0.0183
      3 C           8.1018   -5.9148   24.4695 C.2     1  UNL1        0.0511
      4 C           7.2819   -4.9110   23.7146 C.2     1  UNL1        0.2322
      5 N           7.0750   -4.6842   22.2464 N.2     1  UNL1       -0.0308
      6 C           6.1388   -3.5236   22.0839 C.2     1  UNL1        0.3767
      7 N           5.7670   -3.0329   23.4518 N.2     1  UNL1       -0.0346
      8 C           6.4735   -3.8905   24.4596 C.2     1  UNL1        0.2191
      9 C           6.4851   -3.8738   25.9595 C.3     1  UNL1        0.1226
     10 C           5.6587   -2.9536   20.7821 C.ar    1  UNL1        0.1061
     11 C           6.3289   -3.3462   19.4989 C.ar    1  UNL1        0.0141
     12 C           5.8488   -2.7763   18.1971 C.ar    1  UNL1        0.0614
     13 C           4.6986   -1.8137   18.1785 C.ar    1  UNL1        0.2648
     14 O           4.2184   -1.2438   16.8767 O.2     1  UNL1       -0.2666
     15 N           4.0284   -1.4211   19.4618 N.ar    1  UNL1       -0.2729
     16 C           4.5084   -1.9910   20.7636 C.ar    1  UNL1        0.0906
     17 C           2.8781   -0.4585   19.4432 C.ar    1  UNL1        0.0669
     18 C           1.6028   -0.7999   20.1553 C.ar    1  UNL1        0.0176
     19 C           0.4526    0.1627   20.1367 C.ar    1  UNL1        0.0015
     20 C           0.5777    1.4667   19.4059 C.ar    1  UNL1        0.0001
     21 C           1.8529    1.8081   18.6938 C.ar    1  UNL1        0.0015
     22 C           3.0031    0.8455   18.7124 C.ar    1  UNL1        0.0176
     23 S           7.3167   -4.8610   28.2142 S.O2    1  UNL1        0.0022
     24 O           8.7385   -4.3833   28.1979 O.2     1  UNL1       -0.1690
     25 O           5.8949   -5.3386   28.2305 O.2     1  UNL1       -0.1690
     26 C           7.9430   -6.2126   29.7245 C.3     1  UNL1        0.0240
     27 C           7.3283   -4.8443   29.7141 C.3     1  UNL1        0.1147
     28 C           6.7136   -3.4761   29.7037 C.3     1  UNL1        0.0240
     29 C           7.3399   -4.8277   31.2140 C.3     1  UNL1        0.0240
@<TRIPOS>BOND
     1    26    27    1
     2    27    28    1
     3    27    29    1
     4    27    23    1
     5    23    24    2
     6    23    25    2
     7    23     1    1
     8     1     2    2
     9     2     3    1
    10     3     4    2
    11     4     5    1
    12     5     6    2
    13     6    10    1
    14    10    11   ar
    15    11    12   ar
    16    12    13   ar
    17    13    14    2
    18    13    15   ar
    19    15    17    1
    20    17    18   ar
    21    18    19   ar
    22    19    20   ar
    23    20    21   ar
    24    21    22   ar
    25    15    16   ar
    26     6     7    1
    27     7     8    2
    28     8     9    1
    29     9     1    1
    30     8     4    1
    31    16    10   ar
    32    22    17   ar
@<TRIPOS>MOLECULE
*****
 29 32 0 0 0
SMALL
GASTEIGER

@<TRIPOS>ATOM
      1 C           2.8527   -0.4458   18.9800 C.2     1  UNL1        0.0918
      2 C           3.3240    0.8172   18.3221 C.2     1  UNL1        0.0183
      3 C           2.4958    2.0645   18.4133 C.2     1  UNL1        0.0511
      4 C           1.1963    2.0488   19.1623 C.2     1  UNL1        0.2322
      5 N           0.1736    3.1153   19.4204 N.2     1  UNL1       -0.0308
      6 C          -0.9298    2.5115   20.2377 C.2     1  UNL1        0.3767
      7 N          -0.5890    1.0718   20.4849 N.2     1  UNL1       -0.0346
      8 C           0.7250    0.7859   19.8202 C.2     1  UNL1        0.2191
      9 C           1.5532   -0.4614   19.7290 C.3     1  UNL1        0.1226
     10 C          -2.1582    3.2227   20.7228 C.ar    1  UNL1        0.1061
     11 C          -3.2458    3.5857   19.7556 C.ar    1  UNL1        0.0141
     12 C          -4.4742    4.2968   20.2406 C.ar    1  UNL1        0.0614
     13 C          -4.6151    4.6448   21.6929 C.ar    1  UNL1        0.2648
     14 O          -5.8435    5.3560   22.1779 O.2     1  UNL1       -0.2666
     15 N          -3.5275    4.2818   22.6601 N.ar    1  UNL1       -0.2729
     16 C          -2.2991    3.5707   22.1750 C.ar    1  UNL1        0.0906
     17 C          -3.6685    4.6299   24.1123 C.ar    1  UNL1        0.0669
     18 C          -4.1980    3.6129   25.0794 C.ar    1  UNL1        0.0176
     19 C          -4.3390    3.9610   26.5316 C.ar    1  UNL1        0.0015
     20 C          -3.9503    5.3261   27.0167 C.ar    1  UNL1        0.0001
     21 C          -3.4207    6.3431   26.0497 C.ar    1  UNL1        0.0015
     22 C          -3.2798    5.9950   24.5975 C.ar    1  UNL1        0.0176
     23 S           3.6809   -1.6931   18.8889 S.O2    1  UNL1        0.0022
     24 O           4.1565   -1.2779   17.5282 O.2     1  UNL1       -0.1690
     25 O           3.2054   -2.1083   20.2495 O.2     1  UNL1       -0.1690
     26 C           5.6494   -2.1423   18.2384 C.3     1  UNL1        0.0240
     27 C           4.5091   -2.9404   18.7977 C.3     1  UNL1        0.1147
     28 C           3.3688   -3.7384   19.3570 C.3     1  UNL1        0.0240
     29 C           5.3374   -4.1877   18.7066 C.3     1  UNL1        0.0240
@<TRIPOS>BOND
     1    26    27    1
     2    27    28    1
     3    27    29    1
     4    27    23    1
     5    23    24    2
     6    23    25    2
     7    23     1    1
     8     1     2    2
     9     2     3    1
    10     3     4    2
    11     4     5    1
    12     5     6    2
    13     6    10    1
    14    10    11   ar
    15    11    12   ar
    16    12    13   ar
    17    13    14    2
    18    13    15   ar
    19    15    17    1
    20    17    18   ar
    21    18    19   ar
    22    19    20   ar
    23    20    21   ar
    24    21    22   ar
    25    15    16   ar
    26     6     7    1
    27     7     8    2
    28     8     9    1
    29     9     1    1
    30     8     4    1
    31    16    10   ar
    32    22    17   ar
@<TRIPOS>MOLECULE
*****
 29 32 0 0 0
SMALL
GASTEIGER

@<TRIPOS>ATOM
      1 C           7.0132   -4.4322   26.2837 C.2     1  UNL1        0.0918
      2 C           6.4276   -3.1510   26.7989 C.2     1  UNL1        0.0183
      3 C           5.7984   -2.1776   25.8468 C.2     1  UNL1        0.0511
      4 C           5.7547   -2.4855   24.3794 C.2     1  UNL1        0.2322
      5 N           5.2042   -1.7242   23.2101 N.2     1  UNL1       -0.0308
      6 C           5.4496   -2.5349   21.9721 C.2     1  UNL1        0.3767
      7 N           6.1517   -3.7972   22.3763 N.2     1  UNL1       -0.0346
      8 C           6.3402   -3.7667   23.8642 C.2     1  UNL1        0.2191
      9 C           6.9695   -4.7401   24.8163 C.3     1  UNL1        0.1226
     10 C           5.0610   -2.1506   20.5751 C.ar    1  UNL1        0.1061
     11 C           5.5017   -2.9936   19.4154 C.ar    1  UNL1        0.0141
     12 C           5.1132   -2.6094   18.0184 C.ar    1  UNL1        0.0614
     13 C           4.2840   -1.3822   17.7813 C.ar    1  UNL1        0.2648
     14 O           3.8954   -0.9979   16.3844 O.2     1  UNL1       -0.2666
     15 N           3.8432   -0.5392   18.9411 N.ar    1  UNL1       -0.2729
     16 C           4.2318   -0.9234   20.3380 C.ar    1  UNL1        0.0906
     17 C           3.0139    0.6881   18.7039 C.ar    1  UNL1        0.0669
     18 C           3.6753    2.0294   18.5886 C.ar    1  UNL1        0.0176
     19 C           2.8460    3.2566   18.3515 C.ar    1  UNL1        0.0015
     20 C           1.3554    3.1424   18.2296 C.ar    1  UNL1        0.0001
     21 C           0.6940    1.8011   18.3449 C.ar    1  UNL1        0.0015
     22 C           1.5233    0.5739   18.5821 C.ar    1  UNL1        0.0176
     23 S           7.6425   -5.4056   27.2358 S.O2    1  UNL1        0.0022
     24 O           6.2810   -5.8409   27.6906 O.2     1  UNL1       -0.1690
     25 O           9.0040   -4.9703   26.7810 O.2     1  UNL1       -0.1690
     26 C           9.1518   -6.8886   27.0853 C.3     1  UNL1        0.0240
     27 C           8.2718   -6.3790   28.1880 C.3     1  UNL1        0.1147
     28 C           7.3917   -5.8693   29.2906 C.3     1  UNL1        0.0240
     29 C           8.9011   -7.3523   29.1401 C.3     1  UNL1        0.0240
@<TRIPOS>BOND
     1    26    27    1
     2    27    28    1
     3    27    29    1
     4    27    23    1
     5    23    24    2
     6    23    25    2
     7    23     1    1
     8     1     2    2
     9     2     3    1
    10     3     4    2
    11     4     5    1
    12     5     6    2
    13     6    10    1
    14    10    11   ar
    15    11    12   ar
    16    12    13   ar
    17    13    14    2
    18    13    15   ar
    19    15    17    1
    20    17    18   ar
    21    18    19   ar
    22    19    20   ar
    23    20    21   ar
    24    21    22   ar
    25    15    16   ar
    26     6     7    1
    27     7     8    2
    28     8     9    1
    29     9     1    1
    30     8     4    1
    31    16    10   ar
    32    22    17   ar
@<TRIPOS>MOLECULE
*****
 29 32 0 0 0
SMALL
GASTEIGER

@<TRIPOS>ATOM
      1 C           1.3896    1.1427   28.8854 C.2     1  UNL1        0.0918
      2 C           0.0064    1.7089   28.7588 C.2     1  UNL1        0.0183
      3 C          -0.6072    1.8936   27.4026 C.2     1  UNL1        0.0511
      4 C           0.1624    1.5120   26.1729 C.2     1  UNL1        0.2322
      5 N          -0.1794    1.5788   24.7139 N.2     1  UNL1       -0.0308
      6 C           0.9926    1.0539   23.9387 C.2     1  UNL1        0.3767
      7 N           2.0587    0.6626   24.9187 N.2     1  UNL1       -0.0346
      8 C           1.5456    0.9458   26.2995 C.2     1  UNL1        0.2191
      9 C           2.1592    0.7611   27.6557 C.3     1  UNL1        0.1226
     10 C           1.0826    0.9402   22.4457 C.ar    1  UNL1        0.1061
     11 C           0.1294    1.7055   21.5764 C.ar    1  UNL1        0.0141
     12 C           0.2194    1.5918   20.0835 C.ar    1  UNL1        0.0614
     13 C           1.2626    0.7129   19.4598 C.ar    1  UNL1        0.2648
     14 O           1.3526    0.5992   17.9668 O.2     1  UNL1       -0.2666
     15 N           2.2158   -0.0525   20.3291 N.ar    1  UNL1       -0.2729
     16 C           2.1259    0.0612   21.8220 C.ar    1  UNL1        0.0906
     17 C           3.2591   -0.9315   19.7053 C.ar    1  UNL1        0.0669
     18 C           4.4823   -0.3214   19.0878 C.ar    1  UNL1        0.0176
     19 C           5.5255   -1.2004   18.4641 C.ar    1  UNL1        0.0015
     20 C           5.3455   -2.6895   18.4579 C.ar    1  UNL1        0.0001
     21 C           4.1222   -3.2996   19.0754 C.ar    1  UNL1        0.0015
     22 C           3.0791   -2.4206   19.6992 C.ar    1  UNL1        0.0176
     23 S           2.0033    0.9580   30.2416 S.O2    1  UNL1        0.0022
     24 O           1.6622   -0.5020   30.1971 O.2     1  UNL1       -0.1690
     25 O           2.3443    2.4181   30.2861 O.2     1  UNL1       -0.1690
     26 C           3.2373   -0.5139   31.1418 C.3     1  UNL1        0.0240
     27 C           2.6169    0.7734   31.5978 C.3     1  UNL1        0.1147
     28 C           1.9964    2.0607   32.0538 C.3     1  UNL1        0.0240
     29 C           3.2305    0.5887   32.9541 C.3     1  UNL1        0.0240
@<TRIPOS>BOND
     1    26    27    1
     2    27    28    1
     3    27    29    1
     4    27    23    1
     5    23    24    2
     6    23    25    2
     7    23     1    1
     8     1     2    2
     9     2     3    1
    10     3     4    2
    11     4     5    1
    12     5     6    2
    13     6    10    1
    14    10    11   ar
    15    11    12   ar
    16    12    13   ar
    17    13    14    2
    18    13    15   ar
    19    15    17    1
    20    17    18   ar
    21    18    19   ar
    22    19    20   ar
    23    20    21   ar
    24    21    22   ar
    25    15    16   ar
    26     6     7    1
    27     7     8    2
    28     8     9    1
    29     9     1    1
    30     8     4    1
    31    16    10   ar
    32    22    17   ar
@<TRIPOS>MOLECULE
*****
 29 32 0 0 0
SMALL
GASTEIGER

@<TRIPOS>ATOM
      1 C          -3.6711    3.8855   20.4622 C.2     1  UNL1        0.0918
      2 C          -3.6392    4.4937   19.0915 C.2     1  UNL1        0.0183
      3 C          -2.4188    4.3431   18.2324 C.2     1  UNL1        0.0511
      4 C          -1.2304    3.5843   18.7441 C.2     1  UNL1        0.2322
      5 N           0.1021    3.2728   18.1298 N.2     1  UNL1       -0.0308
      6 C           0.8937    2.4722   19.1210 C.2     1  UNL1        0.3767
      7 N           0.0504    2.2888   20.3478 N.2     1  UNL1       -0.0346
      8 C          -1.2624    2.9761   20.1149 C.2     1  UNL1        0.2191
      9 C          -2.4827    3.1267   20.9739 C.3     1  UNL1        0.1226
     10 C           2.2845    1.9471   18.9204 C.ar    1  UNL1        0.1061
     11 C           3.3581    2.8507   18.3905 C.ar    1  UNL1        0.0141
     12 C           4.7488    2.3257   18.1899 C.ar    1  UNL1        0.0614
     13 C           5.0659    0.8971   18.5192 C.ar    1  UNL1        0.2648
     14 O           6.4567    0.3720   18.3187 O.2     1  UNL1       -0.2666
     15 N           3.9922   -0.0065   19.0491 N.ar    1  UNL1       -0.2729
     16 C           2.6015    0.5185   19.2497 C.ar    1  UNL1        0.0906
     17 C           4.3094   -1.4352   19.3784 C.ar    1  UNL1        0.0669
     18 C           4.3391   -1.8864   20.8086 C.ar    1  UNL1        0.0176
     19 C           4.6562   -3.3151   21.1378 C.ar    1  UNL1        0.0015
     20 C           4.9436   -4.2925   20.0369 C.ar    1  UNL1        0.0001
     21 C           4.9139   -3.8413   18.6067 C.ar    1  UNL1        0.0015
     22 C           4.5968   -2.4126   18.2775 C.ar    1  UNL1        0.0176
     23 S          -4.8915    4.0362   21.3213 S.O2    1  UNL1        0.0022
     24 O          -4.7251    2.6261   21.8050 O.2     1  UNL1       -0.1690
     25 O          -5.0580    5.4463   20.8376 O.2     1  UNL1       -0.1690
     26 C          -6.8528    4.7873   21.0226 C.3     1  UNL1        0.0240
     27 C          -6.1119    4.1868   22.1804 C.3     1  UNL1        0.1147
     28 C          -5.3710    3.5864   23.3382 C.3     1  UNL1        0.0240
     29 C          -7.3323    4.3374   23.0394 C.3     1  UNL1        0.0240
@<TRIPOS>BOND
     1    26    27    1
     2    27    28    1
     3    27    29    1
     4    27    23    1
     5    23    24    2
     6    23    25    2
     7    23     1    1
     8     1     2    2
     9     2     3    1
    10     3     4    2
    11     4     5    1
    12     5     6    2
    13     6    10    1
    14    10    11   ar
    15    11    12   ar
    16    12    13   ar
    17    13    14    2
    18    13    15   ar
    19    15    17    1
    20    17    18   ar
    21    18    19   ar
    22    19    20   ar
    23    20    21   ar
    24    21    22   ar
    25    15    16   ar
    26     6     7    1
    27     7     8    2
    28     8     9    1
    29     9     1    1
    30     8     4    1
    31    16    10   ar
    32    22    17   ar
@<TRIPOS>MOLECULE
*****
 29 32 0 0 0
SMALL
GASTEIGER

@<TRIPOS>ATOM
      1 C           4.0121   -0.3493   29.8337 C.2     1  UNL1        0.0918
      2 C           5.2718   -1.1518   29.9712 C.2     1  UNL1        0.0183
      3 C           5.8550   -1.8433   28.7747 C.2     1  UNL1        0.0511
      4 C           5.1785   -1.7323   27.4406 C.2     1  UNL1        0.2322
      5 N           5.5165   -2.2990   26.0935 N.2     1  UNL1       -0.0308
      6 C           4.4656   -1.8468   25.1234 C.2     1  UNL1        0.3767
      7 N           3.4781   -1.0005   25.8709 N.2     1  UNL1       -0.0346
      8 C           3.9187   -0.9298   27.3030 C.2     1  UNL1        0.2191
      9 C           3.3355   -0.2383   28.4996 C.3     1  UNL1        0.1226
     10 C           4.4117   -2.1819   23.6623 C.ar    1  UNL1        0.1061
     11 C           5.0901   -3.4181   23.1509 C.ar    1  UNL1        0.0141
     12 C           5.0363   -3.7533   21.6898 C.ar    1  UNL1        0.0614
     13 C           4.3039   -2.8523   20.7402 C.ar    1  UNL1        0.2648
     14 O           4.2500   -3.1875   19.2790 O.2     1  UNL1       -0.2666
     15 N           3.6255   -1.6161   21.2516 N.ar    1  UNL1       -0.2729
     16 C           3.6793   -1.2809   22.7126 C.ar    1  UNL1        0.0906
     17 C           2.8931   -0.7151   20.3019 C.ar    1  UNL1        0.0669
     18 C           3.6459    0.0147   19.2292 C.ar    1  UNL1        0.0176
     19 C           2.9135    0.9157   18.2796 C.ar    1  UNL1        0.0015
     20 C           1.4284    1.0868   18.4026 C.ar    1  UNL1        0.0001
     21 C           0.6756    0.3570   19.4752 C.ar    1  UNL1        0.0015
     22 C           1.4080   -0.5440   20.4249 C.ar    1  UNL1        0.0176
     23 S           3.4289    0.3422   31.0302 S.O2    1  UNL1        0.0022
     24 O           2.5258   -0.8316   31.2684 O.2     1  UNL1       -0.1690
     25 O           4.3319    1.5159   30.7921 O.2     1  UNL1       -0.1690
     26 C           3.7059    0.1988   33.1285 C.3     1  UNL1        0.0240
     27 C           2.8457    1.0336   32.2268 C.3     1  UNL1        0.1147
     28 C           1.9854    1.8684   31.3251 C.3     1  UNL1        0.0240
     29 C           2.2625    1.7251   33.4233 C.3     1  UNL1        0.0240
@<TRIPOS>BOND
     1    26    27    1
     2    27    28    1
     3    27    29    1
     4    27    23    1
     5    23    24    2
     6    23    25    2
     7    23     1    1
     8     1     2    2
     9     2     3    1
    10     3     4    2
    11     4     5    1
    12     5     6    2
    13     6    10    1
    14    10    11   ar
    15    11    12   ar
    16    12    13   ar
    17    13    14    2
    18    13    15   ar
    19    15    17    1
    20    17    18   ar
    21    18    19   ar
    22    19    20   ar
    23    20    21   ar
    24    21    22   ar
    25    15    16   ar
    26     6     7    1
    27     7     8    2
    28     8     9    1
    29     9     1    1
    30     8     4    1
    31    16    10   ar
    32    22    17   ar
@<TRIPOS>MOLECULE
*****
 29 32 0 0 0
SMALL
GASTEIGER

@<TRIPOS>ATOM
      1 C           1.0258    1.5237   28.4719 C.2     1  UNL1        0.0918
      2 C          -0.3782    1.7947   28.0189 C.2     1  UNL1        0.0183
      3 C          -0.7222    1.7253   26.5605 C.2     1  UNL1        0.0511
      4 C           0.3377    1.3849   25.5552 C.2     1  UNL1        0.2322
      5 N           0.2969    1.2436   24.0625 N.2     1  UNL1       -0.0308
      6 C           1.6757    0.8852   23.5929 C.2     1  UNL1        0.3767
      7 N           2.5687    0.8050   24.7955 N.2     1  UNL1       -0.0346
      8 C           1.7416    1.1138   26.0083 C.2     1  UNL1        0.2191
      9 C           2.0857    1.1833   27.4666 C.3     1  UNL1        0.1226
     10 C           2.0890    0.6486   22.1705 C.ar    1  UNL1        0.1061
     11 C           1.7922    1.6793   21.1219 C.ar    1  UNL1        0.0141
     12 C           2.2054    1.4427   19.6995 C.ar    1  UNL1        0.0614
     13 C           2.9155    0.1754   19.3257 C.ar    1  UNL1        0.2648
     14 O           3.3288   -0.0612   17.9033 O.2     1  UNL1       -0.2666
     15 N           3.2123   -0.8553   20.3743 N.ar    1  UNL1       -0.2729
     16 C           2.7991   -0.6187   21.7967 C.ar    1  UNL1        0.0906
     17 C           3.9224   -2.1226   20.0005 C.ar    1  UNL1        0.0669
     18 C           3.1587   -3.2557   19.3817 C.ar    1  UNL1        0.0176
     19 C           3.8688   -4.5230   19.0079 C.ar    1  UNL1        0.0015
     20 C           5.3426   -4.6571   19.2528 C.ar    1  UNL1        0.0001
     21 C           6.1063   -3.5241   19.8716 C.ar    1  UNL1        0.0015
     22 C           5.3962   -2.2568   20.2454 C.ar    1  UNL1        0.0176
     23 S           1.3699    1.5931   29.9303 S.O2    1  UNL1        0.0022
     24 O           0.9646    0.1582   30.0942 O.2     1  UNL1       -0.1690
     25 O           1.7752    3.0280   29.7663 O.2     1  UNL1       -0.1690
     26 C           0.7002    2.7521   31.5760 C.3     1  UNL1        0.0240
     27 C           1.7140    1.6625   31.3886 C.3     1  UNL1        0.1147
     28 C           2.7278    0.5730   31.2013 C.3     1  UNL1        0.0240
     29 C           2.0581    1.7319   32.8470 C.3     1  UNL1        0.0240
@<TRIPOS>BOND
     1    26    27    1
     2    27    28    1
     3    27    29    1
     4    27    23    1
     5    23    24    2
     6    23    25    2
     7    23     1    1
     8     1     2    2
     9     2     3    1
    10     3     4    2
    11     4     5    1
    12     5     6    2
    13     6    10    1
    14    10    11   ar
    15    11    12   ar
    16    12    13   ar
    17    13    14    2
    18    13    15   ar
    19    15    17    1
    20    17    18   ar
    21    18    19   ar
    22    19    20   ar
    23    20    21   ar
    24    21    22   ar
    25    15    16   ar
    26     6     7    1
    27     7     8    2
    28     8     9    1
    29     9     1    1
    30     8     4    1
    31    16    10   ar
    32    22    17   ar
@<TRIPOS>MOLECULE
*****
 29 32 0 0 0
SMALL
GASTEIGER

@<TRIPOS>ATOM
      1 C           7.6099   -5.3639   26.5223 C.2     1  UNL1        0.0918
      2 C           8.5975   -6.0834   25.6523 C.2     1  UNL1        0.0183
      3 C           8.5534   -5.9072   24.1633 C.2     1  UNL1        0.0511
      4 C           7.5216   -5.0115   23.5443 C.2     1  UNL1        0.2322
      5 N           7.2360   -4.6452   22.1181 N.2     1  UNL1       -0.0308
      6 C           6.0719   -3.6993   22.1065 C.2     1  UNL1        0.3767
      7 N           5.6380   -3.4810   23.5257 N.2     1  UNL1       -0.0346
      8 C           6.5340   -4.2920   24.4143 C.2     1  UNL1        0.2191
      9 C           6.5781   -4.4682   25.9033 C.3     1  UNL1        0.1226
     10 C           5.4507   -3.0804   20.8895 C.ar    1  UNL1        0.1061
     11 C           4.2743   -3.7381   20.2311 C.ar    1  UNL1        0.0141
     12 C           3.6531   -3.1193   19.0141 C.ar    1  UNL1        0.0614
     13 C           4.2084   -1.8428   18.4554 C.ar    1  UNL1        0.2648
     14 O           3.5872   -1.2239   17.2383 O.2     1  UNL1       -0.2666
     15 N           5.3849   -1.1851   19.1138 N.ar    1  UNL1       -0.2729
     16 C           6.0060   -1.8039   20.3308 C.ar    1  UNL1        0.0906
     17 C           5.9402    0.0914   18.5550 C.ar    1  UNL1        0.0669
     18 C           6.9606    0.0480   17.4565 C.ar    1  UNL1        0.0176
     19 C           7.5158    1.3245   16.8978 C.ar    1  UNL1        0.0015
     20 C           7.0507    2.6444   17.4376 C.ar    1  UNL1        0.0001
     21 C           6.0303    2.6878   18.5361 C.ar    1  UNL1        0.0015
     22 C           5.4750    1.4113   19.0948 C.ar    1  UNL1        0.0176
     23 S           7.6540   -5.5401   28.0112 S.O2    1  UNL1        0.0022
     24 O           6.1604   -5.4148   28.0703 O.2     1  UNL1       -0.1690
     25 O           9.1476   -5.6653   27.9521 O.2     1  UNL1       -0.1690
     26 C           8.6795   -6.8391   29.3382 C.3     1  UNL1        0.0240
     27 C           7.6981   -5.7163   29.5002 C.3     1  UNL1        0.1147
     28 C           6.7167   -4.5935   29.6621 C.3     1  UNL1        0.0240
     29 C           7.7422   -5.8925   30.9891 C.3     1  UNL1        0.0240
@<TRIPOS>BOND
     1    26    27    1
     2    27    28    1
     3    27    29    1
     4    27    23    1
     5    23    24    2
     6    23    25    2
     7    23     1    1
     8     1     2    2
     9     2     3    1
    10     3     4    2
    11     4     5    1
    12     5     6    2
    13     6    10    1
    14    10    11   ar
    15    11    12   ar
    16    12    13   ar
    17    13    14    2
    18    13    15   ar
    19    15    17    1
    20    17    18   ar
    21    18    19   ar
    22    19    20   ar
    23    20    21   ar
    24    21    22   ar
    25    15    16   ar
    26     6     7    1
    27     7     8    2
    28     8     9    1
    29     9     1    1
    30     8     4    1
    31    16    10   ar
    32    22    17   ar
