@<TRIPOS>MOLECULE
*****
 21 22 0 0 0
SMALL
GASTEIGER

@<TRIPOS>ATOM
      1 N         -11.5899  -17.8024   22.1610 N.3     1  UNL1       -0.2711
      2 C         -11.8354  -18.6731   20.9645 C.3     1  UNL1        0.0939
      3 C         -10.6800  -19.3102   20.2509 C.3     1  UNL1        0.1123
      4 N          -9.2793  -19.0766   20.7338 N.am    1  UNL1       -0.2612
      5 C          -8.1239  -19.7137   20.0201 C.2     1  UNL1        0.3072
      6 O          -8.3693  -20.5844   18.8236 O.2     1  UNL1       -0.2523
      7 N          -6.7231  -19.4802   20.5030 N.am    1  UNL1       -0.2640
      8 C          -6.4776  -18.6094   21.6995 C.3     1  UNL1        0.0949
      9 C          -5.0768  -18.3759   22.1824 C.3     1  UNL1        0.0216
     10 C          -3.9215  -19.0130   21.4688 C.3     1  UNL1        0.0034
     11 C          -4.1669  -19.8836   20.2723 C.3     1  UNL1        0.0216
     12 C          -5.5678  -20.1173   19.7894 C.3     1  UNL1        0.0949
     13 C          -9.0338  -18.2059   21.9303 C.3     1  UNL1        0.1123
     14 C         -10.1892  -17.5688   22.6439 C.3     1  UNL1        0.0939
     15 C          -2.5206  -18.7794   21.9517 C.3     1  UNL1        0.0001
     16 C          -1.9995  -19.6927   20.8821 C.3     1  UNL1        0.0000
     17 C          -3.0418  -17.8660   23.0213 C.3     1  UNL1        0.0000
     18 C          -1.1199  -18.5457   22.4346 C.3     1  UNL1        0.0000
     19 C         -13.6532  -18.0011   23.7273 C.3     1  UNL1        0.0173
     20 C         -12.7453  -17.1653   22.8747 C.3     1  UNL1        0.0577
     21 C         -12.9927  -15.6924   22.7356 C.3     1  UNL1        0.0173
@<TRIPOS>BOND
     1    19    20    1
     2    20    21    1
     3    20     1    1
     4     1     2    1
     5     2     3    1
     6     3     4    1
     7     4     5   am
     8     5     6    2
     9     5     7   am
    10     7     8    1
    11     8     9    1
    12     9    10    1
    13    10    15    1
    14    15    16    1
    15    15    17    1
    16    15    18    1
    17    10    11    1
    18    11    12    1
    19     4    13    1
    20    13    14    1
    21    14     1    1
    22    12     7    1
@<TRIPOS>MOLECULE
*****
 21 22 0 0 0
SMALL
GASTEIGER

@<TRIPOS>ATOM
      1 N         -10.6432   -5.6101   17.9419 N.3     1  UNL1       -0.2711
      2 C          -9.6935   -4.6370   17.3087 C.3     1  UNL1        0.0939
      3 C         -10.0406   -3.1788   17.2523 C.3     1  UNL1        0.1123
      4 N         -11.3375   -2.6937   17.8292 N.am    1  UNL1       -0.2612
      5 C         -11.6846   -1.2355   17.7729 C.2     1  UNL1        0.3072
      6 O         -10.7349   -0.2624   17.1397 O.2     1  UNL1       -0.2523
      7 N         -12.9815   -0.7505   18.3497 N.am    1  UNL1       -0.2640
      8 C         -13.9313   -1.7236   18.9830 C.3     1  UNL1        0.0949
      9 C         -15.2281   -1.2385   19.5598 C.3     1  UNL1        0.0216
     10 C         -15.5753    0.2197   19.5035 C.3     1  UNL1        0.0034
     11 C         -14.6255    1.1928   18.8703 C.3     1  UNL1        0.0216
     12 C         -13.3286    0.7077   18.2934 C.3     1  UNL1        0.0949
     13 C         -12.2872   -3.6668   18.4624 C.3     1  UNL1        0.1123
     14 C         -11.9401   -5.1250   18.5187 C.3     1  UNL1        0.0939
     15 C         -16.8722    0.7047   20.0804 C.3     1  UNL1        0.0001
     16 C         -16.3469    2.1097   20.0801 C.3     1  UNL1        0.0000
     17 C         -17.3975   -0.7003   20.0807 C.3     1  UNL1        0.0000
     18 C         -18.1691    1.1897   20.6573 C.3     1  UNL1        0.0000
     19 C         -10.9621   -8.0344   17.0639 C.3     1  UNL1        0.0173
     20 C         -10.2961   -7.0683   17.9982 C.3     1  UNL1        0.0577
     21 C          -9.2831   -7.5604   18.9889 C.3     1  UNL1        0.0173
@<TRIPOS>BOND
     1    19    20    1
     2    20    21    1
     3    20     1    1
     4     1     2    1
     5     2     3    1
     6     3     4    1
     7     4     5   am
     8     5     6    2
     9     5     7   am
    10     7     8    1
    11     8     9    1
    12     9    10    1
    13    10    15    1
    14    15    16    1
    15    15    17    1
    16    15    18    1
    17    10    11    1
    18    11    12    1
    19     4    13    1
    20    13    14    1
    21    14     1    1
    22    12     7    1
@<TRIPOS>MOLECULE
*****
 21 22 0 0 0
SMALL
GASTEIGER

@<TRIPOS>ATOM
      1 N           7.9779   -5.8721   27.5504 N.3     1  UNL1       -0.2711
      2 C           9.0773   -6.3390   26.6431 C.3     1  UNL1        0.0939
      3 C           9.0306   -6.0141   25.1795 C.3     1  UNL1        0.1123
      4 N           7.8846   -5.2223   24.6232 N.am    1  UNL1       -0.2612
      5 C           7.8379   -4.8973   23.1595 C.2     1  UNL1        0.3072
      6 O           8.9373   -5.3642   22.2522 O.2     1  UNL1       -0.2523
      7 N           6.6918   -4.1056   22.6032 N.am    1  UNL1       -0.2640
      8 C           5.5923   -3.6386   23.5106 C.3     1  UNL1        0.0949
      9 C           4.4462   -2.8468   22.9543 C.3     1  UNL1        0.0216
     10 C           4.3996   -2.5219   21.4906 C.3     1  UNL1        0.0034
     11 C           5.4990   -2.9888   20.5833 C.3     1  UNL1        0.0216
     12 C           6.6451   -3.7806   21.1396 C.3     1  UNL1        0.0949
     13 C           6.7852   -4.7554   25.5305 C.3     1  UNL1        0.1123
     14 C           6.8318   -5.0803   26.9941 C.3     1  UNL1        0.0939
     15 C           3.2534   -1.7301   20.9343 C.3     1  UNL1        0.0001
     16 C           3.0987   -1.0288   22.2512 C.3     1  UNL1        0.0000
     17 C           3.4082   -2.4313   19.6174 C.3     1  UNL1        0.0000
     18 C           2.1073   -0.9383   20.3780 C.3     1  UNL1        0.0000
     19 C           9.1360   -7.0441   29.5592 C.3     1  UNL1        0.0173
     20 C           8.0246   -6.1971   29.0141 C.3     1  UNL1        0.0577
     21 C           6.9598   -5.6750   29.9326 C.3     1  UNL1        0.0173
@<TRIPOS>BOND
     1    19    20    1
     2    20    21    1
     3    20     1    1
     4     1     2    1
     5     2     3    1
     6     3     4    1
     7     4     5   am
     8     5     6    2
     9     5     7   am
    10     7     8    1
    11     8     9    1
    12     9    10    1
    13    10    15    1
    14    15    16    1
    15    15    17    1
    16    15    18    1
    17    10    11    1
    18    11    12    1
    19     4    13    1
    20    13    14    1
    21    14     1    1
    22    12     7    1
@<TRIPOS>MOLECULE
*****
 21 22 0 0 0
SMALL
GASTEIGER

@<TRIPOS>ATOM
      1 N         -10.7447  -17.4242   22.9914 N.3     1  UNL1       -0.2711
      2 C         -10.4697  -16.4487   24.0971 C.3     1  UNL1        0.0939
      3 C          -9.0568  -16.0684   24.4277 C.3     1  UNL1        0.1123
      4 N          -7.9190  -16.6637   23.6524 N.am    1  UNL1       -0.2612
      5 C          -6.5062  -16.2834   23.9830 C.2     1  UNL1        0.3072
      6 O          -6.2311  -15.3079   25.0887 O.2     1  UNL1       -0.2523
      7 N          -5.3684  -16.8787   23.2077 N.am    1  UNL1       -0.2640
      8 C          -5.6434  -17.8542   22.1019 C.3     1  UNL1        0.0949
      9 C          -4.5056  -18.4495   21.3267 C.3     1  UNL1        0.0216
     10 C          -3.0927  -18.0693   21.6572 C.3     1  UNL1        0.0034
     11 C          -2.8177  -17.0938   22.7630 C.3     1  UNL1        0.0216
     12 C          -3.9555  -16.4984   23.5383 C.3     1  UNL1        0.0949
     13 C          -8.1941  -17.6392   22.5467 C.3     1  UNL1        0.1123
     14 C          -9.6069  -18.0194   22.2162 C.3     1  UNL1        0.0939
     15 C          -1.9549  -18.6646   20.8819 C.3     1  UNL1        0.0001
     16 C          -1.4372  -17.2885   20.5849 C.3     1  UNL1        0.0000
     17 C          -2.4726  -20.0407   21.1789 C.3     1  UNL1        0.0000
     18 C          -0.8171  -19.2599   20.1067 C.3     1  UNL1        0.0000
     19 C         -13.1140  -18.1640   23.7590 C.3     1  UNL1        0.0173
     20 C         -12.1576  -17.8044   22.6609 C.3     1  UNL1        0.0577
     21 C         -12.6141  -17.8251   21.2322 C.3     1  UNL1        0.0173
@<TRIPOS>BOND
     1    19    20    1
     2    20    21    1
     3    20     1    1
     4     1     2    1
     5     2     3    1
     6     3     4    1
     7     4     5   am
     8     5     6    2
     9     5     7   am
    10     7     8    1
    11     8     9    1
    12     9    10    1
    13    10    15    1
    14    15    16    1
    15    15    17    1
    16    15    18    1
    17    10    11    1
    18    11    12    1
    19     4    13    1
    20    13    14    1
    21    14     1    1
    22    12     7    1
@<TRIPOS>MOLECULE
*****
 21 22 0 0 0
SMALL
GASTEIGER

@<TRIPOS>ATOM
      1 N           7.6196   -5.0216   22.7752 N.3     1  UNL1       -0.2711
      2 C           8.5707   -4.9388   21.6183 C.3     1  UNL1        0.0939
      3 C           8.2616   -4.0425   20.4559 C.3     1  UNL1        0.1123
      4 N           7.0014   -3.2290   20.4505 N.am    1  UNL1       -0.2612
      5 C           6.6923   -2.3327   19.2881 C.2     1  UNL1        0.3072
      6 O           7.6433   -2.2499   18.1312 O.2     1  UNL1       -0.2523
      7 N           5.4321   -1.5192   19.2827 N.am    1  UNL1       -0.2640
      8 C           4.4809   -1.6020   20.4396 C.3     1  UNL1        0.0949
      9 C           3.2207   -0.7885   20.4342 C.3     1  UNL1        0.0216
     10 C           2.9116    0.1078   19.2718 C.3     1  UNL1        0.0034
     11 C           3.8627    0.1906   18.1149 C.3     1  UNL1        0.0216
     12 C           5.1230   -0.6229   18.1203 C.3     1  UNL1        0.0949
     13 C           6.0503   -3.3118   21.6074 C.3     1  UNL1        0.1123
     14 C           6.3594   -4.2081   22.7698 C.3     1  UNL1        0.0939
     15 C           1.6513    0.9214   19.2664 C.3     1  UNL1        0.0001
     16 C           0.9527   -0.1556   20.0423 C.3     1  UNL1        0.0000
     17 C           2.3499    1.9983   18.4905 C.3     1  UNL1        0.0000
     18 C           0.3911    1.7349   19.2610 C.3     1  UNL1        0.0000
     19 C           8.6355   -7.2216   23.7122 C.3     1  UNL1        0.0173
     20 C           7.9287   -5.9179   23.9376 C.3     1  UNL1        0.0577
     21 C           7.5309   -5.5106   25.3253 C.3     1  UNL1        0.0173
@<TRIPOS>BOND
     1    19    20    1
     2    20    21    1
     3    20     1    1
     4     1     2    1
     5     2     3    1
     6     3     4    1
     7     4     5   am
     8     5     6    2
     9     5     7   am
    10     7     8    1
    11     8     9    1
    12     9    10    1
    13    10    15    1
    14    15    16    1
    15    15    17    1
    16    15    18    1
    17    10    11    1
    18    11    12    1
    19     4    13    1
    20    13    14    1
    21    14     1    1
    22    12     7    1
@<TRIPOS>MOLECULE
*****
 21 22 0 0 0
SMALL
GASTEIGER

@<TRIPOS>ATOM
      1 N           6.7611   -3.7458   25.9639 N.3     1  UNL1       -0.2711
      2 C           7.5221   -4.6834   25.0741 C.3     1  UNL1        0.0939
      3 C           7.2710   -4.6837   23.5953 C.3     1  UNL1        0.1123
      4 N           6.2590   -3.7463   23.0062 N.am    1  UNL1       -0.2612
      5 C           6.0080   -3.7465   21.5273 C.2     1  UNL1        0.3072
      6 O           6.7689   -4.6841   20.6376 O.2     1  UNL1       -0.2523
      7 N           4.9959   -2.8091   20.9383 N.am    1  UNL1       -0.2640
      8 C           4.2349   -1.8714   21.8281 C.3     1  UNL1        0.0949
      9 C           3.2229   -0.9340   21.2390 C.3     1  UNL1        0.0216
     10 C           2.9719   -0.9342   19.7601 C.3     1  UNL1        0.0034
     11 C           3.7328   -1.8718   18.8704 C.3     1  UNL1        0.0216
     12 C           4.7449   -2.8093   19.4594 C.3     1  UNL1        0.0949
     13 C           5.4981   -2.8086   23.8960 C.3     1  UNL1        0.1123
     14 C           5.7491   -2.8084   25.3748 C.3     1  UNL1        0.0939
     15 C           1.9598    0.0033   19.1711 C.3     1  UNL1        0.0001
     16 C           0.9620   -0.4231   20.2067 C.3     1  UNL1        0.0000
     17 C           2.9576    0.4297   18.1355 C.3     1  UNL1        0.0000
     18 C           0.9478    0.9407   18.5820 C.3     1  UNL1        0.0000
     19 C           7.8223   -2.6477   28.0657 C.3     1  UNL1        0.0173
     20 C           7.0122   -3.7456   27.4427 C.3     1  UNL1        0.0577
     21 C           6.4530   -4.8433   28.2985 C.3     1  UNL1        0.0173
@<TRIPOS>BOND
     1    19    20    1
     2    20    21    1
     3    20     1    1
     4     1     2    1
     5     2     3    1
     6     3     4    1
     7     4     5   am
     8     5     6    2
     9     5     7   am
    10     7     8    1
    11     8     9    1
    12     9    10    1
    13    10    15    1
    14    15    16    1
    15    15    17    1
    16    15    18    1
    17    10    11    1
    18    11    12    1
    19     4    13    1
    20    13    14    1
    21    14     1    1
    22    12     7    1
@<TRIPOS>MOLECULE
*****
 21 22 0 0 0
SMALL
GASTEIGER

@<TRIPOS>ATOM
      1 N          -0.6063    2.3942   24.8822 N.3     1  UNL1       -0.2711
      2 C          -1.1978    3.3445   23.8837 C.3     1  UNL1        0.0939
      3 C          -0.8307    3.2330   22.4335 C.3     1  UNL1        0.1123
      4 N           0.1279    2.1714   21.9820 N.am    1  UNL1       -0.2612
      5 C           0.4950    2.0599   20.5319 C.2     1  UNL1        0.3072
      6 O          -0.0965    3.0102   19.5333 O.2     1  UNL1       -0.2523
      7 N           1.4536    0.9983   20.0803 N.am    1  UNL1       -0.2640
      8 C           2.0451    0.0480   21.0789 C.3     1  UNL1        0.0949
      9 C           3.0037   -1.0137   20.6273 C.3     1  UNL1        0.0216
     10 C           3.3708   -1.1251   19.1772 C.3     1  UNL1        0.0034
     11 C           2.7793   -0.1749   18.1787 C.3     1  UNL1        0.0216
     12 C           1.8207    0.8869   18.6302 C.3     1  UNL1        0.0949
     13 C           0.7194    1.2212   22.9806 C.3     1  UNL1        0.1123
     14 C           0.3523    1.3326   24.4307 C.3     1  UNL1        0.0939
     15 C           4.3295   -2.1868   18.7257 C.3     1  UNL1        0.0001
     16 C           3.4954   -3.2302   19.4081 C.3     1  UNL1        0.0000
     17 C           5.1635   -1.1435   18.0433 C.3     1  UNL1        0.0000
     18 C           5.2881   -3.2485   18.2742 C.3     1  UNL1        0.0000
     19 C          -0.6098    1.4054   27.2847 C.3     1  UNL1        0.0173
     20 C          -0.9734    2.5057   26.3323 C.3     1  UNL1        0.0577
     21 C          -1.7041    3.7174   26.8300 C.3     1  UNL1        0.0173
@<TRIPOS>BOND
     1    19    20    1
     2    20    21    1
     3    20     1    1
     4     1     2    1
     5     2     3    1
     6     3     4    1
     7     4     5   am
     8     5     6    2
     9     5     7   am
    10     7     8    1
    11     8     9    1
    12     9    10    1
    13    10    15    1
    14    15    16    1
    15    15    17    1
    16    15    18    1
    17    10    11    1
    18    11    12    1
    19     4    13    1
    20    13    14    1
    21    14     1    1
    22    12     7    1
@<TRIPOS>MOLECULE
*****
 21 22 0 0 0
SMALL
GASTEIGER

@<TRIPOS>ATOM
      1 N           3.5993   -0.3870   27.9937 N.3     1  UNL1       -0.2711
      2 C           2.8305    0.8063   27.5090 C.3     1  UNL1        0.0939
      3 C           2.5285    0.9609   26.0479 C.3     1  UNL1        0.1123
      4 N           2.9951   -0.0777   25.0715 N.am    1  UNL1       -0.2612
      5 C           2.6931    0.0770   23.6104 C.2     1  UNL1        0.3072
      6 O           1.9243    1.2703   23.1257 O.2     1  UNL1       -0.2523
      7 N           3.1597   -0.9617   22.6340 N.am    1  UNL1       -0.2640
      8 C           3.9285   -2.1551   23.1187 C.3     1  UNL1        0.0949
      9 C           4.3952   -3.1937   22.1423 C.3     1  UNL1        0.0216
     10 C           4.0932   -3.0390   20.6812 C.3     1  UNL1        0.0034
     11 C           3.3244   -1.8457   20.1965 C.3     1  UNL1        0.0216
     12 C           2.8577   -0.8070   21.1729 C.3     1  UNL1        0.0949
     13 C           3.7639   -1.2710   25.5562 C.3     1  UNL1        0.1123
     14 C           4.0659   -1.4257   27.0173 C.3     1  UNL1        0.0939
     15 C           4.5599   -4.0777   19.7048 C.3     1  UNL1        0.0001
     16 C           3.1567   -4.2313   19.1974 C.3     1  UNL1        0.0000
     17 C           5.9630   -3.9242   20.2122 C.3     1  UNL1        0.0000
     18 C           5.0266   -5.1164   18.7285 C.3     1  UNL1        0.0000
     19 C           5.3153   -0.7487   29.9106 C.3     1  UNL1        0.0173
     20 C           3.9013   -0.5417   29.4548 C.3     1  UNL1        0.0577
     21 C           2.7894   -0.4894   30.4602 C.3     1  UNL1        0.0173
@<TRIPOS>BOND
     1    19    20    1
     2    20    21    1
     3    20     1    1
     4     1     2    1
     5     2     3    1
     6     3     4    1
     7     4     5   am
     8     5     6    2
     9     5     7   am
    10     7     8    1
    11     8     9    1
    12     9    10    1
    13    10    15    1
    14    15    16    1
    15    15    17    1
    16    15    18    1
    17    10    11    1
    18    11    12    1
    19     4    13    1
    20    13    14    1
    21    14     1    1
    22    12     7    1
@<TRIPOS>MOLECULE
*****
 21 22 0 0 0
SMALL
GASTEIGER

@<TRIPOS>ATOM
      1 N           2.5159   -0.1223   19.3754 N.3     1  UNL1       -0.2711
      2 C           3.4231   -0.0114   18.1860 C.3     1  UNL1        0.0939
      3 C           4.7322   -0.7435   18.1703 C.3     1  UNL1        0.1123
      4 N           5.1341   -1.5866   19.3440 N.am    1  UNL1       -0.2612
      5 C           6.4432   -2.3188   19.3283 C.2     1  UNL1        0.3072
      6 O           7.3504   -2.2078   18.1389 O.2     1  UNL1       -0.2523
      7 N           6.8451   -3.1619   20.5020 N.am    1  UNL1       -0.2640
      8 C           5.9379   -3.2729   21.6914 C.3     1  UNL1        0.0949
      9 C           6.3399   -4.1159   22.8651 C.3     1  UNL1        0.0216
     10 C           7.6490   -4.8481   22.8494 C.3     1  UNL1        0.0034
     11 C           8.5561   -4.7371   21.6600 C.3     1  UNL1        0.0216
     12 C           8.1542   -3.8940   20.4863 C.3     1  UNL1        0.0949
     13 C           4.2269   -1.6976   20.5334 C.3     1  UNL1        0.1123
     14 C           2.9178   -0.9654   20.5490 C.3     1  UNL1        0.0939
     15 C           8.0509   -5.6912   24.0232 C.3     1  UNL1        0.0001
     16 C           7.2229   -4.8271   24.9275 C.3     1  UNL1        0.0000
     17 C           8.8788   -6.5553   23.1190 C.3     1  UNL1        0.0000
     18 C           8.4528   -6.5343   25.1969 C.3     1  UNL1        0.0000
     19 C           0.1996    0.3224   20.4647 C.3     1  UNL1        0.0173
     20 C           1.2068    0.6098   19.3911 C.3     1  UNL1        0.0577
     21 C           0.9050    1.6293   18.3331 C.3     1  UNL1        0.0173
@<TRIPOS>BOND
     1    19    20    1
     2    20    21    1
     3    20     1    1
     4     1     2    1
     5     2     3    1
     6     3     4    1
     7     4     5   am
     8     5     6    2
     9     5     7   am
    10     7     8    1
    11     8     9    1
    12     9    10    1
    13    10    15    1
    14    15    16    1
    15    15    17    1
    16    15    18    1
    17    10    11    1
    18    11    12    1
    19     4    13    1
    20    13    14    1
    21    14     1    1
    22    12     7    1
