@<TRIPOS>MOLECULE
*****
 38 42 0 0 0
SMALL
GASTEIGER

@<TRIPOS>ATOM
      1 C          -6.1396  -20.6223   19.7449 C.3     1  UNL1        0.0666
      2 S          -6.7389  -19.2493   19.6712 S.3     1  UNL1       -0.0756
      3 C          -9.8171  -20.0498   20.4017 C.3     1  UNL1        0.1337
      4 N          -8.9535  -19.0852   21.1591 N.ar    1  UNL1       -0.2918
      5 C          -7.5386  -18.7172   20.8233 C.ar    1  UNL1        0.1930
      6 N          -7.0637  -17.7238   21.8420 N.ar    1  UNL1       -0.1224
      7 N          -8.1851  -17.4777   22.8073 N.ar    1  UNL1       -0.1328
      8 C          -9.3531  -18.3191   22.3854 C.ar    1  UNL1        0.1433
      9 C         -10.6865  -18.3832   23.0694 C.3     1  UNL1        0.0622
     10 C         -11.9432  -18.1410   22.2872 C.3     1  UNL1        0.0291
     11 C         -13.2766  -18.2051   22.9712 C.3     1  UNL1        0.0954
     12 N         -13.3532  -18.5114   24.4377 N.am    1  UNL1       -0.2644
     13 C         -14.6865  -18.5754   25.1218 C.2     1  UNL1        0.3008
     14 N         -15.9433  -18.3332   24.3395 N.am    1  UNL1       -0.3132
     15 O         -14.7632  -18.8817   26.5882 O.2     1  UNL1       -0.2528
     16 C         -12.0964  -18.7535   25.2200 C.3     1  UNL1        0.0954
     17 C         -10.7631  -18.6895   24.5358 C.3     1  UNL1        0.0291
     18 H         -15.8930  -18.1322   23.3771 H       1  UNL1        0.1465
     19 H         -16.8184  -18.3753   24.7885 H       1  UNL1        0.1465
     20 C          -4.9969  -20.8927   20.6783 C.3     1  UNL1        0.0294
     21 C          -3.5858  -20.6717   20.2201 C.3     1  UNL1        0.0730
     22 N          -2.9121  -19.3558   20.4743 N.3     1  UNL1       -0.2726
     23 C          -1.7082  -18.8276   19.7520 C.3     1  UNL1        0.0721
     24 C          -1.3762  -17.4825   20.3267 C.3     1  UNL1        0.0190
     25 C          -2.3747  -17.1794   21.4042 C.3     1  UNL1        0.0201
     26 C          -1.8092  -15.8390   21.7696 C.3     1  UNL1        0.0061
     27 C          -3.0130  -16.3672   22.4919 C.3     1  UNL1        0.0237
     28 C          -3.3240  -18.3372   21.4954 C.3     1  UNL1        0.0724
     29 C          -4.0765  -16.2033   23.5369 C.ar    1  UNL1       -0.0225
     30 C          -5.1784  -15.2056   23.3356 C.ar    1  UNL1       -0.0043
     31 C          -6.2419  -15.0417   24.3806 C.ar    1  UNL1        0.0035
     32 C          -6.2036  -15.8756   25.6269 C.ar    1  UNL1        0.0714
     33 C          -5.1017  -16.8733   25.8281 C.ar    1  UNL1        0.0035
     34 C          -4.0382  -17.0372   24.7832 C.ar    1  UNL1       -0.0043
     35 C          -7.2671  -15.7117   26.6719 C.3     1  UNL1        0.4186
     36 F          -8.3307  -15.5478   27.7169 F       1  UNL1       -0.1659
     37 F          -8.2027  -16.5488   25.8510 F       1  UNL1       -0.1659
     38 F          -6.3315  -14.8746   27.4928 F       1  UNL1       -0.1659
@<TRIPOS>BOND
     1     3     4    1
     2     4     5   ar
     3     5     2    1
     4     2     1    1
     5     1    20    1
     6    20    21    1
     7    21    22    1
     8    22    23    1
     9    23    24    1
    10    25    24    1
    11    25    26    1
    12    26    27    1
    13    27    29    1
    14    29    30   ar
    15    30    31   ar
    16    31    32   ar
    17    32    35    1
    18    35    36    1
    19    35    37    1
    20    35    38    1
    21    32    33   ar
    22    33    34   ar
    23    25    28    1
    24     5     6   ar
    25     6     7   ar
    26     7     8   ar
    27     8     9    1
    28     9    10    1
    29    10    11    1
    30    11    12    1
    31    12    13   am
    32    13    14   am
    33    13    15    2
    34    12    16    1
    35    16    17    1
    36     8     4   ar
    37    17     9    1
    38    28    22    1
    39    27    25    1
    40    34    29   ar
    41    14    18    1
    42    14    19    1
@<TRIPOS>MOLECULE
*****
 38 42 0 0 0
SMALL
GASTEIGER

@<TRIPOS>ATOM
      1 C          -8.0204  -16.0322   27.5297 C.3     1  UNL1        0.0666
      2 S          -6.6047  -15.6125   27.2663 S.3     1  UNL1       -0.0756
      3 C          -3.9795  -17.2021   26.1567 C.3     1  UNL1        0.1337
      4 N          -4.8753  -16.3088   25.3507 N.ar    1  UNL1       -0.2918
      5 C          -6.0819  -15.5781   25.8607 C.ar    1  UNL1        0.1930
      6 N          -6.6740  -14.8069   24.7185 N.ar    1  UNL1       -0.1224
      7 N          -5.8333  -15.0610   23.5025 N.ar    1  UNL1       -0.1328
      8 C          -4.7216  -15.9892   23.8932 C.ar    1  UNL1        0.1433
      9 C          -3.6453  -16.5069   22.9857 C.3     1  UNL1        0.0622
     10 C          -2.7784  -15.5467   22.2264 C.3     1  UNL1        0.0291
     11 C          -1.7020  -16.0644   21.3190 C.3     1  UNL1        0.0954
     12 N          -1.4926  -17.5424   21.1709 N.am    1  UNL1       -0.2644
     13 C          -0.4163  -18.0601   20.2634 C.2     1  UNL1        0.3008
     14 N           0.4506  -17.0999   19.5041 N.am    1  UNL1       -0.3132
     15 O          -0.2068  -19.5380   20.1152 O.2     1  UNL1       -0.2528
     16 C          -2.3595  -18.5026   21.9301 C.3     1  UNL1        0.0954
     17 C          -3.4359  -17.9848   22.8376 C.3     1  UNL1        0.0291
     18 H           0.3131  -16.1299   19.6014 H       1  UNL1        0.1465
     19 H           1.1570  -17.4397   18.9085 H       1  UNL1        0.1465
     20 C          -8.6741  -17.0585   26.6525 C.3     1  UNL1        0.0294
     21 C          -9.6063  -16.6269   25.5595 C.3     1  UNL1        0.0730
     22 N         -10.1873  -17.6450   24.6236 N.3     1  UNL1       -0.2726
     23 C         -11.5943  -18.1642   24.6488 C.3     1  UNL1        0.0721
     24 C         -11.7398  -19.1628   23.5390 C.3     1  UNL1        0.0190
     25 C         -10.4226  -19.2607   22.8279 C.3     1  UNL1        0.0201
     26 C         -10.8627  -20.2835   21.8229 C.3     1  UNL1        0.0061
     27 C          -9.4557  -19.7644   21.7977 C.3     1  UNL1        0.0237
     28 C          -9.4631  -18.3227   23.4983 C.3     1  UNL1        0.0724
     29 C          -8.0850  -19.7554   21.1884 C.ar    1  UNL1       -0.0225
     30 C          -6.8935  -20.1350   22.0168 C.ar    1  UNL1       -0.0043
     31 C          -5.5229  -20.1259   21.4075 C.ar    1  UNL1        0.0035
     32 C          -5.3438  -19.7373   19.9698 C.ar    1  UNL1        0.0714
     33 C          -6.5353  -19.3577   19.1414 C.ar    1  UNL1        0.0035
     34 C          -7.9059  -19.3667   19.7507 C.ar    1  UNL1       -0.0043
     35 C          -3.9731  -19.7283   19.3605 C.3     1  UNL1        0.4186
     36 F          -2.6024  -19.7193   18.7512 F       1  UNL1       -0.1659
     37 F          -3.8241  -21.1876   19.6742 F       1  UNL1       -0.1659
     38 F          -4.1222  -18.2691   19.0469 F       1  UNL1       -0.1659
@<TRIPOS>BOND
     1     3     4    1
     2     4     5   ar
     3     5     2    1
     4     2     1    1
     5     1    20    1
     6    20    21    1
     7    21    22    1
     8    22    23    1
     9    23    24    1
    10    25    24    1
    11    25    26    1
    12    26    27    1
    13    27    29    1
    14    29    30   ar
    15    30    31   ar
    16    31    32   ar
    17    32    35    1
    18    35    36    1
    19    35    37    1
    20    35    38    1
    21    32    33   ar
    22    33    34   ar
    23    25    28    1
    24     5     6   ar
    25     6     7   ar
    26     7     8   ar
    27     8     9    1
    28     9    10    1
    29    10    11    1
    30    11    12    1
    31    12    13   am
    32    13    14   am
    33    13    15    2
    34    12    16    1
    35    16    17    1
    36     8     4   ar
    37    17     9    1
    38    28    22    1
    39    27    25    1
    40    34    29   ar
    41    14    18    1
    42    14    19    1
@<TRIPOS>MOLECULE
*****
 38 42 0 0 0
SMALL
GASTEIGER

@<TRIPOS>ATOM
      1 C           6.9626   -3.1371   30.1461 C.3     1  UNL1        0.0666
      2 S           6.8594   -3.3742   31.6236 S.3     1  UNL1       -0.0756
      3 C           4.2498   -2.4296   33.3405 C.3     1  UNL1        0.1337
      4 N           5.5998   -1.7758   33.3567 N.ar    1  UNL1       -0.2918
      5 C           6.7993   -2.2100   32.5676 C.ar    1  UNL1        0.1930
      6 N           7.9281   -1.2756   32.8881 N.ar    1  UNL1       -0.1224
      7 N           7.4262   -0.2639   33.8753 N.ar    1  UNL1       -0.1328
      8 C           5.9872   -0.5730   34.1650 C.ar    1  UNL1        0.1433
      9 C           5.0928    0.1872   35.0989 C.3     1  UNL1        0.0622
     10 C           4.1302    1.2015   34.5560 C.3     1  UNL1        0.0291
     11 C           3.2358    1.9616   35.4899 C.3     1  UNL1        0.0954
     12 N           3.3041    1.7075   36.9667 N.am    1  UNL1       -0.2644
     13 C           2.4097    2.4677   37.9006 C.2     1  UNL1        0.3008
     14 N           1.4471    3.4819   37.3578 N.am    1  UNL1       -0.3132
     15 O           2.4779    2.2136   39.3774 O.2     1  UNL1       -0.2528
     16 C           4.2667    0.6932   37.5096 C.3     1  UNL1        0.0954
     17 C           5.1611   -0.0669   36.5756 C.3     1  UNL1        0.0291
     18 H           1.4023    3.6487   36.3886 H       1  UNL1        0.1465
     19 H           0.8600    3.9808   37.9708 H       1  UNL1        0.1465
     20 C           5.9352   -2.2962   29.4479 C.3     1  UNL1        0.0294
     21 C           5.6917   -2.4757   27.9787 C.3     1  UNL1        0.0730
     22 N           4.8092   -1.5124   27.2416 N.3     1  UNL1       -0.2726
     23 C           4.1405   -0.3041   27.8271 C.3     1  UNL1        0.0721
     24 C           3.3585    0.3667   26.7369 C.3     1  UNL1        0.0190
     25 C           3.5439   -0.4270   25.4777 C.3     1  UNL1        0.0201
     26 C           2.6856    0.4479   24.6130 C.3     1  UNL1        0.0061
     27 C           3.3543   -0.7604   24.0275 C.3     1  UNL1        0.0237
     28 C           4.4405   -1.5884   25.7896 C.3     1  UNL1        0.0724
     29 C           3.6310   -1.6504   22.8523 C.ar    1  UNL1       -0.0225
     30 C           3.1280   -1.2727   21.4905 C.ar    1  UNL1       -0.0043
     31 C           3.4046   -2.1628   20.3153 C.ar    1  UNL1        0.0035
     32 C           4.1843   -3.4306   20.5018 C.ar    1  UNL1        0.0714
     33 C           4.6873   -3.8083   21.8635 C.ar    1  UNL1        0.0035
     34 C           4.4106   -2.9182   23.0388 C.ar    1  UNL1       -0.0043
     35 C           4.4609   -4.3206   19.3265 C.3     1  UNL1        0.4186
     36 F           4.7376   -5.2108   18.1512 F       1  UNL1       -0.1659
     37 F           5.9303   -4.2510   19.6197 F       1  UNL1       -0.1659
     38 F           2.9915   -4.3903   19.0334 F       1  UNL1       -0.1659
@<TRIPOS>BOND
     1     3     4    1
     2     4     5   ar
     3     5     2    1
     4     2     1    1
     5     1    20    1
     6    20    21    1
     7    21    22    1
     8    22    23    1
     9    23    24    1
    10    25    24    1
    11    25    26    1
    12    26    27    1
    13    27    29    1
    14    29    30   ar
    15    30    31   ar
    16    31    32   ar
    17    32    35    1
    18    35    36    1
    19    35    37    1
    20    35    38    1
    21    32    33   ar
    22    33    34   ar
    23    25    28    1
    24     5     6   ar
    25     6     7   ar
    26     7     8   ar
    27     8     9    1
    28     9    10    1
    29    10    11    1
    30    11    12    1
    31    12    13   am
    32    13    14   am
    33    13    15    2
    34    12    16    1
    35    16    17    1
    36     8     4   ar
    37    17     9    1
    38    28    22    1
    39    27    25    1
    40    34    29   ar
    41    14    18    1
    42    14    19    1
@<TRIPOS>MOLECULE
*****
 38 42 0 0 0
SMALL
GASTEIGER

@<TRIPOS>ATOM
      1 C          -5.6662  -20.8009   19.9192 C.3     1  UNL1        0.0666
      2 S          -6.1878  -19.4167   20.1679 S.3     1  UNL1       -0.0756
      3 C          -7.9497  -19.3074   22.9126 C.3     1  UNL1        0.1337
      4 N          -8.4757  -19.1270   21.5194 N.ar    1  UNL1       -0.2918
      5 C          -7.6658  -19.1772   20.2579 C.ar    1  UNL1        0.1930
      6 N          -8.5935  -18.9459   19.1020 N.ar    1  UNL1       -0.1224
      7 N          -9.9767  -18.7527   19.6492 N.ar    1  UNL1       -0.1328
      8 C          -9.9039  -18.8646   21.1433 C.ar    1  UNL1        0.1433
      9 C         -11.0569  -18.7366   22.0943 C.3     1  UNL1        0.0622
     10 C         -10.8252  -18.8425   23.5725 C.3     1  UNL1        0.0291
     11 C         -11.9782  -18.7145   24.5234 C.3     1  UNL1        0.0954
     12 N         -13.3629  -18.4806   23.9960 N.am    1  UNL1       -0.2644
     13 C         -14.5159  -18.3526   24.9469 C.2     1  UNL1        0.3008
     14 N         -14.2842  -18.4585   26.4251 N.am    1  UNL1       -0.3132
     15 O         -15.9005  -18.1188   24.4196 O.2     1  UNL1       -0.2528
     16 C         -13.5946  -18.3748   22.5178 C.3     1  UNL1        0.0954
     17 C         -12.4415  -18.5028   21.5669 C.3     1  UNL1        0.0291
     18 H         -13.3754  -18.6119   26.7712 H       1  UNL1        0.1465
     19 H         -15.0410  -18.3745   27.0492 H       1  UNL1        0.1465
     20 C          -4.2016  -21.0186   19.6791 C.3     1  UNL1        0.0294
     21 C          -3.2090  -20.6992   20.7574 C.3     1  UNL1        0.0730
     22 N          -2.6860  -19.3012   20.9052 N.3     1  UNL1       -0.2726
     23 C          -1.5195  -18.7136   20.1676 C.3     1  UNL1        0.0721
     24 C          -1.3503  -17.2945   20.6232 C.3     1  UNL1        0.0190
     25 C          -2.4121  -17.0050   21.6423 C.3     1  UNL1        0.0201
     26 C          -2.0030  -15.5844   21.8958 C.3     1  UNL1        0.0061
     27 C          -3.1695  -16.1719   22.6334 C.3     1  UNL1        0.0237
     28 C          -3.2377  -18.2452   21.8166 C.3     1  UNL1        0.0724
     29 C          -4.2802  -16.0301   23.6315 C.ar    1  UNL1       -0.0225
     30 C          -5.5567  -15.3459   23.2409 C.ar    1  UNL1       -0.0043
     31 C          -6.6675  -15.2042   24.2390 C.ar    1  UNL1        0.0035
     32 C          -6.5017  -15.7466   25.6276 C.ar    1  UNL1        0.0714
     33 C          -5.2252  -16.4308   26.0182 C.ar    1  UNL1        0.0035
     34 C          -4.1145  -16.5726   25.0201 C.ar    1  UNL1       -0.0043
     35 C          -7.6124  -15.6049   26.6257 C.3     1  UNL1        0.4186
     36 F          -8.7233  -15.4631   27.6237 F       1  UNL1       -0.1659
     37 F          -6.6570  -15.9302   27.7352 F       1  UNL1       -0.1659
     38 F          -8.5679  -15.2796   25.5161 F       1  UNL1       -0.1659
@<TRIPOS>BOND
     1     3     4    1
     2     4     5   ar
     3     5     2    1
     4     2     1    1
     5     1    20    1
     6    20    21    1
     7    21    22    1
     8    22    23    1
     9    23    24    1
    10    25    24    1
    11    25    26    1
    12    26    27    1
    13    27    29    1
    14    29    30   ar
    15    30    31   ar
    16    31    32   ar
    17    32    35    1
    18    35    36    1
    19    35    37    1
    20    35    38    1
    21    32    33   ar
    22    33    34   ar
    23    25    28    1
    24     5     6   ar
    25     6     7   ar
    26     7     8   ar
    27     8     9    1
    28     9    10    1
    29    10    11    1
    30    11    12    1
    31    12    13   am
    32    13    14   am
    33    13    15    2
    34    12    16    1
    35    16    17    1
    36     8     4   ar
    37    17     9    1
    38    28    22    1
    39    27    25    1
    40    34    29   ar
    41    14    18    1
    42    14    19    1
@<TRIPOS>MOLECULE
*****
 38 42 0 0 0
SMALL
GASTEIGER

@<TRIPOS>ATOM
      1 C           0.0210    3.6790   17.8527 C.3     1  UNL1        0.0666
      2 S           0.1015    3.5022   19.3400 S.3     1  UNL1       -0.0756
      3 C           3.0332    2.0974   19.6254 C.3     1  UNL1        0.1337
      4 N           1.7245    1.5010   20.0515 N.ar    1  UNL1       -0.2918
      5 C           0.3770    2.1467   19.9203 C.ar    1  UNL1        0.1930
      6 N          -0.6468    1.1989   20.4713 N.ar    1  UNL1       -0.1224
      7 N           0.0680   -0.0326   20.9430 N.ar    1  UNL1       -0.1328
      8 C           1.5336    0.1541   20.6835 C.ar    1  UNL1        0.1433
      9 C           2.6178   -0.8329   21.0005 C.3     1  UNL1        0.0622
     10 C           3.0740   -1.0165   22.4176 C.3     1  UNL1        0.0291
     11 C           4.1582   -2.0034   22.7345 C.3     1  UNL1        0.0954
     12 N           4.7862   -2.8067   21.6343 N.am    1  UNL1       -0.2644
     13 C           5.8704   -3.7936   21.9512 C.2     1  UNL1        0.3008
     14 N           6.3266   -3.9772   23.3683 N.am    1  UNL1       -0.3132
     15 O           6.4984   -4.5969   20.8511 O.2     1  UNL1       -0.2528
     16 C           4.3299   -2.6231   20.2172 C.3     1  UNL1        0.0954
     17 C           3.2457   -1.6361   19.9003 C.3     1  UNL1        0.0291
     18 H           5.9145   -3.4500   24.0904 H       1  UNL1        0.1465
     19 H           7.0382   -4.6250   23.5763 H       1  UNL1        0.1465
     20 C          -0.4273    4.9893   17.2763 C.3     1  UNL1        0.0294
     21 C          -1.6518    5.6666   17.8165 C.3     1  UNL1        0.0730
     22 N          -2.9617    4.9363   17.8457 N.3     1  UNL1       -0.2726
     23 C          -3.7173    4.4329   16.6518 C.3     1  UNL1        0.0721
     24 C          -4.9685    3.7667   17.1423 C.3     1  UNL1        0.0190
     25 C          -4.9862    3.8583   18.6394 C.3     1  UNL1        0.0201
     26 C          -6.2907    3.1415   18.8250 C.3     1  UNL1        0.0061
     27 C          -5.5351    3.6449   20.0189 C.3     1  UNL1        0.0237
     28 C          -3.7459    4.5812   19.0741 C.3     1  UNL1        0.0724
     29 C          -5.4157    3.8124   21.5048 C.ar    1  UNL1       -0.0225
     30 C          -4.2363    3.2378   22.2319 C.ar    1  UNL1       -0.0043
     31 C          -4.1169    3.4052   23.7178 C.ar    1  UNL1        0.0035
     32 C          -5.1769    4.1474   24.4764 C.ar    1  UNL1        0.0714
     33 C          -6.3564    4.7220   23.7492 C.ar    1  UNL1        0.0035
     34 C          -6.4757    4.5545   22.2634 C.ar    1  UNL1       -0.0043
     35 C          -5.0575    4.3148   25.9622 C.3     1  UNL1        0.4186
     36 F          -4.9382    4.4823   27.4481 F       1  UNL1       -0.1659
     37 F          -3.8015    3.4949   25.9537 F       1  UNL1       -0.1659
     38 F          -6.3136    5.1348   25.9707 F       1  UNL1       -0.1659
@<TRIPOS>BOND
     1     3     4    1
     2     4     5   ar
     3     5     2    1
     4     2     1    1
     5     1    20    1
     6    20    21    1
     7    21    22    1
     8    22    23    1
     9    23    24    1
    10    25    24    1
    11    25    26    1
    12    26    27    1
    13    27    29    1
    14    29    30   ar
    15    30    31   ar
    16    31    32   ar
    17    32    35    1
    18    35    36    1
    19    35    37    1
    20    35    38    1
    21    32    33   ar
    22    33    34   ar
    23    25    28    1
    24     5     6   ar
    25     6     7   ar
    26     7     8   ar
    27     8     9    1
    28     9    10    1
    29    10    11    1
    30    11    12    1
    31    12    13   am
    32    13    14   am
    33    13    15    2
    34    12    16    1
    35    16    17    1
    36     8     4   ar
    37    17     9    1
    38    28    22    1
    39    27    25    1
    40    34    29   ar
    41    14    18    1
    42    14    19    1
@<TRIPOS>MOLECULE
*****
 38 42 0 0 0
SMALL
GASTEIGER

@<TRIPOS>ATOM
      1 C           3.3324   -0.4202   26.2405 C.3     1  UNL1        0.0666
      2 S           3.3567    0.8187   27.0857 S.3     1  UNL1       -0.0756
      3 C           3.8840    2.9409   29.5081 C.3     1  UNL1        0.1337
      4 N           2.8968    1.8117   29.5245 N.ar    1  UNL1       -0.2918
      5 C           2.6544    0.8363   28.4111 C.ar    1  UNL1        0.1930
      6 N           1.5864   -0.1186   28.8556 N.ar    1  UNL1       -0.1224
      7 N           1.1687    0.2667   30.2438 N.ar    1  UNL1       -0.1328
      8 C           1.9786    1.4597   30.6573 C.ar    1  UNL1        0.1433
      9 C           1.8864    2.1751   31.9724 C.3     1  UNL1        0.0622
     10 C           1.1049    3.4510   32.0791 C.3     1  UNL1        0.0291
     11 C           1.0127    4.1664   33.3943 C.3     1  UNL1        0.0954
     12 N           1.7021    3.6058   34.6028 N.am    1  UNL1       -0.2644
     13 C           1.6099    4.3212   35.9180 C.2     1  UNL1        0.3008
     14 N           0.8284    5.5971   36.0246 N.am    1  UNL1       -0.3132
     15 O           2.2992    3.7607   37.1266 O.2     1  UNL1       -0.2528
     16 C           2.4836    2.3299   34.4962 C.3     1  UNL1        0.0954
     17 C           2.5757    1.6146   33.1810 C.3     1  UNL1        0.0291
     18 H           0.3760    5.9649   35.2314 H       1  UNL1        0.1465
     19 H           0.7679    6.0666   36.8878 H       1  UNL1        0.1465
     20 C           3.9768   -1.6802   26.7378 C.3     1  UNL1        0.0294
     21 C           5.4267   -1.6798   27.1225 C.3     1  UNL1        0.0730
     22 N           5.9536   -2.7236   28.0621 N.3     1  UNL1       -0.2726
     23 C           6.5010   -4.0648   27.6727 C.3     1  UNL1        0.0721
     24 C           6.9113   -4.7795   28.9261 C.3     1  UNL1        0.0190
     25 C           6.6175   -3.8801   30.0900 C.3     1  UNL1        0.0201
     26 C           7.1108   -4.8241   31.1461 C.3     1  UNL1        0.0061
     27 C           6.5635   -3.4829   31.5355 C.3     1  UNL1        0.0237
     28 C           6.0256   -2.6094   29.5560 C.3     1  UNL1        0.0724
     29 C           6.2162   -2.4793   32.5948 C.ar    1  UNL1       -0.0225
     30 C           7.2478   -1.4965   33.0639 C.ar    1  UNL1       -0.0043
     31 C           6.9006   -0.4929   34.1232 C.ar    1  UNL1        0.0035
     32 C           5.5217   -0.4721   34.7134 C.ar    1  UNL1        0.0714
     33 C           4.4901   -1.4548   34.2443 C.ar    1  UNL1        0.0035
     34 C           4.8374   -2.4585   33.1850 C.ar    1  UNL1       -0.0043
     35 C           5.1745    0.5315   35.7727 C.3     1  UNL1        0.4186
     36 F           4.8272    1.5352   36.8320 F       1  UNL1       -0.1659
     37 F           5.8423    1.6090   34.9708 F       1  UNL1       -0.1659
     38 F           4.5066   -0.5459   36.5746 F       1  UNL1       -0.1659
@<TRIPOS>BOND
     1     3     4    1
     2     4     5   ar
     3     5     2    1
     4     2     1    1
     5     1    20    1
     6    20    21    1
     7    21    22    1
     8    22    23    1
     9    23    24    1
    10    25    24    1
    11    25    26    1
    12    26    27    1
    13    27    29    1
    14    29    30   ar
    15    30    31   ar
    16    31    32   ar
    17    32    35    1
    18    35    36    1
    19    35    37    1
    20    35    38    1
    21    32    33   ar
    22    33    34   ar
    23    25    28    1
    24     5     6   ar
    25     6     7   ar
    26     7     8   ar
    27     8     9    1
    28     9    10    1
    29    10    11    1
    30    11    12    1
    31    12    13   am
    32    13    14   am
    33    13    15    2
    34    12    16    1
    35    16    17    1
    36     8     4   ar
    37    17     9    1
    38    28    22    1
    39    27    25    1
    40    34    29   ar
    41    14    18    1
    42    14    19    1
@<TRIPOS>MOLECULE
*****
 38 42 0 0 0
SMALL
GASTEIGER

@<TRIPOS>ATOM
      1 C           7.2925   -3.3741   20.8305 C.3     1  UNL1        0.0666
      2 S           6.1485   -3.8466   19.9833 S.3     1  UNL1       -0.0756
      3 C           3.9458   -1.9517   21.4691 C.3     1  UNL1        0.1337
      4 N           4.2363   -1.9789   19.9977 N.ar    1  UNL1       -0.2918
      5 C           5.2487   -2.8498   19.3148 C.ar    1  UNL1        0.1930
      6 N           5.2034   -2.5490   17.8459 N.ar    1  UNL1       -0.1224
      7 N           4.1630   -1.4922   17.6210 N.ar    1  UNL1       -0.1328
      8 C           3.5652   -1.1397   18.9509 C.ar    1  UNL1        0.1433
      9 C           2.4860   -0.1262   19.1917 C.3     1  UNL1        0.0622
     10 C           2.5964    1.2440   18.5915 C.3     1  UNL1        0.0291
     11 C           1.5172    2.2575   18.8323 C.3     1  UNL1        0.0954
     12 N           0.3274    1.9007   19.6733 N.am    1  UNL1       -0.2644
     13 C          -0.7518    2.9143   19.9141 C.2     1  UNL1        0.3008
     14 N          -0.6414    4.2845   19.3139 N.am    1  UNL1       -0.3132
     15 O          -1.9415    2.5576   20.7551 O.2     1  UNL1       -0.2528
     16 C           0.2170    0.5305   20.2736 C.3     1  UNL1        0.0954
     17 C           1.2963   -0.4830   20.0327 C.3     1  UNL1        0.0291
     18 H           0.1395    4.5186   18.7619 H       1  UNL1        0.1465
     19 H          -1.3497    4.9497   19.4719 H       1  UNL1        0.1465
     20 C           7.9299   -4.3066   21.8176 C.3     1  UNL1        0.0294
     21 C           7.2878   -4.5383   23.1533 C.3     1  UNL1        0.0730
     22 N           7.7784   -5.6446   24.0395 N.3     1  UNL1       -0.2726
     23 C           8.4194   -6.9215   23.5829 C.3     1  UNL1        0.0721
     24 C           8.7513   -7.7342   24.7992 C.3     1  UNL1        0.0190
     25 C           8.3153   -6.9596   26.0075 C.3     1  UNL1        0.0201
     26 C           8.7577   -7.9788   27.0152 C.3     1  UNL1        0.0061
     27 C           8.1166   -6.7019   27.4718 C.3     1  UNL1        0.0237
     28 C           7.7140   -5.6681   25.5380 C.3     1  UNL1        0.0724
     29 C           7.6318   -5.8159   28.5808 C.ar    1  UNL1       -0.0225
     30 C           7.0976   -4.4492   28.2697 C.ar    1  UNL1       -0.0043
     31 C           6.6128   -3.5631   29.3787 C.ar    1  UNL1        0.0035
     32 C           6.6621   -4.0438   30.7987 C.ar    1  UNL1        0.0714
     33 C           7.1963   -5.4106   31.1098 C.ar    1  UNL1        0.0035
     34 C           7.6811   -6.2966   30.0008 C.ar    1  UNL1       -0.0043
     35 C           6.1773   -3.1578   31.9077 C.3     1  UNL1        0.4186
     36 F           5.6924   -2.2717   33.0167 F       1  UNL1       -0.1659
     37 F           6.1849   -4.3281   32.8460 F       1  UNL1       -0.1659
     38 F           6.1696   -1.9876   30.9694 F       1  UNL1       -0.1659
@<TRIPOS>BOND
     1     3     4    1
     2     4     5   ar
     3     5     2    1
     4     2     1    1
     5     1    20    1
     6    20    21    1
     7    21    22    1
     8    22    23    1
     9    23    24    1
    10    25    24    1
    11    25    26    1
    12    26    27    1
    13    27    29    1
    14    29    30   ar
    15    30    31   ar
    16    31    32   ar
    17    32    35    1
    18    35    36    1
    19    35    37    1
    20    35    38    1
    21    32    33   ar
    22    33    34   ar
    23    25    28    1
    24     5     6   ar
    25     6     7   ar
    26     7     8   ar
    27     8     9    1
    28     9    10    1
    29    10    11    1
    30    11    12    1
    31    12    13   am
    32    13    14   am
    33    13    15    2
    34    12    16    1
    35    16    17    1
    36     8     4   ar
    37    17     9    1
    38    28    22    1
    39    27    25    1
    40    34    29   ar
    41    14    18    1
    42    14    19    1
@<TRIPOS>MOLECULE
*****
 38 42 0 0 0
SMALL
GASTEIGER

@<TRIPOS>ATOM
      1 C           3.3471    0.6003   25.8932 C.3     1  UNL1        0.0666
      2 S           2.4516    1.5979   25.2204 S.3     1  UNL1       -0.0756
      3 C           0.1684    3.4572   23.8135 C.3     1  UNL1        0.1337
      4 N           0.0055    2.6662   25.0775 N.ar    1  UNL1       -0.2918
      5 C           1.0550    1.8115   25.7242 C.ar    1  UNL1        0.1930
      6 N           0.4626    1.2080   26.9631 N.ar    1  UNL1       -0.1224
      7 N          -0.9530    1.6896   27.0821 N.ar    1  UNL1       -0.1328
      8 C          -1.2356    2.5908   25.9167 C.ar    1  UNL1        0.1433
      9 C          -2.5316    3.2933   25.6393 C.3     1  UNL1        0.0622
     10 C          -3.0170    3.4419   24.2278 C.3     1  UNL1        0.0291
     11 C          -4.3130    4.1444   23.9504 C.3     1  UNL1        0.0954
     12 N          -5.1235    4.6983   25.0847 N.am    1  UNL1       -0.2644
     13 C          -6.4195    5.4008   24.8073 C.2     1  UNL1        0.3008
     14 N          -6.9049    5.5493   23.3958 N.am    1  UNL1       -0.3132
     15 O          -7.2300    5.9547   25.9413 O.2     1  UNL1       -0.2528
     16 C          -4.6381    4.5497   26.4961 C.3     1  UNL1        0.0954
     17 C          -3.3420    3.8472   26.7734 C.3     1  UNL1        0.0291
     18 H          -6.3729    5.1858   22.6514 H       1  UNL1        0.1465
     19 H          -7.7555    6.0104   23.2137 H       1  UNL1        0.1465
     20 C           4.3987   -0.1180   25.1006 C.3     1  UNL1        0.0294
     21 C           4.3043   -1.6015   24.9000 C.3     1  UNL1        0.0730
     22 N           4.2825   -2.1708   23.5124 N.3     1  UNL1       -0.2726
     23 C           4.9478   -3.4402   23.0697 C.3     1  UNL1        0.0721
     24 C           4.6681   -3.6246   21.6076 C.3     1  UNL1        0.0190
     25 C           3.8298   -2.4692   21.1467 C.3     1  UNL1        0.0201
     26 C           3.7205   -2.9147   19.7186 C.3     1  UNL1        0.0061
     27 C           3.0551   -1.6453   20.1613 C.3     1  UNL1        0.0237
     28 C           3.5915   -1.5707   22.3240 C.3     1  UNL1        0.0724
     29 C           2.2237   -0.4368   19.8480 C.ar    1  UNL1       -0.0225
     30 C           2.7321    0.5939   18.8840 C.ar    1  UNL1       -0.0043
     31 C           1.9007    1.8025   18.5707 C.ar    1  UNL1        0.0035
     32 C           0.5610    1.9803   19.2213 C.ar    1  UNL1        0.0714
     33 C           0.0526    0.9496   20.1853 C.ar    1  UNL1        0.0035
     34 C           0.8839   -0.2589   20.4986 C.ar    1  UNL1       -0.0043
     35 C          -0.2704    3.1889   18.9080 C.3     1  UNL1        0.4186
     36 F          -1.1019    4.3975   18.5947 F       1  UNL1       -0.1659
     37 F          -0.3268    3.5286   20.3679 F       1  UNL1       -0.1659
     38 F          -0.2141    2.8491   17.4481 F       1  UNL1       -0.1659
@<TRIPOS>BOND
     1     3     4    1
     2     4     5   ar
     3     5     2    1
     4     2     1    1
     5     1    20    1
     6    20    21    1
     7    21    22    1
     8    22    23    1
     9    23    24    1
    10    25    24    1
    11    25    26    1
    12    26    27    1
    13    27    29    1
    14    29    30   ar
    15    30    31   ar
    16    31    32   ar
    17    32    35    1
    18    35    36    1
    19    35    37    1
    20    35    38    1
    21    32    33   ar
    22    33    34   ar
    23    25    28    1
    24     5     6   ar
    25     6     7   ar
    26     7     8   ar
    27     8     9    1
    28     9    10    1
    29    10    11    1
    30    11    12    1
    31    12    13   am
    32    13    14   am
    33    13    15    2
    34    12    16    1
    35    16    17    1
    36     8     4   ar
    37    17     9    1
    38    28    22    1
    39    27    25    1
    40    34    29   ar
    41    14    18    1
    42    14    19    1
@<TRIPOS>MOLECULE
*****
 38 42 0 0 0
SMALL
GASTEIGER

@<TRIPOS>ATOM
      1 C           7.2802   -2.2948   28.4008 C.3     1  UNL1        0.0666
      2 S           6.6743   -3.5897   27.9467 S.3     1  UNL1       -0.0756
      3 C           5.6309   -2.0130   25.2868 C.3     1  UNL1        0.1337
      4 N           6.3701   -3.3181   25.3050 N.ar    1  UNL1       -0.2918
      5 C           6.8497   -4.0428   26.5276 C.ar    1  UNL1        0.1930
      6 N           7.5355   -5.3002   26.0820 N.ar    1  UNL1       -0.1224
      7 N           7.4798   -5.3527   24.5839 N.ar    1  UNL1       -0.1328
      8 C           6.7595   -4.1277   24.1037 C.ar    1  UNL1        0.1433
      9 C           6.4780   -3.7743   22.6733 C.3     1  UNL1        0.0622
     10 C           5.0687   -3.7907   22.1600 C.3     1  UNL1        0.0291
     11 C           4.7873   -3.4373   20.7297 C.3     1  UNL1        0.0954
     12 N           5.9153   -3.0675   19.8126 N.am    1  UNL1       -0.2644
     13 C           5.6339   -2.7141   18.3823 C.2     1  UNL1        0.3008
     14 N           4.2245   -2.7305   17.8690 N.am    1  UNL1       -0.3132
     15 O           6.7618   -2.3443   17.4652 O.2     1  UNL1       -0.2528
     16 C           7.3246   -3.0511   20.3259 C.3     1  UNL1        0.0954
     17 C           7.6060   -3.4045   21.7563 C.3     1  UNL1        0.0291
     18 H           3.4842   -2.9732   18.4709 H       1  UNL1        0.1465
     19 H           4.0398   -2.4986   16.9302 H       1  UNL1        0.1465
     20 C           6.5404   -1.4191   29.3682 C.3     1  UNL1        0.0294
     21 C           5.1169   -1.7301   29.7242 C.3     1  UNL1        0.0730
     22 N           4.3679   -0.8377   30.6690 N.3     1  UNL1       -0.2726
     23 C           4.6654   -0.6498   32.1272 C.3     1  UNL1        0.0721
     24 C           3.6713    0.3275   32.6808 C.3     1  UNL1        0.0190
     25 C           2.7594    0.7436   31.5649 C.3     1  UNL1        0.0201
     26 C           1.9192    1.6746   32.3879 C.3     1  UNL1        0.0061
     27 C           1.6216    1.4867   30.9297 C.3     1  UNL1        0.0237
     28 C           3.1899    0.0234   30.3215 C.3     1  UNL1        0.0724
     29 C           0.7930    1.8072   29.7212 C.ar    1  UNL1       -0.0225
     30 C           0.9207    3.1465   29.0579 C.ar    1  UNL1       -0.0043
     31 C           0.0921    3.4669   27.8493 C.ar    1  UNL1        0.0035
     32 C          -0.8643    2.4481   27.3040 C.ar    1  UNL1        0.0714
     33 C          -0.9920    1.1088   27.9673 C.ar    1  UNL1        0.0035
     34 C          -0.1634    0.7883   29.1759 C.ar    1  UNL1       -0.0043
     35 C          -1.6929    2.7686   26.0955 C.3     1  UNL1        0.4186
     36 F          -2.5215    3.0891   24.8868 F       1  UNL1       -0.1659
     37 F          -2.4329    3.8116   26.8794 F       1  UNL1       -0.1659
     38 F          -0.9529    1.7256   25.3116 F       1  UNL1       -0.1659
@<TRIPOS>BOND
     1     3     4    1
     2     4     5   ar
     3     5     2    1
     4     2     1    1
     5     1    20    1
     6    20    21    1
     7    21    22    1
     8    22    23    1
     9    23    24    1
    10    25    24    1
    11    25    26    1
    12    26    27    1
    13    27    29    1
    14    29    30   ar
    15    30    31   ar
    16    31    32   ar
    17    32    35    1
    18    35    36    1
    19    35    37    1
    20    35    38    1
    21    32    33   ar
    22    33    34   ar
    23    25    28    1
    24     5     6   ar
    25     6     7   ar
    26     7     8   ar
    27     8     9    1
    28     9    10    1
    29    10    11    1
    30    11    12    1
    31    12    13   am
    32    13    14   am
    33    13    15    2
    34    12    16    1
    35    16    17    1
    36     8     4   ar
    37    17     9    1
    38    28    22    1
    39    27    25    1
    40    34    29   ar
    41    14    18    1
    42    14    19    1
