@<TRIPOS>MOLECULE
*****
 27 29 0 0 0
SMALL
GASTEIGER

@<TRIPOS>ATOM
      1 C          -4.9062  -19.7008   21.2748 C.ar    1  UNL1       -0.0018
      2 C          -3.6407  -19.9990   20.5267 C.ar    1  UNL1        0.0179
      3 C          -2.4365  -19.1240   20.7112 C.ar    1  UNL1        0.1000
      4 N          -2.4977  -17.9507   21.6437 N.ar    1  UNL1       -0.2291
      5 C          -3.7631  -17.6525   22.3918 C.ar    1  UNL1        0.1333
      6 C          -4.9674  -18.5276   22.2074 C.ar    1  UNL1        0.0316
      7 N          -3.8243  -16.4792   23.3244 N.pl3   1  UNL1       -0.2781
      8 H          -2.9960  -16.0189   23.5913 H       1  UNL1        0.1555
      9 C          -5.1474  -16.0074   23.8504 C.ar    1  UNL1        0.1653
     10 N          -6.2930  -15.4987   23.0265 N.ar    1  UNL1       -0.2217
     11 C          -7.4109  -15.1384   23.9595 C.ar    1  UNL1        0.1177
     12 C          -6.9561  -15.4243   25.3600 C.ar    1  UNL1        0.1194
     13 S          -5.5572  -15.9614   25.2926 S.2     1  UNL1       -0.0409
     14 C          -7.7593  -15.2107   26.6088 C.1     1  UNL1        0.1086
     15 N          -8.5624  -14.9971   27.8575 N.1     1  UNL1       -0.1903
     16 C          -6.1105  -20.5759   21.0904 C.3     1  UNL1        0.0994
     17 C         -13.5821  -17.8302   23.6175 C.3     1  UNL1        0.1122
     18 N         -12.2083  -18.3865   23.3867 N.am    1  UNL1       -0.2870
     19 C         -11.6056  -18.3507   22.0136 C.2     1  UNL1        0.3041
     20 O         -12.3766  -17.7585   20.8713 O.2     1  UNL1       -0.2526
     21 N         -10.2318  -18.9070   21.7828 N.am    1  UNL1       -0.2614
     22 C          -9.4608  -19.4991   22.9251 C.3     1  UNL1        0.1123
     23 C          -8.0870  -20.0554   22.6942 C.3     1  UNL1        0.0942
     24 N          -7.4843  -20.0196   21.3212 N.3     1  UNL1       -0.2660
     25 C          -8.2553  -19.4274   20.1789 C.3     1  UNL1        0.0942
     26 C          -9.6291  -18.8711   20.4097 C.3     1  UNL1        0.1123
     27 H         -11.7023  -18.7752   24.1364 H       1  UNL1        0.1510
@<TRIPOS>BOND
     1    17    18    1
     2    18    19   am
     3    19    20    2
     4    19    21   am
     5    21    22    1
     6    22    23    1
     7    23    24    1
     8    24    16    1
     9    16     1    1
    10     1     2   ar
    11     2     3   ar
    12     3     4   ar
    13     4     5   ar
    14     5     7    1
    15     7     9    1
    16     9    10   ar
    17    10    11   ar
    18    11    12   ar
    19    12    14    1
    20    14    15    3
    21    12    13   ar
    22     5     6   ar
    23    24    25    1
    24    25    26    1
    25    26    21    1
    26     6     1   ar
    27    13     9   ar
    28    18    27    1
    29     7     8    1
@<TRIPOS>MOLECULE
*****
 27 29 0 0 0
SMALL
GASTEIGER

@<TRIPOS>ATOM
      1 C         -10.3000  -18.6549   21.6103 C.ar    1  UNL1       -0.0018
      2 C         -11.7337  -18.5191   21.1904 C.ar    1  UNL1        0.0179
      3 C         -12.5731  -17.4030   21.7379 C.ar    1  UNL1        0.1000
      4 N         -11.9788  -16.4227   22.7053 N.ar    1  UNL1       -0.2291
      5 C         -10.5453  -16.5584   23.1252 C.ar    1  UNL1        0.1333
      6 C          -9.7058  -17.6745   22.5777 C.ar    1  UNL1        0.0316
      7 N          -9.9510  -15.5780   24.0925 N.pl3   1  UNL1       -0.2781
      8 H         -10.5282  -14.9208   24.5443 H       1  UNL1        0.1555
      9 C          -8.4774  -15.5991   24.3716 C.ar    1  UNL1        0.1653
     10 N          -7.8280  -15.3476   25.7002 N.ar    1  UNL1       -0.2217
     11 C          -6.3436  -15.4685   25.5209 C.ar    1  UNL1        0.1177
     12 C          -6.0757  -15.7947   24.0814 C.ar    1  UNL1        0.1194
     13 S          -7.3945  -15.8754   23.3712 S.2     1  UNL1       -0.0409
     14 C          -4.7260  -16.0035   23.4611 C.1     1  UNL1        0.1086
     15 N          -3.3763  -16.2123   22.8409 N.1     1  UNL1       -0.1903
     16 C          -9.4607  -19.7709   21.0628 C.3     1  UNL1        0.0994
     17 C          -1.3233  -18.5524   19.6314 C.3     1  UNL1        0.1122
     18 N          -2.8167  -18.6876   19.6723 N.am    1  UNL1       -0.2870
     19 C          -3.4873  -19.2304   20.8993 C.2     1  UNL1        0.3041
     20 O          -2.6646  -19.6380   22.0854 O.2     1  UNL1       -0.2526
     21 N          -4.9807  -19.3655   20.9402 N.am    1  UNL1       -0.2614
     22 C          -5.8034  -18.9579   19.7540 C.3     1  UNL1        0.1123
     23 C          -7.2967  -19.0930   19.7949 C.3     1  UNL1        0.0942
     24 N          -7.9674  -19.6358   21.0219 N.3     1  UNL1       -0.2660
     25 C          -7.1447  -20.0435   22.2080 C.3     1  UNL1        0.0942
     26 C          -5.6513  -19.9083   22.1672 C.3     1  UNL1        0.1123
     27 H          -3.3566  -18.4200   18.8938 H       1  UNL1        0.1510
@<TRIPOS>BOND
     1    17    18    1
     2    18    19   am
     3    19    20    2
     4    19    21   am
     5    21    22    1
     6    22    23    1
     7    23    24    1
     8    24    16    1
     9    16     1    1
    10     1     2   ar
    11     2     3   ar
    12     3     4   ar
    13     4     5   ar
    14     5     7    1
    15     7     9    1
    16     9    10   ar
    17    10    11   ar
    18    11    12   ar
    19    12    14    1
    20    14    15    3
    21    12    13   ar
    22     5     6   ar
    23    24    25    1
    24    25    26    1
    25    26    21    1
    26     6     1   ar
    27    13     9   ar
    28    18    27    1
    29     7     8    1
@<TRIPOS>MOLECULE
*****
 27 29 0 0 0
SMALL
GASTEIGER

@<TRIPOS>ATOM
      1 C          -7.9321  -15.9483   24.9684 C.ar    1  UNL1       -0.0018
      2 C          -7.6606  -15.6479   26.4127 C.ar    1  UNL1        0.0179
      3 C          -6.3037  -15.1697   26.8372 C.ar    1  UNL1        0.1000
      4 N          -5.2182  -14.9921   25.8173 N.ar    1  UNL1       -0.2291
      5 C          -5.4896  -15.2925   24.3730 C.ar    1  UNL1        0.1333
      6 C          -6.8466  -15.7707   23.9485 C.ar    1  UNL1        0.0316
      7 N          -4.4041  -15.1148   23.3532 N.pl3   1  UNL1       -0.2781
      8 H          -4.1121  -14.2100   23.0977 H       1  UNL1        0.1555
      9 C          -3.7636  -16.3157   22.7226 C.ar    1  UNL1        0.1653
     10 N          -4.2676  -17.7264   22.7999 N.ar    1  UNL1       -0.2217
     11 C          -3.3221  -18.5993   22.0291 C.ar    1  UNL1        0.1177
     12 C          -2.2338  -17.7280   21.4753 C.ar    1  UNL1        0.1194
     13 S          -2.5067  -16.3167   21.9039 S.2     1  UNL1       -0.0409
     14 C          -1.0760  -18.1874   20.6396 C.1     1  UNL1        0.1086
     15 N           0.0819  -18.6468   19.8040 N.1     1  UNL1       -0.1903
     16 C          -9.2890  -16.4265   24.5440 C.3     1  UNL1        0.0994
     17 C          -8.9882  -21.2195   17.7112 C.3     1  UNL1        0.1122
     18 N          -8.8306  -20.4461   18.9868 N.am    1  UNL1       -0.2870
     19 C          -9.9193  -19.5201   19.4418 C.2     1  UNL1        0.3041
     20 O         -11.1657  -19.3675   18.6213 O.2     1  UNL1       -0.2526
     21 N          -9.7617  -18.7467   20.7173 N.am    1  UNL1       -0.2614
     22 C          -8.5154  -18.8993   21.5379 C.3     1  UNL1        0.1123
     23 C          -8.3578  -18.1259   22.8134 C.3     1  UNL1        0.0942
     24 N          -9.4466  -17.1999   23.2684 N.3     1  UNL1       -0.2660
     25 C         -10.6929  -17.0473   22.4479 C.3     1  UNL1        0.0942
     26 C         -10.8505  -17.8207   21.1723 C.3     1  UNL1        0.1123
     27 H          -8.0126  -20.5463   19.5253 H       1  UNL1        0.1510
@<TRIPOS>BOND
     1    17    18    1
     2    18    19   am
     3    19    20    2
     4    19    21   am
     5    21    22    1
     6    22    23    1
     7    23    24    1
     8    24    16    1
     9    16     1    1
    10     1     2   ar
    11     2     3   ar
    12     3     4   ar
    13     4     5   ar
    14     5     7    1
    15     7     9    1
    16     9    10   ar
    17    10    11   ar
    18    11    12   ar
    19    12    14    1
    20    14    15    3
    21    12    13   ar
    22     5     6   ar
    23    24    25    1
    24    25    26    1
    25    26    21    1
    26     6     1   ar
    27    13     9   ar
    28    18    27    1
    29     7     8    1
@<TRIPOS>MOLECULE
*****
 27 29 0 0 0
SMALL
GASTEIGER

@<TRIPOS>ATOM
      1 C          -8.8107  -19.3137   20.5152 C.ar    1  UNL1       -0.0018
      2 C          -9.9741  -19.5261   19.5925 C.ar    1  UNL1        0.0179
      3 C         -11.0831  -18.5174   19.5393 C.ar    1  UNL1        0.1000
      4 N         -11.0286  -17.2964   20.4088 N.ar    1  UNL1       -0.2291
      5 C          -9.8652  -17.0840   21.3315 C.ar    1  UNL1        0.1333
      6 C          -8.7562  -18.0926   21.3847 C.ar    1  UNL1        0.0316
      7 N          -9.8108  -15.8629   22.2010 N.pl3   1  UNL1       -0.2781
      8 H         -10.5217  -15.1844   22.1419 H       1  UNL1        0.1555
      9 C          -8.6732  -15.6755   23.1605 C.ar    1  UNL1        0.1653
     10 N          -7.2794  -15.2513   22.8035 N.ar    1  UNL1       -0.2217
     11 C          -6.4744  -15.1931   24.0679 C.ar    1  UNL1        0.1177
     12 C          -7.3707  -15.5814   25.2063 C.ar    1  UNL1        0.1194
     13 S          -8.7296  -15.8795   24.6455 S.2     1  UNL1       -0.0409
     14 C          -6.9772  -15.6580   26.6517 C.1     1  UNL1        0.1086
     15 N          -6.5837  -15.7346   28.0972 N.1     1  UNL1       -0.1903
     16 C          -7.7018  -20.3224   20.5684 C.3     1  UNL1        0.0994
     17 C           0.1515  -17.5329   20.0250 C.3     1  UNL1        0.1122
     18 N          -1.2715  -17.9888   19.8933 N.am    1  UNL1       -0.2870
     19 C          -2.0100  -18.4984   21.0953 C.2     1  UNL1        0.3041
     20 O          -1.3257  -18.5521   22.4289 O.2     1  UNL1       -0.2526
     21 N          -3.4330  -18.9544   20.9635 N.am    1  UNL1       -0.2614
     22 C          -4.1173  -18.9008   19.6299 C.3     1  UNL1        0.1123
     23 C          -5.5403  -19.3568   19.4982 C.3     1  UNL1        0.0942
     24 N          -6.2788  -19.8664   20.7001 N.3     1  UNL1       -0.2660
     25 C          -5.5945  -19.9200   22.0338 C.3     1  UNL1        0.0942
     26 C          -4.1715  -19.4640   22.1655 C.3     1  UNL1        0.1123
     27 H          -1.7206  -17.9536   19.0179 H       1  UNL1        0.1510
@<TRIPOS>BOND
     1    17    18    1
     2    18    19   am
     3    19    20    2
     4    19    21   am
     5    21    22    1
     6    22    23    1
     7    23    24    1
     8    24    16    1
     9    16     1    1
    10     1     2   ar
    11     2     3   ar
    12     3     4   ar
    13     4     5   ar
    14     5     7    1
    15     7     9    1
    16     9    10   ar
    17    10    11   ar
    18    11    12   ar
    19    12    14    1
    20    14    15    3
    21    12    13   ar
    22     5     6   ar
    23    24    25    1
    24    25    26    1
    25    26    21    1
    26     6     1   ar
    27    13     9   ar
    28    18    27    1
    29     7     8    1
@<TRIPOS>MOLECULE
*****
 27 29 0 0 0
SMALL
GASTEIGER

@<TRIPOS>ATOM
      1 C          -8.0642  -19.5253   21.6687 C.ar    1  UNL1       -0.0018
      2 C          -8.9036  -19.5715   20.4263 C.ar    1  UNL1        0.0179
      3 C         -10.1410  -18.7298   20.3256 C.ar    1  UNL1        0.1000
      4 N         -10.5392  -17.8419   21.4671 N.ar    1  UNL1       -0.2291
      5 C          -9.6999  -17.7957   22.7094 C.ar    1  UNL1        0.1333
      6 C          -8.4623  -18.6374   22.8102 C.ar    1  UNL1        0.0316
      7 N         -10.0981  -16.9078   23.8510 N.pl3   1  UNL1       -0.2781
      8 H         -11.0228  -16.5765   23.9175 H       1  UNL1        0.1555
      9 C          -9.0874  -16.5247   24.8910 C.ar    1  UNL1        0.1653
     10 N          -9.1033  -16.9420   26.3318 N.ar    1  UNL1       -0.2217
     11 C          -7.9092  -16.3322   27.0042 C.ar    1  UNL1        0.1177
     12 C          -7.1552  -15.5382   25.9789 C.ar    1  UNL1        0.1194
     13 S          -7.8834  -15.6572   24.6730 S.2     1  UNL1       -0.0409
     14 C          -5.8943  -14.7615   26.2178 C.1     1  UNL1        0.1086
     15 N          -4.6334  -13.9848   26.4566 N.1     1  UNL1       -0.1903
     16 C          -6.8267  -20.3669   21.7694 C.3     1  UNL1        0.0994
     17 C           0.8216  -17.3629   20.2765 C.3     1  UNL1        0.1122
     18 N          -0.4905  -17.8963   20.7703 N.am    1  UNL1       -0.2870
     19 C          -1.5783  -18.2333   19.7941 C.2     1  UNL1        0.3041
     20 O          -1.3540  -18.0368   18.3241 O.2     1  UNL1       -0.2526
     21 N          -2.8904  -18.7667   20.2879 N.am    1  UNL1       -0.2614
     22 C          -3.1147  -18.9631   21.7580 C.3     1  UNL1        0.1123
     23 C          -4.4267  -19.4965   22.2518 C.3     1  UNL1        0.0942
     24 N          -5.5146  -19.8335   21.2756 N.3     1  UNL1       -0.2660
     25 C          -5.2903  -19.6371   19.8056 C.3     1  UNL1        0.0942
     26 C          -3.9782  -19.1036   19.3117 C.3     1  UNL1        0.1123
     27 H          -0.6376  -18.0252   21.7352 H       1  UNL1        0.1510
@<TRIPOS>BOND
     1    17    18    1
     2    18    19   am
     3    19    20    2
     4    19    21   am
     5    21    22    1
     6    22    23    1
     7    23    24    1
     8    24    16    1
     9    16     1    1
    10     1     2   ar
    11     2     3   ar
    12     3     4   ar
    13     4     5   ar
    14     5     7    1
    15     7     9    1
    16     9    10   ar
    17    10    11   ar
    18    11    12   ar
    19    12    14    1
    20    14    15    3
    21    12    13   ar
    22     5     6   ar
    23    24    25    1
    24    25    26    1
    25    26    21    1
    26     6     1   ar
    27    13     9   ar
    28    18    27    1
    29     7     8    1
@<TRIPOS>MOLECULE
*****
 27 29 0 0 0
SMALL
GASTEIGER

@<TRIPOS>ATOM
      1 C          -7.3074  -19.6452   21.0047 C.ar    1  UNL1       -0.0018
      2 C          -7.6918  -20.2522   19.6879 C.ar    1  UNL1        0.0179
      3 C          -8.9535  -19.8188   19.0022 C.ar    1  UNL1        0.1000
      4 N          -9.8308  -18.7785   19.6331 N.ar    1  UNL1       -0.2291
      5 C          -9.4464  -18.1716   20.9499 C.ar    1  UNL1        0.1333
      6 C          -8.1847  -18.6049   21.6357 C.ar    1  UNL1        0.0316
      7 N         -10.3237  -17.1313   21.5808 N.pl3   1  UNL1       -0.2781
      8 H         -10.0341  -16.1906   21.6029 H       1  UNL1        0.1555
      9 C         -11.6424  -17.5241   22.1781 C.ar    1  UNL1        0.1653
     10 N         -12.9160  -17.7641   21.4228 N.ar    1  UNL1       -0.2217
     11 C         -13.9797  -18.1343   22.4134 C.ar    1  UNL1        0.1177
     12 C         -13.3635  -18.1231   23.7810 C.ar    1  UNL1        0.1194
     13 S         -11.9190  -17.7460   23.6355 S.2     1  UNL1       -0.0409
     14 C         -14.0682  -18.4344   25.0681 C.1     1  UNL1        0.1086
     15 N         -14.7729  -18.7457   26.3552 N.1     1  UNL1       -0.1903
     16 C          -6.0457  -20.0786   21.6905 C.3     1  UNL1        0.0994
     17 C           1.6812  -17.2522   20.2567 C.3     1  UNL1        0.1122
     18 N           0.3537  -17.7559   20.7403 N.am    1  UNL1       -0.2870
     19 C          -0.7356  -18.0635   19.7561 C.2     1  UNL1        0.3041
     20 O          -0.4973  -17.8674   18.2882 O.2     1  UNL1       -0.2526
     21 N          -2.0631  -18.5673   20.2397 N.am    1  UNL1       -0.2614
     22 C          -2.3014  -18.7634   21.7076 C.3     1  UNL1        0.1123
     23 C          -3.6289  -19.2672   22.1912 C.3     1  UNL1        0.0942
     24 N          -4.7182  -19.5748   21.2069 N.3     1  UNL1       -0.2660
     25 C          -4.4799  -19.3787   19.7390 C.3     1  UNL1        0.0942
     26 C          -3.1524  -18.8749   19.2554 C.3     1  UNL1        0.1123
     27 H           0.1973  -17.8847   21.7038 H       1  UNL1        0.1510
@<TRIPOS>BOND
     1    17    18    1
     2    18    19   am
     3    19    20    2
     4    19    21   am
     5    21    22    1
     6    22    23    1
     7    23    24    1
     8    24    16    1
     9    16     1    1
    10     1     2   ar
    11     2     3   ar
    12     3     4   ar
    13     4     5   ar
    14     5     7    1
    15     7     9    1
    16     9    10   ar
    17    10    11   ar
    18    11    12   ar
    19    12    14    1
    20    14    15    3
    21    12    13   ar
    22     5     6   ar
    23    24    25    1
    24    25    26    1
    25    26    21    1
    26     6     1   ar
    27    13     9   ar
    28    18    27    1
    29     7     8    1
@<TRIPOS>MOLECULE
*****
 27 29 0 0 0
SMALL
GASTEIGER

@<TRIPOS>ATOM
      1 C           5.1589   -1.2874   32.9250 C.ar    1  UNL1       -0.0018
      2 C           6.4444   -0.5175   32.8551 C.ar    1  UNL1        0.0179
      3 C           7.7379   -1.2377   32.6143 C.ar    1  UNL1        0.1000
      4 N           7.7459   -2.7279   32.4433 N.ar    1  UNL1       -0.2291
      5 C           6.4605   -3.4978   32.5131 C.ar    1  UNL1        0.1333
      6 C           5.1670   -2.7776   32.7539 C.ar    1  UNL1        0.0316
      7 N           6.4686   -4.9880   32.3421 N.pl3   1  UNL1       -0.2781
      8 H           5.9562   -5.5573   32.9606 H       1  UNL1        0.1555
      9 C           7.2575   -5.6109   31.2287 C.ar    1  UNL1        0.1653
     10 N           8.5282   -6.3936   31.3790 N.ar    1  UNL1       -0.2217
     11 C           8.9702   -6.8269   30.0127 C.ar    1  UNL1        0.1177
     12 C           7.9726   -6.3120   29.0178 C.ar    1  UNL1        0.1194
     13 S           6.9141   -5.5604   29.7694 S.2     1  UNL1       -0.0409
     14 C           8.0244   -6.5132   27.5323 C.1     1  UNL1        0.1086
     15 N           8.0762   -6.7144   26.0467 N.1     1  UNL1       -0.1903
     16 C           3.8654   -0.5671   33.1658 C.3     1  UNL1        0.0994
     17 C          -0.2478    1.3048   26.1425 C.3     1  UNL1        0.1122
     18 N           0.5361    0.7633   27.3010 N.am    1  UNL1       -0.2870
     19 C           0.7296    1.5988   28.5316 C.2     1  UNL1        0.3041
     20 O           0.1391    2.9758   28.6037 O.2     1  UNL1       -0.2526
     21 N           1.5135    1.0573   29.6902 N.am    1  UNL1       -0.2614
     22 C           2.1040   -0.3196   29.6181 C.3     1  UNL1        0.1123
     23 C           2.8880   -0.8611   30.7767 C.3     1  UNL1        0.0942
     24 N           3.0814   -0.0256   32.0073 N.3     1  UNL1       -0.2660
     25 C           2.4910    1.3513   32.0793 C.3     1  UNL1        0.0942
     26 C           1.7070    1.8928   30.9208 C.3     1  UNL1        0.1123
     27 H           0.9237   -0.1405   27.2537 H       1  UNL1        0.1510
@<TRIPOS>BOND
     1    17    18    1
     2    18    19   am
     3    19    20    2
     4    19    21   am
     5    21    22    1
     6    22    23    1
     7    23    24    1
     8    24    16    1
     9    16     1    1
    10     1     2   ar
    11     2     3   ar
    12     3     4   ar
    13     4     5   ar
    14     5     7    1
    15     7     9    1
    16     9    10   ar
    17    10    11   ar
    18    11    12   ar
    19    12    14    1
    20    14    15    3
    21    12    13   ar
    22     5     6   ar
    23    24    25    1
    24    25    26    1
    25    26    21    1
    26     6     1   ar
    27    13     9   ar
    28    18    27    1
    29     7     8    1
@<TRIPOS>MOLECULE
*****
 27 29 0 0 0
SMALL
GASTEIGER

@<TRIPOS>ATOM
      1 C           7.8402   -5.1584   24.4808 C.ar    1  UNL1       -0.0018
      2 C           8.2227   -6.5793   24.1892 C.ar    1  UNL1        0.0179
      3 C           7.8272   -7.6721   25.1376 C.ar    1  UNL1        0.1000
      4 N           7.0493   -7.3441   26.3774 N.ar    1  UNL1       -0.2291
      5 C           6.6669   -5.9234   26.6690 C.ar    1  UNL1        0.1333
      6 C           7.0624   -4.8304   25.7207 C.ar    1  UNL1        0.0316
      7 N           5.8890   -5.5954   27.9089 N.pl3   1  UNL1       -0.2781
      8 H           4.9050   -5.5767   27.8822 H       1  UNL1        0.1555
      9 C           6.6103   -5.2958   29.1895 C.ar    1  UNL1        0.1653
     10 N           7.2878   -6.2990   30.0753 N.ar    1  UNL1       -0.2217
     11 C           7.8769   -5.5636   31.2424 C.ar    1  UNL1        0.1177
     12 C           7.5634   -4.1059   31.0780 C.ar    1  UNL1        0.1194
     13 S           6.7806   -3.9405   29.8092 S.2     1  UNL1       -0.0409
     14 C           7.9627   -3.0068   32.0173 C.1     1  UNL1        0.1086
     15 N           8.3620   -1.9076   32.9567 N.1     1  UNL1       -0.1903
     16 C           8.2357   -4.0656   23.5325 C.3     1  UNL1        0.0994
     17 C           3.8834   -0.9799   17.1071 C.3     1  UNL1        0.1122
     18 N           4.8542   -1.4602   18.1448 N.am    1  UNL1       -0.2870
     19 C           4.3524   -2.1445   19.3817 C.2     1  UNL1        0.3041
     20 O           2.8798   -2.3485   19.5809 O.2     1  UNL1       -0.2526
     21 N           5.3232   -2.6247   20.4194 N.am    1  UNL1       -0.2614
     22 C           6.7959   -2.4207   20.2202 C.3     1  UNL1        0.1123
     23 C           7.7667   -2.9010   21.2579 C.3     1  UNL1        0.0942
     24 N           7.2649   -3.5853   22.4948 N.3     1  UNL1       -0.2660
     25 C           5.7923   -3.7893   22.6940 C.3     1  UNL1        0.0942
     26 C           4.8214   -3.3090   21.6563 C.3     1  UNL1        0.1123
     27 H           5.8208   -1.3263   18.0141 H       1  UNL1        0.1510
@<TRIPOS>BOND
     1    17    18    1
     2    18    19   am
     3    19    20    2
     4    19    21   am
     5    21    22    1
     6    22    23    1
     7    23    24    1
     8    24    16    1
     9    16     1    1
    10     1     2   ar
    11     2     3   ar
    12     3     4   ar
    13     4     5   ar
    14     5     7    1
    15     7     9    1
    16     9    10   ar
    17    10    11   ar
    18    11    12   ar
    19    12    14    1
    20    14    15    3
    21    12    13   ar
    22     5     6   ar
    23    24    25    1
    24    25    26    1
    25    26    21    1
    26     6     1   ar
    27    13     9   ar
    28    18    27    1
    29     7     8    1
@<TRIPOS>MOLECULE
*****
 27 29 0 0 0
SMALL
GASTEIGER

@<TRIPOS>ATOM
      1 C           8.5986   -6.5715   28.1880 C.ar    1  UNL1       -0.0018
      2 C           8.3034   -6.0885   26.7989 C.ar    1  UNL1        0.0179
      3 C           7.8426   -7.0569   25.7502 C.ar    1  UNL1        0.1000
      4 N           7.6770   -8.5083   26.0905 N.ar    1  UNL1       -0.2291
      5 C           7.9722   -8.9914   27.4796 C.ar    1  UNL1        0.1333
      6 C           8.4330   -8.0230   28.5284 C.ar    1  UNL1        0.0316
      7 N           7.8065  -10.4429   27.8199 N.pl3   1  UNL1       -0.2781
      8 H           8.5891  -10.9792   28.0827 H       1  UNL1        0.1555
      9 C           6.4486  -11.0771   27.7598 C.ar    1  UNL1        0.1653
     10 N           5.2159  -10.4663   27.1620 N.ar    1  UNL1       -0.2217
     11 C           4.0903  -11.4452   27.3196 C.ar    1  UNL1        0.1177
     12 C           4.6274  -12.6610   28.0150 C.ar    1  UNL1        0.1194
     13 S           6.0849  -12.4335   28.2870 S.2     1  UNL1       -0.0409
     14 C           3.8445  -13.8888   28.3751 C.1     1  UNL1        0.1086
     15 N           3.0616  -15.1166   28.7351 N.1     1  UNL1       -0.1903
     16 C           9.0594   -5.6031   29.2368 C.3     1  UNL1        0.0994
     17 C           3.5553   -0.1507   32.3554 C.3     1  UNL1        0.1122
     18 N           4.5568   -0.9844   31.6125 N.am    1  UNL1       -0.2870
     19 C           5.0534   -2.2682   32.2084 C.2     1  UNL1        0.3041
     20 O           4.5485   -2.7183   33.5472 O.2     1  UNL1       -0.2526
     21 N           6.0549   -3.1019   31.4655 N.am    1  UNL1       -0.2614
     22 C           6.5598   -2.6518   30.1267 C.3     1  UNL1        0.1123
     23 C           7.5613   -3.4856   29.3838 C.3     1  UNL1        0.0942
     24 N           8.0579   -4.7694   29.9797 N.3     1  UNL1       -0.2660
     25 C           7.5530   -5.2195   31.3185 C.3     1  UNL1        0.0942
     26 C           6.5515   -4.3858   32.0614 C.3     1  UNL1        0.1123
     27 H           4.8882   -0.6889   30.7338 H       1  UNL1        0.1510
@<TRIPOS>BOND
     1    17    18    1
     2    18    19   am
     3    19    20    2
     4    19    21   am
     5    21    22    1
     6    22    23    1
     7    23    24    1
     8    24    16    1
     9    16     1    1
    10     1     2   ar
    11     2     3   ar
    12     3     4   ar
    13     4     5   ar
    14     5     7    1
    15     7     9    1
    16     9    10   ar
    17    10    11   ar
    18    11    12   ar
    19    12    14    1
    20    14    15    3
    21    12    13   ar
    22     5     6   ar
    23    24    25    1
    24    25    26    1
    25    26    21    1
    26     6     1   ar
    27    13     9   ar
    28    18    27    1
    29     7     8    1
