@<TRIPOS>MOLECULE
*****
 16 18 0 0 0
SMALL
GASTEIGER

@<TRIPOS>ATOM
      1 O          -8.9996  -18.0499   20.7595 O.3     1  UNL1       -0.4724
      2 CL        -13.9901  -18.0004   24.0901 Cl      1  UNL1       -0.0613
      3 C         -12.7424  -18.0128   23.2575 C.ar    1  UNL1        0.1386
      4 C         -12.8181  -17.7179   21.7887 C.ar    1  UNL1        0.0339
      5 C         -11.5704  -17.7303   20.9561 C.ar    1  UNL1        0.0410
      6 C         -10.2472  -18.0375   21.5922 C.ar    1  UNL1        0.1578
      7 C         -10.1716  -18.3324   23.0609 C.ar    1  UNL1        0.1366
      8 N         -11.4192  -18.3200   23.8936 N.ar    1  UNL1       -0.2293
      9 C          -8.4193  -19.3535   20.2972 C.3     1  UNL1        0.2210
     10 C          -6.9321  -19.5166   20.1903 C.3     1  UNL1        0.0983
     11 C          -6.1649  -20.7841   20.4244 C.3     1  UNL1        0.0209
     12 C          -4.7095  -20.4916   20.2092 C.3     1  UNL1        0.0172
     13 C          -3.3554  -19.9085   19.9330 C.3     1  UNL1        0.0171
     14 C          -4.5772  -19.0432   19.8421 C.3     1  UNL1        0.0541
     15 N          -5.9508  -18.4405   19.8304 N.3     1  UNL1       -0.2966
     16 H          -6.1613  -18.0768   18.9010 H       1  UNL1        0.1233
@<TRIPOS>BOND
     1     2     3    1
     2     3     4   ar
     3     4     5   ar
     4     5     6   ar
     5     6     1    1
     6     1     9    1
     7    10     9    1
     8    10    11    1
     9    12    11    1
    10    12    13    1
    11    14    13    1
    12    14    15    1
    13     6     7   ar
    14     7     8   ar
    15     8     3   ar
    16    15    10    1
    17    14    12    1
    18    15    16    1
@<TRIPOS>MOLECULE
*****
 16 18 0 0 0
SMALL
GASTEIGER

@<TRIPOS>ATOM
      1 O          -4.2190  -17.3283   23.6430 O.3     1  UNL1       -0.4724
      2 CL          0.0634  -18.1067   19.5133 Cl      1  UNL1       -0.0613
      3 C          -1.0072  -17.9121   20.5457 C.ar    1  UNL1        0.1386
      4 C          -1.3669  -16.5292   21.0017 C.ar    1  UNL1        0.0339
      5 C          -2.4375  -16.3345   22.0341 C.ar    1  UNL1        0.0410
      6 C          -3.1484  -17.5229   22.6106 C.ar    1  UNL1        0.1578
      7 C          -2.7887  -18.9059   22.1547 C.ar    1  UNL1        0.1366
      8 N          -1.7181  -19.1005   21.1222 N.ar    1  UNL1       -0.2293
      9 C          -4.8242  -15.9714   23.8494 C.3     1  UNL1        0.2210
     10 C          -5.8745  -15.7707   24.9013 C.3     1  UNL1        0.0983
     11 C          -5.6256  -15.5173   26.3587 C.3     1  UNL1        0.0209
     12 C          -6.9553  -15.3781   27.0387 C.3     1  UNL1        0.0172
     13 C          -8.4002  -15.2880   27.4313 C.3     1  UNL1        0.0171
     14 C          -8.0260  -15.5455   26.0017 C.3     1  UNL1        0.0541
     15 N          -7.3581  -15.7882   24.6807 N.3     1  UNL1       -0.2966
     16 H          -7.6187  -15.0549   24.0212 H       1  UNL1        0.1233
@<TRIPOS>BOND
     1     2     3    1
     2     3     4   ar
     3     4     5   ar
     4     5     6   ar
     5     6     1    1
     6     1     9    1
     7    10     9    1
     8    10    11    1
     9    12    11    1
    10    12    13    1
    11    14    13    1
    12    14    15    1
    13     6     7   ar
    14     7     8   ar
    15     8     3   ar
    16    15    10    1
    17    14    12    1
    18    15    16    1
@<TRIPOS>MOLECULE
*****
 16 18 0 0 0
SMALL
GASTEIGER

@<TRIPOS>ATOM
      1 O           6.2549  -11.6323   28.2970 O.3     1  UNL1       -0.4724
      2 CL          0.8877  -14.3054   28.0794 Cl      1  UNL1       -0.0613
      3 C           2.2295  -13.6371   28.1338 C.ar    1  UNL1        0.1386
      4 C           2.5818  -12.7557   29.2952 C.ar    1  UNL1        0.0339
      5 C           3.9236  -12.0874   29.3496 C.ar    1  UNL1        0.0410
      6 C           4.9131  -12.3006   28.2426 C.ar    1  UNL1        0.1578
      7 C           4.5608  -13.1820   27.0812 C.ar    1  UNL1        0.1366
      8 N           3.2190  -13.8503   27.0268 N.ar    1  UNL1       -0.2293
      9 C           7.4945  -12.4113   27.9709 C.3     1  UNL1        0.2210
     10 C           7.9611  -13.4990   28.8924 C.3     1  UNL1        0.0983
     11 C           9.3324  -14.1063   28.9165 C.3     1  UNL1        0.0209
     12 C           9.3570  -15.1530   29.9907 C.3     1  UNL1        0.0172
     13 C           9.0829  -16.1147   31.1087 C.3     1  UNL1        0.0171
     14 C           8.0009  -15.1925   30.6305 C.3     1  UNL1        0.0541
     15 N           7.1381  -14.1703   29.9518 N.3     1  UNL1       -0.2966
     16 H           6.8193  -13.4800   30.6317 H       1  UNL1        0.1233
@<TRIPOS>BOND
     1     2     3    1
     2     3     4   ar
     3     4     5   ar
     4     5     6   ar
     5     6     1    1
     6     1     9    1
     7    10     9    1
     8    10    11    1
     9    12    11    1
    10    12    13    1
    11    14    13    1
    12    14    15    1
    13     6     7   ar
    14     7     8   ar
    15     8     3   ar
    16    15    10    1
    17    14    12    1
    18    15    16    1
@<TRIPOS>MOLECULE
*****
 16 18 0 0 0
SMALL
GASTEIGER

@<TRIPOS>ATOM
      1 O          -7.2355  -19.7748   21.9965 O.3     1  UNL1       -0.4724
      2 CL        -12.7949  -18.1713   23.5842 Cl      1  UNL1       -0.0613
      3 C         -11.4051  -18.5721   23.1873 C.ar    1  UNL1        0.1386
      4 C         -10.7542  -19.7600   23.8317 C.ar    1  UNL1        0.0339
      5 C          -9.3643  -20.1609   23.4348 C.ar    1  UNL1        0.0410
      6 C          -8.6253  -19.3739   22.3934 C.ar    1  UNL1        0.1578
      7 C          -9.2762  -18.1861   21.7490 C.ar    1  UNL1        0.1366
      8 N         -10.6661  -17.7852   22.1459 N.ar    1  UNL1       -0.2293
      9 C          -6.7796  -19.5968   20.5786 C.3     1  UNL1        0.2210
     10 C          -5.3366  -19.3114   20.2849 C.3     1  UNL1        0.0983
     11 C          -4.1575  -19.9979   20.9082 C.3     1  UNL1        0.0209
     12 C          -2.9115  -19.4003   20.3249 C.3     1  UNL1        0.0172
     13 C          -1.8663  -18.6253   19.5787 C.3     1  UNL1        0.0171
     14 C          -3.3204  -18.3444   19.3411 C.3     1  UNL1        0.0541
     15 N          -4.8193  -18.2894   19.3164 N.3     1  UNL1       -0.2966
     16 H          -5.1579  -18.4997   18.3775 H       1  UNL1        0.1233
@<TRIPOS>BOND
     1     2     3    1
     2     3     4   ar
     3     4     5   ar
     4     5     6   ar
     5     6     1    1
     6     1     9    1
     7    10     9    1
     8    10    11    1
     9    12    11    1
    10    12    13    1
    11    14    13    1
    12    14    15    1
    13     6     7   ar
    14     7     8   ar
    15     8     3   ar
    16    15    10    1
    17    14    12    1
    18    15    16    1
@<TRIPOS>MOLECULE
*****
 16 18 0 0 0
SMALL
GASTEIGER

@<TRIPOS>ATOM
      1 O          -8.6040  -18.7197   22.3512 O.3     1  UNL1       -0.4724
      2 CL        -14.2654  -18.0765   24.2314 Cl      1  UNL1       -0.0613
      3 C         -12.8501  -18.2373   23.7614 C.ar    1  UNL1        0.1386
      4 C         -12.4871  -17.9002   22.3455 C.ar    1  UNL1        0.0339
      5 C         -11.0718  -18.0610   21.8755 C.ar    1  UNL1        0.0410
      6 C         -10.0194  -18.5589   22.8213 C.ar    1  UNL1        0.1578
      7 C         -10.3823  -18.8960   24.2371 C.ar    1  UNL1        0.1366
      8 N         -11.7977  -18.7352   24.7071 N.ar    1  UNL1       -0.2293
      9 C          -7.7681  -17.5086   22.0605 C.3     1  UNL1        0.2210
     10 C          -7.0815  -16.7848   23.1806 C.3     1  UNL1        0.0983
     11 C          -7.7567  -16.0742   24.3160 C.3     1  UNL1        0.0209
     12 C          -6.6916  -15.4947   25.1991 C.3     1  UNL1        0.0172
     13 C          -5.4303  -15.0440   25.8742 C.3     1  UNL1        0.0171
     14 C          -5.3582  -15.8471   24.6094 C.3     1  UNL1        0.0541
     15 N          -5.5991  -16.6444   23.3619 N.3     1  UNL1       -0.2966
     16 H          -5.1726  -17.5665   23.4527 H       1  UNL1        0.1233
@<TRIPOS>BOND
     1     2     3    1
     2     3     4   ar
     3     4     5   ar
     4     5     6   ar
     5     6     1    1
     6     1     9    1
     7    10     9    1
     8    10    11    1
     9    12    11    1
    10    12    13    1
    11    14    13    1
    12    14    15    1
    13     6     7   ar
    14     7     8   ar
    15     8     3   ar
    16    15    10    1
    17    14    12    1
    18    15    16    1
@<TRIPOS>MOLECULE
*****
 16 18 0 0 0
SMALL
GASTEIGER

@<TRIPOS>ATOM
      1 O          -7.7888  -19.0384   22.6032 O.3     1  UNL1       -0.4724
      2 CL        -11.8902  -15.9431   19.5052 Cl      1  UNL1       -0.0613
      3 C         -10.8649  -16.7169   20.2797 C.ar    1  UNL1        0.1386
      4 C         -10.6863  -18.1850   20.0290 C.ar    1  UNL1        0.0339
      5 C          -9.6610  -18.9588   20.8035 C.ar    1  UNL1        0.0410
      6 C          -8.8142  -18.2646   21.8287 C.ar    1  UNL1        0.1578
      7 C          -8.9928  -16.7965   22.0794 C.ar    1  UNL1        0.1366
      8 N         -10.0181  -16.0227   21.3049 N.ar    1  UNL1       -0.2293
      9 C          -6.9916  -20.1135   21.9261 C.3     1  UNL1        0.2210
     10 C          -5.6851  -19.7779   21.2699 C.3     1  UNL1        0.0983
     11 C          -5.0153  -20.5671   20.1844 C.3     1  UNL1        0.0209
     12 C          -3.7353  -19.8711   19.8277 C.3     1  UNL1        0.0172
     13 C          -2.5432  -18.9707   19.6921 C.3     1  UNL1        0.0171
     14 C          -3.6140  -18.6517   20.6928 C.3     1  UNL1        0.0541
     15 N          -4.8191  -18.5941   21.5843 N.3     1  UNL1       -0.2966
     16 H          -5.3359  -17.7317   21.4123 H       1  UNL1        0.1233
@<TRIPOS>BOND
     1     2     3    1
     2     3     4   ar
     3     4     5   ar
     4     5     6   ar
     5     6     1    1
     6     1     9    1
     7    10     9    1
     8    10    11    1
     9    12    11    1
    10    12    13    1
    11    14    13    1
    12    14    15    1
    13     6     7   ar
    14     7     8   ar
    15     8     3   ar
    16    15    10    1
    17    14    12    1
    18    15    16    1
@<TRIPOS>MOLECULE
*****
 16 18 0 0 0
SMALL
GASTEIGER

@<TRIPOS>ATOM
      1 O         -14.4061   -5.8018   19.1811 O.3     1  UNL1       -0.4724
      2 CL        -17.0340  -11.1675   18.6303 Cl      1  UNL1       -0.0613
      3 C         -16.3770   -9.8261   18.7680 C.ar    1  UNL1        0.1386
      4 C         -17.1467   -8.6682   19.3309 C.ar    1  UNL1        0.0339
      5 C         -16.4898   -7.3268   19.4686 C.ar    1  UNL1        0.0410
      6 C         -15.0631   -7.1432   19.0434 C.ar    1  UNL1        0.1578
      7 C         -14.2933   -8.3011   18.4806 C.ar    1  UNL1        0.1366
      8 N         -14.9503   -9.6425   18.3429 N.ar    1  UNL1       -0.2293
      9 C         -13.0329   -5.6967   19.7754 C.3     1  UNL1        0.2210
     10 C         -11.8703   -5.3043   18.9126 C.3     1  UNL1        0.0983
     11 C         -11.4300   -5.9978   17.6575 C.3     1  UNL1        0.0209
     12 C         -10.2314   -5.2716   17.1227 C.3     1  UNL1        0.0172
     13 C          -9.0743   -4.3607   16.8378 C.3     1  UNL1        0.0171
     14 C          -9.9309   -4.1293   18.0472 C.3     1  UNL1        0.0541
     15 N         -10.9437   -4.1495   19.1535 N.3     1  UNL1       -0.2966
     16 H         -11.4716   -3.2767   19.1555 H       1  UNL1        0.1233
@<TRIPOS>BOND
     1     2     3    1
     2     3     4   ar
     3     4     5   ar
     4     5     6   ar
     5     6     1    1
     6     1     9    1
     7    10     9    1
     8    10    11    1
     9    12    11    1
    10    12    13    1
    11    14    13    1
    12    14    15    1
    13     6     7   ar
    14     7     8   ar
    15     8     3   ar
    16    15    10    1
    17    14    12    1
    18    15    16    1
@<TRIPOS>MOLECULE
*****
 16 18 0 0 0
SMALL
GASTEIGER

@<TRIPOS>ATOM
      1 O         -12.5307   -7.3435   18.8528 O.3     1  UNL1       -0.4724
      2 CL         -8.6589   -3.6939   16.0799 Cl      1  UNL1       -0.0613
      3 C          -9.6268   -4.6063   16.7731 C.ar    1  UNL1        0.1386
      4 C          -9.5389   -4.8049   18.2573 C.ar    1  UNL1        0.0339
      5 C         -10.5069   -5.7173   18.9505 C.ar    1  UNL1        0.0410
      6 C         -11.5628   -6.4311   18.1596 C.ar    1  UNL1        0.1578
      7 C         -11.6506   -6.2325   16.6754 C.ar    1  UNL1        0.1366
      8 N         -10.6827   -5.3201   15.9822 N.ar    1  UNL1       -0.2293
      9 C         -13.7026   -7.9034   18.1024 C.3     1  UNL1        0.2210
     10 C         -15.0436   -7.9978   18.7679 C.3     1  UNL1        0.0983
     11 C         -16.1419   -6.9794   18.6867 C.3     1  UNL1        0.0209
     12 C         -17.2988   -7.4794   19.5000 C.3     1  UNL1        0.0172
     13 C         -18.2685   -8.2249   20.3683 C.3     1  UNL1        0.0171
     14 C         -16.9156   -8.8069   20.0839 C.3     1  UNL1        0.0541
     15 N         -15.5218   -9.1273   19.6315 N.3     1  UNL1       -0.2966
     16 H         -15.5226   -9.9958   19.0964 H       1  UNL1        0.1233
@<TRIPOS>BOND
     1     2     3    1
     2     3     4   ar
     3     4     5   ar
     4     5     6   ar
     5     6     1    1
     6     1     9    1
     7    10     9    1
     8    10    11    1
     9    12    11    1
    10    12    13    1
    11    14    13    1
    12    14    15    1
    13     6     7   ar
    14     7     8   ar
    15     8     3   ar
    16    15    10    1
    17    14    12    1
    18    15    16    1
@<TRIPOS>MOLECULE
*****
 16 18 0 0 0
SMALL
GASTEIGER

@<TRIPOS>ATOM
      1 O         -14.4921   -9.2884   18.6364 O.3     1  UNL1       -0.4724
      2 CL        -20.3578   -9.2031   19.8960 Cl      1  UNL1       -0.0613
      3 C         -18.8914   -9.2244   19.5811 C.ar    1  UNL1        0.1386
      4 C         -17.9740   -8.2194   20.2123 C.ar    1  UNL1        0.0339
      5 C         -16.5076   -8.2407   19.8974 C.ar    1  UNL1        0.0410
      6 C         -15.9585   -9.2671   18.9513 C.ar    1  UNL1        0.1578
      7 C         -16.8758  -10.2721   18.3202 C.ar    1  UNL1        0.1366
      8 N         -18.3423  -10.2508   18.6351 N.ar    1  UNL1       -0.2293
      9 C         -13.9080   -8.2597   17.7142 C.3     1  UNL1        0.2210
     10 C         -12.6880   -7.4901   18.1256 C.3     1  UNL1        0.0983
     11 C         -12.6768   -6.1664   18.8310 C.3     1  UNL1        0.0209
     12 C         -11.2468   -5.7672   19.0451 C.3     1  UNL1        0.0172
     13 C          -9.7540   -5.6392   19.1148 C.3     1  UNL1        0.0171
     14 C         -10.3742   -6.8442   18.4720 C.3     1  UNL1        0.0541
     15 N         -11.2648   -7.9091   17.9037 N.3     1  UNL1       -0.2966
     16 H         -11.0877   -8.7963   18.3747 H       1  UNL1        0.1233
@<TRIPOS>BOND
     1     2     3    1
     2     3     4   ar
     3     4     5   ar
     4     5     6   ar
     5     6     1    1
     6     1     9    1
     7    10     9    1
     8    10    11    1
     9    12    11    1
    10    12    13    1
    11    14    13    1
    12    14    15    1
    13     6     7   ar
    14     7     8   ar
    15     8     3   ar
    16    15    10    1
    17    14    12    1
    18    15    16    1
