@<TRIPOS>MOLECULE
*****
 24 26 0 0 0
SMALL
GASTEIGER

@<TRIPOS>ATOM
      1 N          -7.0241  -19.4353   21.5975 N.ar    1  UNL1       -0.2281
      2 N          -6.5222  -20.2993   20.4788 N.ar    1  UNL1       -0.1635
      3 C          -5.0536  -20.0406   20.3165 C.ar    1  UNL1        0.1219
      4 C          -4.6479  -19.0167   21.3349 C.ar    1  UNL1        0.0425
      5 C          -3.3269  -18.3767   21.6435 C.ar    1  UNL1        0.0744
      6 C          -3.2238  -17.3626   22.7439 C.ar    1  UNL1        0.0040
      7 C          -4.4417  -16.9884   23.5356 C.ar    1  UNL1        0.0015
      8 C          -5.7627  -17.6285   23.2269 C.ar    1  UNL1        0.0192
      9 C          -5.8658  -18.6426   22.1266 C.ar    1  UNL1        0.0843
     10 C         -10.8573  -18.4523   21.8999 C.ar    1  UNL1        0.0224
     11 C         -11.2613  -19.2531   23.1022 C.ar    1  UNL1        0.0969
     12 N         -10.2529  -20.1146   23.8029 N.ar    1  UNL1       -0.2410
     13 C          -8.8405  -20.1753   23.3013 C.ar    1  UNL1        0.1179
     14 C          -8.4365  -19.3746   22.0991 C.ar    1  UNL1        0.1017
     15 C          -9.4449  -18.5130   21.3983 C.ar    1  UNL1        0.0202
     16 C         -12.6233  -17.4324   22.4839 C.3     1  UNL1        0.0339
     17 C         -11.8656  -17.5908   21.1991 C.3     1  UNL1        0.1086
     18 C         -11.1078  -17.7493   19.9142 C.3     1  UNL1        0.0339
     19 O         -12.8738  -16.7293   20.4983 O.3     1  UNL1       -0.3826
     20 H         -13.5531  -16.4470   21.1305 H       1  UNL1        0.2107
     21 C          -2.1091  -18.7508   20.8518 C.3     1  UNL1        0.4187
     22 F          -0.8912  -19.1249   20.0601 F       1  UNL1       -0.1659
     23 F          -1.9901  -20.0237   21.6363 F       1  UNL1       -0.1659
     24 F          -2.2280  -17.4779   20.0673 F       1  UNL1       -0.1659
@<TRIPOS>BOND
     1    16    17    1
     2    17    18    1
     3    17    19    1
     4    17    10    1
     5    10    11   ar
     6    11    12   ar
     7    12    13   ar
     8    13    14   ar
     9    14     1    1
    10     1     2   ar
    11     2     3   ar
    12     3     4   ar
    13     4     5   ar
    14     5    21    1
    15    21    22    1
    16    21    23    1
    17    21    24    1
    18     5     6   ar
    19     6     7   ar
    20     7     8   ar
    21     8     9   ar
    22    14    15   ar
    23    15    10   ar
    24     9     1   ar
    25     9     4   ar
    26    19    20    1
@<TRIPOS>MOLECULE
*****
 24 26 0 0 0
SMALL
GASTEIGER

@<TRIPOS>ATOM
      1 N          -7.1010  -18.4036   22.4263 N.ar    1  UNL1       -0.2281
      2 N          -6.2335  -17.3724   23.0851 N.ar    1  UNL1       -0.1635
      3 C          -4.8227  -17.5909   22.6247 C.ar    1  UNL1        0.1219
      4 C          -4.8183  -18.7572   21.6814 C.ar    1  UNL1        0.0425
      5 C          -3.7141  -19.4266   20.9183 C.ar    1  UNL1        0.0744
      6 C          -4.0180  -20.5984   20.0325 C.ar    1  UNL1        0.0040
      7 C          -5.4260  -21.1007   19.9099 C.ar    1  UNL1        0.0015
      8 C          -6.5303  -20.4312   20.6731 C.ar    1  UNL1        0.0192
      9 C          -6.2264  -19.2594   21.5588 C.ar    1  UNL1        0.0843
     10 C         -11.0060  -17.8655   21.9661 C.ar    1  UNL1        0.0224
     11 C         -11.5469  -18.8512   22.9590 C.ar    1  UNL1        0.0969
     12 N         -10.6059  -19.6876   23.7743 N.ar    1  UNL1       -0.2410
     13 C          -9.1239  -19.5384   23.5968 C.ar    1  UNL1        0.1179
     14 C          -8.5830  -18.5528   22.6039 C.ar    1  UNL1        0.1017
     15 C          -9.5240  -17.7163   21.7885 C.ar    1  UNL1        0.0202
     16 C         -12.5403  -16.4693   22.4096 C.3     1  UNL1        0.0339
     17 C         -11.9470  -17.0290   21.1508 C.3     1  UNL1        0.1086
     18 C         -11.3536  -17.5887   19.8919 C.3     1  UNL1        0.0339
     19 O         -12.8879  -16.1925   20.3353 O.3     1  UNL1       -0.3826
     20 H         -13.4525  -15.6710   20.9270 H       1  UNL1        0.2107
     21 C          -2.3060  -18.9244   21.0409 C.3     1  UNL1        0.4187
     22 F          -0.8980  -18.4221   21.1634 F       1  UNL1       -0.1659
     23 F          -2.6031  -17.8474   20.0399 F       1  UNL1       -0.1659
     24 F          -2.0090  -20.0014   22.0418 F       1  UNL1       -0.1659
@<TRIPOS>BOND
     1    16    17    1
     2    17    18    1
     3    17    19    1
     4    17    10    1
     5    10    11   ar
     6    11    12   ar
     7    12    13   ar
     8    13    14   ar
     9    14     1    1
    10     1     2   ar
    11     2     3   ar
    12     3     4   ar
    13     4     5   ar
    14     5    21    1
    15    21    22    1
    16    21    23    1
    17    21    24    1
    18     5     6   ar
    19     6     7   ar
    20     7     8   ar
    21     8     9   ar
    22    14    15   ar
    23    15    10   ar
    24     9     1   ar
    25     9     4   ar
    26    19    20    1
@<TRIPOS>MOLECULE
*****
 24 26 0 0 0
SMALL
GASTEIGER

@<TRIPOS>ATOM
      1 N          -8.3109  -18.8895   21.0745 N.ar    1  UNL1       -0.2281
      2 N          -7.7921  -19.8847   20.0793 N.ar    1  UNL1       -0.1635
      3 C          -6.3011  -19.9542   20.2274 C.ar    1  UNL1        0.1219
      4 C          -5.8983  -19.0019   21.3141 C.ar    1  UNL1        0.0425
      5 C          -4.5610  -18.6490   21.8946 C.ar    1  UNL1        0.0744
      6 C          -4.4658  -17.6381   22.9986 C.ar    1  UNL1        0.0040
      7 C          -5.7079  -16.9800   23.5221 C.ar    1  UNL1        0.0015
      8 C          -7.0452  -17.3329   22.9417 C.ar    1  UNL1        0.0192
      9 C          -7.1404  -18.3439   21.8377 C.ar    1  UNL1        0.0843
     10 C         -11.8346  -18.3154   22.8077 C.ar    1  UNL1        0.0224
     11 C         -12.6216  -17.7419   21.6668 C.ar    1  UNL1        0.0969
     12 N         -11.9717  -17.5510   20.3285 N.ar    1  UNL1       -0.2410
     13 C         -10.5348  -17.9335   20.1311 C.ar    1  UNL1        0.1179
     14 C          -9.7478  -18.5069   21.2719 C.ar    1  UNL1        0.1017
     15 C         -10.3977  -18.6979   22.6103 C.ar    1  UNL1        0.0202
     16 C         -11.2174  -19.1104   24.6751 C.3     1  UNL1        0.0339
     17 C         -12.4844  -18.5064   24.1461 C.3     1  UNL1        0.1086
     18 C         -13.7515  -17.9023   23.6170 C.3     1  UNL1        0.0339
     19 O         -13.1343  -18.6973   25.4844 O.3     1  UNL1       -0.3826
     20 H         -12.5019  -19.1067   26.0955 H       1  UNL1        0.2107
     21 C          -3.3188  -19.3071   21.3710 C.3     1  UNL1        0.4187
     22 F          -2.0767  -19.9651   20.8475 F       1  UNL1       -0.1659
     23 F          -3.2488  -20.1568   22.6052 F       1  UNL1       -0.1659
     24 F          -3.3889  -18.4574   20.1369 F       1  UNL1       -0.1659
@<TRIPOS>BOND
     1    16    17    1
     2    17    18    1
     3    17    19    1
     4    17    10    1
     5    10    11   ar
     6    11    12   ar
     7    12    13   ar
     8    13    14   ar
     9    14     1    1
    10     1     2   ar
    11     2     3   ar
    12     3     4   ar
    13     4     5   ar
    14     5    21    1
    15    21    22    1
    16    21    23    1
    17    21    24    1
    18     5     6   ar
    19     6     7   ar
    20     7     8   ar
    21     8     9   ar
    22    14    15   ar
    23    15    10   ar
    24     9     1   ar
    25     9     4   ar
    26    19    20    1
@<TRIPOS>MOLECULE
*****
 24 26 0 0 0
SMALL
GASTEIGER

@<TRIPOS>ATOM
      1 N          -7.7261  -17.4512   23.2165 N.ar    1  UNL1       -0.2281
      2 N          -8.3304  -16.6437   24.3268 N.ar    1  UNL1       -0.1635
      3 C          -9.8199  -16.8078   24.2615 C.ar    1  UNL1        0.1219
      4 C         -10.1362  -17.7166   23.1109 C.ar    1  UNL1        0.0425
      5 C         -11.4354  -18.2335   22.5678 C.ar    1  UNL1        0.0744
      6 C         -11.4404  -19.1480   21.3788 C.ar    1  UNL1        0.0040
      7 C         -10.1463  -19.5456   20.7330 C.ar    1  UNL1        0.0015
      8 C          -8.8472  -19.0288   21.2761 C.ar    1  UNL1        0.0192
      9 C          -8.8421  -18.1143   22.4650 C.ar    1  UNL1        0.0843
     10 C          -4.3022  -18.8310   21.7593 C.ar    1  UNL1        0.0224
     11 C          -3.3356  -17.8197   22.3007 C.ar    1  UNL1        0.0969
     12 N          -3.8326  -16.6856   23.1473 N.ar    1  UNL1       -0.2410
     13 C          -5.2960  -16.5628   23.4525 C.ar    1  UNL1        0.1179
     14 C          -6.2626  -17.5740   22.9112 C.ar    1  UNL1        0.1017
     15 C          -5.7656  -18.7082   22.0645 C.ar    1  UNL1        0.0202
     16 C          -5.2119  -20.2614   20.4839 C.3     1  UNL1        0.0339
     17 C          -3.8053  -19.9652   20.9127 C.3     1  UNL1        0.1086
     18 C          -2.3987  -19.6689   21.3414 C.3     1  UNL1        0.0339
     19 O          -3.3084  -21.0993   20.0661 O.3     1  UNL1       -0.3826
     20 H          -4.0588  -21.5244   19.6222 H       1  UNL1        0.2107
     21 C         -12.7295  -17.8358   23.2136 C.3     1  UNL1        0.4187
     22 F         -14.0236  -17.4382   23.8595 F       1  UNL1       -0.1659
     23 F         -12.4338  -18.7476   24.3674 F       1  UNL1       -0.1659
     24 F         -13.0252  -16.9240   22.0599 F       1  UNL1       -0.1659
@<TRIPOS>BOND
     1    16    17    1
     2    17    18    1
     3    17    19    1
     4    17    10    1
     5    10    11   ar
     6    11    12   ar
     7    12    13   ar
     8    13    14   ar
     9    14     1    1
    10     1     2   ar
    11     2     3   ar
    12     3     4   ar
    13     4     5   ar
    14     5    21    1
    15    21    22    1
    16    21    23    1
    17    21    24    1
    18     5     6   ar
    19     6     7   ar
    20     7     8   ar
    21     8     9   ar
    22    14    15   ar
    23    15    10   ar
    24     9     1   ar
    25     9     4   ar
    26    19    20    1
@<TRIPOS>MOLECULE
*****
 24 26 0 0 0
SMALL
GASTEIGER

@<TRIPOS>ATOM
      1 N          -7.2468  -18.5140   21.7308 N.ar    1  UNL1       -0.2281
      2 N          -7.4079  -17.6553   22.9501 N.ar    1  UNL1       -0.1635
      3 C          -8.8513  -17.2598   23.0509 C.ar    1  UNL1        0.1219
      4 C          -9.5822  -17.8741   21.8940 C.ar    1  UNL1        0.0425
      5 C         -11.0227  -17.8278   21.4781 C.ar    1  UNL1        0.0744
      6 C         -11.4714  -18.5566   20.2463 C.ar    1  UNL1        0.0040
      7 C         -10.4797  -19.3317   19.4304 C.ar    1  UNL1        0.0015
      8 C          -9.0393  -19.3781   19.8463 C.ar    1  UNL1        0.0192
      9 C          -8.5906  -18.6493   21.0781 C.ar    1  UNL1        0.0843
     10 C          -3.3924  -19.0019   20.9208 C.ar    1  UNL1        0.0224
     11 C          -3.4061  -20.3603   20.2848 C.ar    1  UNL1        0.0969
     12 N          -4.7001  -21.1033   20.1309 N.ar    1  UNL1       -0.2410
     13 C          -5.9803  -20.4879   20.6129 C.ar    1  UNL1        0.1179
     14 C          -5.9666  -19.1295   21.2488 C.ar    1  UNL1        0.1017
     15 C          -4.6726  -18.3864   21.4028 C.ar    1  UNL1        0.0202
     16 C          -2.3795  -18.0722   22.5363 C.3     1  UNL1        0.0339
     17 C          -2.0985  -18.2589   21.0747 C.3     1  UNL1        0.1086
     18 C          -1.8175  -18.4455   19.6131 C.3     1  UNL1        0.0339
     19 O          -0.8046  -17.5158   21.2286 O.3     1  UNL1       -0.3826
     20 H          -0.6971  -17.2419   22.1529 H       1  UNL1        0.2107
     21 C         -12.0143  -17.0526   22.2940 C.3     1  UNL1        0.4187
     22 F         -13.0060  -16.2775   23.1099 F       1  UNL1       -0.1659
     23 F         -12.4958  -18.3278   22.9203 F       1  UNL1       -0.1659
     24 F         -11.5329  -15.7775   21.6677 F       1  UNL1       -0.1659
@<TRIPOS>BOND
     1    16    17    1
     2    17    18    1
     3    17    19    1
     4    17    10    1
     5    10    11   ar
     6    11    12   ar
     7    12    13   ar
     8    13    14   ar
     9    14     1    1
    10     1     2   ar
    11     2     3   ar
    12     3     4   ar
    13     4     5   ar
    14     5    21    1
    15    21    22    1
    16    21    23    1
    17    21    24    1
    18     5     6   ar
    19     6     7   ar
    20     7     8   ar
    21     8     9   ar
    22    14    15   ar
    23    15    10   ar
    24     9     1   ar
    25     9     4   ar
    26    19    20    1
@<TRIPOS>MOLECULE
*****
 24 26 0 0 0
SMALL
GASTEIGER

@<TRIPOS>ATOM
      1 N          -7.9832  -18.7605   21.6539 N.ar    1  UNL1       -0.2281
      2 N          -8.7056  -17.6245   20.9924 N.ar    1  UNL1       -0.1635
      3 C         -10.0691  -17.5206   21.6089 C.ar    1  UNL1        0.1219
      4 C         -10.1894  -18.5923   22.6514 C.ar    1  UNL1        0.0425
      5 C         -11.3063  -18.9695   23.5789 C.ar    1  UNL1        0.0744
      6 C         -11.1340  -20.1129   24.5343 C.ar    1  UNL1        0.0040
      7 C          -9.8448  -20.8792   24.5621 C.ar    1  UNL1        0.0015
      8 C          -8.7279  -20.5021   23.6346 C.ar    1  UNL1        0.0192
      9 C          -8.9002  -19.3587   22.6792 C.ar    1  UNL1        0.0843
     10 C          -4.0256  -19.0462   21.7344 C.ar    1  UNL1        0.0224
     11 C          -3.7993  -20.1331   20.7257 C.ar    1  UNL1        0.0969
     12 N          -4.9677  -20.7625   20.0265 N.ar    1  UNL1       -0.2410
     13 C          -6.3623  -20.3049   20.3359 C.ar    1  UNL1        0.1179
     14 C          -6.5886  -19.2181   21.3445 C.ar    1  UNL1        0.1017
     15 C          -5.4202  -18.5887   22.0438 C.ar    1  UNL1        0.0202
     16 C          -3.7896  -17.7920   23.4289 C.3     1  UNL1        0.0339
     17 C          -2.8574  -18.4168   22.4336 C.3     1  UNL1        0.1086
     18 C          -1.9251  -19.0416   21.4383 C.3     1  UNL1        0.0339
     19 O          -1.6891  -17.7874   23.1329 O.3     1  UNL1       -0.3826
     20 H          -2.0056  -17.2709   23.8904 H       1  UNL1        0.2107
     21 C         -12.5955  -18.2031   23.5510 C.3     1  UNL1        0.4187
     22 F         -13.8846  -17.4368   23.5232 F       1  UNL1       -0.1659
     23 F         -12.5180  -18.1273   22.0550 F       1  UNL1       -0.1659
     24 F         -12.6729  -18.2790   25.0471 F       1  UNL1       -0.1659
@<TRIPOS>BOND
     1    16    17    1
     2    17    18    1
     3    17    19    1
     4    17    10    1
     5    10    11   ar
     6    11    12   ar
     7    12    13   ar
     8    13    14   ar
     9    14     1    1
    10     1     2   ar
    11     2     3   ar
    12     3     4   ar
    13     4     5   ar
    14     5    21    1
    15    21    22    1
    16    21    23    1
    17    21    24    1
    18     5     6   ar
    19     6     7   ar
    20     7     8   ar
    21     8     9   ar
    22    14    15   ar
    23    15    10   ar
    24     9     1   ar
    25     9     4   ar
    26    19    20    1
@<TRIPOS>MOLECULE
*****
 24 26 0 0 0
SMALL
GASTEIGER

@<TRIPOS>ATOM
      1 N          -8.3712  -17.9882   22.1570 N.ar    1  UNL1       -0.2281
      2 N          -7.5182  -18.9865   21.4318 N.ar    1  UNL1       -0.1635
      3 C          -6.0845  -18.7031   21.7696 C.ar    1  UNL1        0.1219
      4 C          -6.0514  -17.5298   22.7035 C.ar    1  UNL1        0.0425
      5 C          -4.9170  -16.8066   23.3669 C.ar    1  UNL1        0.0744
      6 C          -5.1959  -15.6416   24.2696 C.ar    1  UNL1        0.0040
      7 C          -6.6092  -15.1998   24.5090 C.ar    1  UNL1        0.0015
      8 C          -7.7436  -15.9230   23.8457 C.ar    1  UNL1        0.0192
      9 C          -7.4647  -17.0879   22.9429 C.ar    1  UNL1        0.0843
     10 C         -12.1769  -18.1519   23.2708 C.ar    1  UNL1        0.0224
     11 C         -12.8617  -17.7382   22.0019 C.ar    1  UNL1        0.0969
     12 N         -12.0496  -17.4079   20.7848 N.ar    1  UNL1       -0.2410
     13 C         -10.5528  -17.4913   20.8365 C.ar    1  UNL1        0.1179
     14 C          -9.8680  -17.9049   22.1053 C.ar    1  UNL1        0.1017
     15 C         -10.6801  -18.2352   23.3225 C.ar    1  UNL1        0.0202
     16 C         -14.2145  -17.9340   23.8192 C.3     1  UNL1        0.0339
     17 C         -12.9889  -18.4821   24.4879 C.3     1  UNL1        0.1086
     18 C         -11.7632  -19.0304   25.1567 C.3     1  UNL1        0.0339
     19 O         -13.8008  -18.8125   25.7052 O.3     1  UNL1       -0.3826
     20 H         -14.7231  -18.5495   25.5598 H       1  UNL1        0.2107
     21 C          -3.5037  -17.2484   23.1275 C.3     1  UNL1        0.4187
     22 F          -2.0903  -17.6903   22.8881 F       1  UNL1       -0.1659
     23 F          -3.2026  -15.9318   22.4750 F       1  UNL1       -0.1659
     24 F          -3.8048  -18.5651   23.7800 F       1  UNL1       -0.1659
@<TRIPOS>BOND
     1    16    17    1
     2    17    18    1
     3    17    19    1
     4    17    10    1
     5    10    11   ar
     6    11    12   ar
     7    12    13   ar
     8    13    14   ar
     9    14     1    1
    10     1     2   ar
    11     2     3   ar
    12     3     4   ar
    13     4     5   ar
    14     5    21    1
    15    21    22    1
    16    21    23    1
    17    21    24    1
    18     5     6   ar
    19     6     7   ar
    20     7     8   ar
    21     8     9   ar
    22    14    15   ar
    23    15    10   ar
    24     9     1   ar
    25     9     4   ar
    26    19    20    1
@<TRIPOS>MOLECULE
*****
 24 26 0 0 0
SMALL
GASTEIGER

@<TRIPOS>ATOM
      1 N          -6.5029  -19.3635   20.7587 N.ar    1  UNL1       -0.2281
      2 N          -5.7141  -19.9953   19.6502 N.ar    1  UNL1       -0.1635
      3 C          -4.2709  -19.6362   19.8454 C.ar    1  UNL1        0.1219
      4 C          -4.1677  -18.7825   21.0745 C.ar    1  UNL1        0.0425
      5 C          -2.9959  -18.1368   21.7526 C.ar    1  UNL1        0.0744
      6 C          -3.2036  -17.3226   22.9951 C.ar    1  UNL1        0.0040
      7 C          -4.5831  -17.1541   23.5595 C.ar    1  UNL1        0.0015
      8 C          -5.7549  -17.7998   22.8814 C.ar    1  UNL1        0.0192
      9 C          -5.5472  -18.6140   21.6389 C.ar    1  UNL1        0.0843
     10 C         -10.0457  -19.5957   22.5322 C.ar    1  UNL1        0.0224
     11 C         -10.9550  -19.6642   21.3412 C.ar    1  UNL1        0.0969
     12 N         -10.3802  -19.6324   19.9561 N.ar    1  UNL1       -0.2410
     13 C          -8.8962  -19.5322   19.7619 C.ar    1  UNL1        0.1179
     14 C          -7.9869  -19.4637   20.9528 C.ar    1  UNL1        0.1017
     15 C          -8.5617  -19.4955   22.3381 C.ar    1  UNL1        0.0202
     16 C         -11.6763  -18.6466   23.5019 C.3     1  UNL1        0.0339
     17 C         -10.6203  -19.6275   23.9174 C.3     1  UNL1        0.1086
     18 C          -9.5643  -20.6085   24.3329 C.3     1  UNL1        0.0339
     19 O         -11.1949  -19.6593   25.3026 O.3     1  UNL1       -0.3826
     20 H         -11.9625  -19.0681   25.3479 H       1  UNL1        0.2107
     21 C          -1.6164  -18.3053   21.1882 C.3     1  UNL1        0.4187
     22 F          -0.2369  -18.4738   20.6237 F       1  UNL1       -0.1659
     23 F          -1.5885  -19.7223   21.6793 F       1  UNL1       -0.1659
     24 F          -1.6443  -16.8882   20.6970 F       1  UNL1       -0.1659
@<TRIPOS>BOND
     1    16    17    1
     2    17    18    1
     3    17    19    1
     4    17    10    1
     5    10    11   ar
     6    11    12   ar
     7    12    13   ar
     8    13    14   ar
     9    14     1    1
    10     1     2   ar
    11     2     3   ar
    12     3     4   ar
    13     4     5   ar
    14     5    21    1
    15    21    22    1
    16    21    23    1
    17    21    24    1
    18     5     6   ar
    19     6     7   ar
    20     7     8   ar
    21     8     9   ar
    22    14    15   ar
    23    15    10   ar
    24     9     1   ar
    25     9     4   ar
    26    19    20    1
@<TRIPOS>MOLECULE
*****
 24 26 0 0 0
SMALL
GASTEIGER

@<TRIPOS>ATOM
      1 N          -6.4499  -18.2042   22.0204 N.ar    1  UNL1       -0.2281
      2 N          -7.2845  -17.5524   23.0828 N.ar    1  UNL1       -0.1635
      3 C          -8.7274  -17.7363   22.7165 C.ar    1  UNL1        0.1219
      4 C          -8.7846  -18.5018   21.4278 C.ar    1  UNL1        0.0425
      5 C          -9.9365  -18.9729   20.5904 C.ar    1  UNL1        0.0744
      6 C          -9.6808  -19.7332   19.3230 C.ar    1  UNL1        0.0040
      7 C          -8.2732  -20.0224   18.8928 C.ar    1  UNL1        0.0015
      8 C          -7.1213  -19.5513   19.7301 C.ar    1  UNL1        0.0192
      9 C          -7.3770  -18.7910   20.9976 C.ar    1  UNL1        0.0843
     10 C          -2.7278  -18.2190   20.6434 C.ar    1  UNL1        0.0224
     11 C          -1.9540  -18.3703   21.9195 C.ar    1  UNL1        0.0969
     12 N          -2.6789  -18.4663   23.2292 N.ar    1  UNL1       -0.2410
     13 C          -4.1775  -18.4109   23.2628 C.ar    1  UNL1        0.1179
     14 C          -4.9513  -18.2596   21.9868 C.ar    1  UNL1        0.1017
     15 C          -4.2264  -18.1636   20.6770 C.ar    1  UNL1        0.0202
     16 C          -3.3083  -17.9068   18.6271 C.3     1  UNL1        0.0339
     17 C          -2.0030  -18.1230   19.3337 C.3     1  UNL1        0.1086
     18 C          -0.6976  -18.3391   20.0403 C.3     1  UNL1        0.0339
     19 O          -1.2781  -18.0270   18.0240 O.3     1  UNL1       -0.3826
     20 H          -1.9177  -17.8745   17.3109 H       1  UNL1        0.2107
     21 C         -11.3441  -18.6837   21.0206 C.3     1  UNL1        0.4187
     22 F         -12.7517  -18.3945   21.4508 F       1  UNL1       -0.1659
     23 F         -11.2209  -19.7062   22.1111 F       1  UNL1       -0.1659
     24 F         -11.4673  -17.6612   19.9301 F       1  UNL1       -0.1659
@<TRIPOS>BOND
     1    16    17    1
     2    17    18    1
     3    17    19    1
     4    17    10    1
     5    10    11   ar
     6    11    12   ar
     7    12    13   ar
     8    13    14   ar
     9    14     1    1
    10     1     2   ar
    11     2     3   ar
    12     3     4   ar
    13     4     5   ar
    14     5    21    1
    15    21    22    1
    16    21    23    1
    17    21    24    1
    18     5     6   ar
    19     6     7   ar
    20     7     8   ar
    21     8     9   ar
    22    14    15   ar
    23    15    10   ar
    24     9     1   ar
    25     9     4   ar
    26    19    20    1
