@<TRIPOS>MOLECULE
*****
 22 24 0 0 0
SMALL
GASTEIGER

@<TRIPOS>ATOM
      1 C          -8.7490  -18.8230   21.5528 C.ar    1  UNL1        0.0428
      2 C          -9.3079  -19.5312   20.3543 C.ar    1  UNL1        0.0077
      3 C         -10.3901  -18.8869   19.5395 C.ar    1  UNL1        0.0006
      4 C         -10.9134  -17.5346   19.9232 C.ar    1  UNL1        0.0013
      5 C         -10.3546  -16.8265   21.1217 C.ar    1  UNL1        0.0150
      6 C          -9.2724  -17.4707   21.9365 C.ar    1  UNL1        0.0540
      7 N          -8.7136  -16.7626   23.1349 N.pl3   1  UNL1       -0.3043
      8 C          -7.6818  -15.6884   22.9578 C.3     1  UNL1        0.1079
      9 C          -7.1230  -14.9803   24.1562 C.3     1  UNL1        0.0903
     10 N          -7.5960  -15.3463   25.5319 N.3     1  UNL1       -0.2946
     11 C          -8.6279  -16.4205   25.7090 C.3     1  UNL1        0.0903
     12 C          -9.1867  -17.1287   24.5104 C.3     1  UNL1        0.1079
     13 H          -7.9805  -14.4975   25.9466 H       1  UNL1        0.1233
     14 S          -7.6669  -19.4673   22.3675 S.3     1  UNL1       -0.0848
     15 CL         -1.9235  -18.8628   20.7402 Cl      1  UNL1       -0.0822
     16 C          -3.3593  -19.0139   21.1470 C.ar    1  UNL1        0.0585
     17 C          -3.9170  -18.1726   22.2565 C.ar    1  UNL1        0.0120
     18 C          -5.3529  -18.3237   22.6634 C.ar    1  UNL1        0.0082
     19 C          -6.2310  -19.3162   21.9607 C.ar    1  UNL1        0.0401
     20 C          -5.6733  -20.1575   20.8511 C.ar    1  UNL1        0.0645
     21 CL         -6.5515  -21.1500   20.1484 Cl      1  UNL1       -0.0817
     22 C          -4.2375  -20.0064   20.4443 C.ar    1  UNL1        0.0233
@<TRIPOS>BOND
     1    15    16    1
     2    16    17   ar
     3    17    18   ar
     4    18    19   ar
     5    19    14    1
     6    14     1    1
     7     1     2   ar
     8     2     3   ar
     9     3     4   ar
    10     4     5   ar
    11     5     6   ar
    12     6     7    1
    13     7     8    1
    14     8     9    1
    15     9    10    1
    16    10    11    1
    17    11    12    1
    18    19    20   ar
    19    20    21    1
    20    20    22   ar
    21    22    16   ar
    22     6     1   ar
    23    12     7    1
    24    10    13    1
@<TRIPOS>MOLECULE
*****
 22 24 0 0 0
SMALL
GASTEIGER

@<TRIPOS>ATOM
      1 C          -7.2636  -16.1448   24.8282 C.ar    1  UNL1        0.0428
      2 C          -6.2765  -15.4198   25.6943 C.ar    1  UNL1        0.0077
      3 C          -6.5708  -15.2059   27.1495 C.ar    1  UNL1        0.0006
      4 C          -7.8521  -15.7169   27.7386 C.ar    1  UNL1        0.0013
      5 C          -8.8392  -16.4418   26.8725 C.ar    1  UNL1        0.0150
      6 C          -8.5450  -16.6558   25.4173 C.ar    1  UNL1        0.0540
      7 N          -9.5320  -17.3807   24.5512 N.pl3   1  UNL1       -0.3043
      8 C         -10.3239  -16.6272   23.5240 C.3     1  UNL1        0.1079
      9 C         -11.3110  -17.3521   22.6580 C.3     1  UNL1        0.0903
     10 N         -11.5062  -18.8307   22.8191 N.3     1  UNL1       -0.2946
     11 C         -10.7143  -19.5842   23.8462 C.3     1  UNL1        0.0903
     12 C          -9.7272  -18.8592   24.7123 C.3     1  UNL1        0.1079
     13 H         -11.2965  -19.2555   21.9158 H       1  UNL1        0.1233
     14 S          -6.9694  -16.3587   23.3730 S.3     1  UNL1       -0.0848
     15 CL         -2.4779  -19.9777   21.7209 Cl      1  UNL1       -0.0822
     16 C          -3.6007  -19.0729   22.1339 C.ar    1  UNL1        0.0585
     17 C          -3.3114  -17.8311   22.9239 C.ar    1  UNL1        0.0120
     18 C          -4.4343  -16.9264   23.3369 C.ar    1  UNL1        0.0082
     19 C          -5.8465  -17.2635   22.9600 C.ar    1  UNL1        0.0401
     20 C          -6.1358  -18.5053   22.1700 C.ar    1  UNL1        0.0645
     21 CL         -7.5480  -18.8424   21.7930 Cl      1  UNL1       -0.0817
     22 C          -5.0129  -19.4100   21.7570 C.ar    1  UNL1        0.0233
@<TRIPOS>BOND
     1    15    16    1
     2    16    17   ar
     3    17    18   ar
     4    18    19   ar
     5    19    14    1
     6    14     1    1
     7     1     2   ar
     8     2     3   ar
     9     3     4   ar
    10     4     5   ar
    11     5     6   ar
    12     6     7    1
    13     7     8    1
    14     8     9    1
    15     9    10    1
    16    10    11    1
    17    11    12    1
    18    19    20   ar
    19    20    21    1
    20    20    22   ar
    21    22    16   ar
    22     6     1   ar
    23    12     7    1
    24    10    13    1
@<TRIPOS>MOLECULE
*****
 22 24 0 0 0
SMALL
GASTEIGER

@<TRIPOS>ATOM
      1 C          -7.3916  -16.1001   24.6042 C.ar    1  UNL1        0.0428
      2 C          -6.3179  -15.4411   25.4185 C.ar    1  UNL1        0.0077
      3 C          -6.4480  -15.3660   26.9109 C.ar    1  UNL1        0.0006
      4 C          -7.6518  -15.9498   27.5892 C.ar    1  UNL1        0.0013
      5 C          -8.7255  -16.6087   26.7750 C.ar    1  UNL1        0.0150
      6 C          -8.5954  -16.6839   25.2825 C.ar    1  UNL1        0.0540
      7 N          -9.6691  -17.3428   24.4683 N.pl3   1  UNL1       -0.3043
      8 C          -9.8786  -18.8251   24.5625 C.3     1  UNL1        0.1079
      9 C         -10.9523  -19.4841   23.7484 C.3     1  UNL1        0.0903
     10 N         -11.8166  -18.6607   22.8400 N.3     1  UNL1       -0.2946
     11 C         -11.6072  -17.1784   22.7458 C.3     1  UNL1        0.0903
     12 C         -10.5334  -16.5195   23.5600 C.3     1  UNL1        0.1079
     13 H         -12.7805  -18.8033   23.1416 H       1  UNL1        0.1233
     14 S          -7.2615  -16.1752   23.1118 S.3     1  UNL1       -0.0848
     15 CL         -5.8434  -21.3785   20.4822 Cl      1  UNL1       -0.0822
     16 C          -6.1979  -20.0777   21.1396 C.ar    1  UNL1        0.0585
     17 C          -7.5815  -19.5167   20.9946 C.ar    1  UNL1        0.0120
     18 C          -7.9360  -18.2159   21.6520 C.ar    1  UNL1        0.0082
     19 C          -6.9070  -17.4760   22.4544 C.ar    1  UNL1        0.0401
     20 C          -5.5235  -18.0371   22.5993 C.ar    1  UNL1        0.0645
     21 CL         -4.4944  -17.2972   23.4017 Cl      1  UNL1       -0.0817
     22 C          -5.1689  -19.3379   21.9419 C.ar    1  UNL1        0.0233
@<TRIPOS>BOND
     1    15    16    1
     2    16    17   ar
     3    17    18   ar
     4    18    19   ar
     5    19    14    1
     6    14     1    1
     7     1     2   ar
     8     2     3   ar
     9     3     4   ar
    10     4     5   ar
    11     5     6   ar
    12     6     7    1
    13     7     8    1
    14     8     9    1
    15     9    10    1
    16    10    11    1
    17    11    12    1
    18    19    20   ar
    19    20    21    1
    20    20    22   ar
    21    22    16   ar
    22     6     1   ar
    23    12     7    1
    24    10    13    1
@<TRIPOS>MOLECULE
*****
 22 24 0 0 0
SMALL
GASTEIGER

@<TRIPOS>ATOM
      1 C          -7.5103  -19.2027   21.1715 C.ar    1  UNL1        0.0428
      2 C          -7.6028  -20.0381   19.9290 C.ar    1  UNL1        0.0077
      3 C          -8.8290  -19.9683   19.0679 C.ar    1  UNL1        0.0006
      4 C          -9.9627  -19.0632   19.4492 C.ar    1  UNL1        0.0013
      5 C          -9.8703  -18.2279   20.6917 C.ar    1  UNL1        0.0150
      6 C          -8.6441  -18.2977   21.5529 C.ar    1  UNL1        0.0540
      7 N          -8.5516  -17.4624   22.7953 N.pl3   1  UNL1       -0.3043
      8 C          -7.7776  -16.1776   22.7794 C.3     1  UNL1        0.1079
      9 C          -7.6851  -15.3423   24.0219 C.3     1  UNL1        0.0903
     10 N          -8.3668  -15.7917   25.2802 N.3     1  UNL1       -0.2946
     11 C          -9.1409  -17.0765   25.2961 C.3     1  UNL1        0.0903
     12 C          -9.2333  -17.9118   24.0536 C.3     1  UNL1        0.1079
     13 H          -9.0184  -15.0521   25.5424 H       1  UNL1        0.1233
     14 S          -6.2841  -19.2725   22.0326 S.3     1  UNL1       -0.0848
     15 CL         -0.8807  -18.2111   19.6501 Cl      1  UNL1       -0.0822
     16 C          -2.2315  -18.4764   20.2457 C.ar    1  UNL1        0.0585
     17 C          -3.2357  -19.2967   19.4916 C.ar    1  UNL1        0.0120
     18 C          -4.5866  -19.5621   20.0873 C.ar    1  UNL1        0.0082
     19 C          -4.9333  -19.0072   21.4370 C.ar    1  UNL1        0.0401
     20 C          -3.9291  -18.1869   22.1911 C.ar    1  UNL1        0.0645
     21 CL         -4.2757  -17.6319   23.5409 Cl      1  UNL1       -0.0817
     22 C          -2.5782  -17.9215   21.5955 C.ar    1  UNL1        0.0233
@<TRIPOS>BOND
     1    15    16    1
     2    16    17   ar
     3    17    18   ar
     4    18    19   ar
     5    19    14    1
     6    14     1    1
     7     1     2   ar
     8     2     3   ar
     9     3     4   ar
    10     4     5   ar
    11     5     6   ar
    12     6     7    1
    13     7     8    1
    14     8     9    1
    15     9    10    1
    16    10    11    1
    17    11    12    1
    18    19    20   ar
    19    20    21    1
    20    20    22   ar
    21    22    16   ar
    22     6     1   ar
    23    12     7    1
    24    10    13    1
@<TRIPOS>MOLECULE
*****
 22 24 0 0 0
SMALL
GASTEIGER

@<TRIPOS>ATOM
      1 C          -7.3393  -16.9192   23.0342 C.ar    1  UNL1        0.0428
      2 C          -7.7038  -15.7916   23.9539 C.ar    1  UNL1        0.0077
      3 C          -6.6589  -15.1761   24.8366 C.ar    1  UNL1        0.0006
      4 C          -5.2495  -15.6880   24.7996 C.ar    1  UNL1        0.0013
      5 C          -4.8849  -16.8154   23.8800 C.ar    1  UNL1        0.0150
      6 C          -5.9298  -17.4311   22.9972 C.ar    1  UNL1        0.0540
      7 N          -5.5652  -18.5586   22.0775 N.pl3   1  UNL1       -0.3043
      8 C          -4.2227  -18.5768   21.4088 C.3     1  UNL1        0.1079
      9 C          -3.8581  -19.7042   20.4891 C.3     1  UNL1        0.0903
     10 N          -4.8361  -20.8136   20.2382 N.3     1  UNL1       -0.2946
     11 C          -6.1787  -20.7954   20.9069 C.3     1  UNL1        0.0903
     12 C          -6.5432  -19.6678   21.8266 C.3     1  UNL1        0.1079
     13 H          -4.3779  -21.6798   20.5212 H       1  UNL1        0.1233
     14 S          -8.3842  -17.5347   22.1515 S.3     1  UNL1       -0.0848
     15 CL        -14.0241  -18.0950   24.1204 Cl      1  UNL1       -0.0822
     16 C         -12.6142  -17.9549   23.6282 C.ar    1  UNL1        0.0585
     17 C         -11.5299  -18.8173   24.2031 C.ar    1  UNL1        0.0120
     18 C         -10.1199  -18.6773   23.7109 C.ar    1  UNL1        0.0082
     19 C          -9.7942  -17.6748   22.6437 C.ar    1  UNL1        0.0401
     20 C         -10.8784  -16.8124   22.0688 C.ar    1  UNL1        0.0645
     21 CL        -10.5527  -15.8098   21.0015 Cl      1  UNL1       -0.0817
     22 C         -12.2884  -16.9524   22.5610 C.ar    1  UNL1        0.0233
@<TRIPOS>BOND
     1    15    16    1
     2    16    17   ar
     3    17    18   ar
     4    18    19   ar
     5    19    14    1
     6    14     1    1
     7     1     2   ar
     8     2     3   ar
     9     3     4   ar
    10     4     5   ar
    11     5     6   ar
    12     6     7    1
    13     7     8    1
    14     8     9    1
    15     9    10    1
    16    10    11    1
    17    11    12    1
    18    19    20   ar
    19    20    21    1
    20    20    22   ar
    21    22    16   ar
    22     6     1   ar
    23    12     7    1
    24    10    13    1
@<TRIPOS>MOLECULE
*****
 22 24 0 0 0
SMALL
GASTEIGER

@<TRIPOS>ATOM
      1 C          -7.1702  -17.0842   22.9966 C.ar    1  UNL1        0.0428
      2 C          -7.5616  -15.9878   23.9426 C.ar    1  UNL1        0.0077
      3 C          -6.5276  -15.3544   24.8255 C.ar    1  UNL1        0.0006
      4 C          -5.1022  -15.8173   24.7625 C.ar    1  UNL1        0.0013
      5 C          -4.7108  -16.9136   23.8165 C.ar    1  UNL1        0.0150
      6 C          -5.7448  -17.5471   22.9336 C.ar    1  UNL1        0.0540
      7 N          -5.3534  -18.6435   21.9877 N.pl3   1  UNL1       -0.3043
      8 C          -6.3021  -19.7729   21.7149 C.3     1  UNL1        0.1079
      9 C          -5.9107  -20.8693   20.7690 C.3     1  UNL1        0.0903
     10 N          -4.5706  -20.8362   20.0958 N.3     1  UNL1       -0.2946
     11 C          -3.6220  -19.7067   20.3685 C.3     1  UNL1        0.0903
     12 C          -4.0134  -18.6103   21.3145 C.3     1  UNL1        0.1079
     13 H          -4.7458  -20.8374   19.0909 H       1  UNL1        0.1233
     14 S          -8.2042  -17.7177   22.1137 S.3     1  UNL1       -0.0848
     15 CL        -13.9218  -17.9944   23.9116 Cl      1  UNL1       -0.0822
     16 C         -12.4924  -17.9252   23.4622 C.ar    1  UNL1        0.0585
     17 C         -12.0170  -16.7565   22.6510 C.ar    1  UNL1        0.0120
     18 C         -10.5876  -16.6873   22.2015 C.ar    1  UNL1        0.0082
     19 C          -9.6336  -17.7868   22.5632 C.ar    1  UNL1        0.0401
     20 C         -10.1090  -18.9555   23.3744 C.ar    1  UNL1        0.0645
     21 CL         -9.1550  -20.0552   23.7362 Cl      1  UNL1       -0.0817
     22 C         -11.5384  -19.0247   23.8239 C.ar    1  UNL1        0.0233
@<TRIPOS>BOND
     1    15    16    1
     2    16    17   ar
     3    17    18   ar
     4    18    19   ar
     5    19    14    1
     6    14     1    1
     7     1     2   ar
     8     2     3   ar
     9     3     4   ar
    10     4     5   ar
    11     5     6   ar
    12     6     7    1
    13     7     8    1
    14     8     9    1
    15     9    10    1
    16    10    11    1
    17    11    12    1
    18    19    20   ar
    19    20    21    1
    20    20    22   ar
    21    22    16   ar
    22     6     1   ar
    23    12     7    1
    24    10    13    1
@<TRIPOS>MOLECULE
*****
 22 24 0 0 0
SMALL
GASTEIGER

@<TRIPOS>ATOM
      1 C         -12.4161   -3.8773   19.2465 C.ar    1  UNL1        0.0428
      2 C         -12.8333   -2.4483   19.4310 C.ar    1  UNL1        0.0077
      3 C         -12.0989   -1.3541   18.7146 C.ar    1  UNL1        0.0006
      4 C         -10.9474   -1.6888   17.8135 C.ar    1  UNL1        0.0013
      5 C         -10.5302   -3.1177   17.6289 C.ar    1  UNL1        0.0150
      6 C         -11.2646   -4.2120   18.3454 C.ar    1  UNL1        0.0540
      7 N         -10.8474   -5.6409   18.1609 N.pl3   1  UNL1       -0.3043
      8 C          -9.8078   -6.2409   19.0604 C.3     1  UNL1        0.1079
      9 C          -9.3906   -7.6698   18.8759 C.3     1  UNL1        0.0903
     10 N         -10.0131   -8.4988   17.7917 N.3     1  UNL1       -0.2946
     11 C         -11.0527   -7.8989   16.8921 C.3     1  UNL1        0.0903
     12 C         -11.4699   -6.4698   17.0768 C.3     1  UNL1        0.1079
     13 H         -10.4460   -9.3022   18.2472 H       1  UNL1        0.1233
     14 S         -13.1505   -4.9715   19.9630 S.3     1  UNL1       -0.0848
     15 CL        -19.0693   -5.6048   19.2099 Cl      1  UNL1       -0.0822
     16 C         -17.5896   -5.4465   19.3982 C.ar    1  UNL1        0.0585
     17 C         -17.0378   -4.1723   19.9657 C.ar    1  UNL1        0.0120
     18 C         -15.5582   -4.0140   20.1540 C.ar    1  UNL1        0.0082
     19 C         -14.6302   -5.1298   19.7747 C.ar    1  UNL1        0.0401
     20 C         -15.1820   -6.4039   19.2072 C.ar    1  UNL1        0.0645
     21 CL        -14.2540   -7.5198   18.8279 Cl      1  UNL1       -0.0817
     22 C         -16.6617   -6.5623   19.0189 C.ar    1  UNL1        0.0233
@<TRIPOS>BOND
     1    15    16    1
     2    16    17   ar
     3    17    18   ar
     4    18    19   ar
     5    19    14    1
     6    14     1    1
     7     1     2   ar
     8     2     3   ar
     9     3     4   ar
    10     4     5   ar
    11     5     6   ar
    12     6     7    1
    13     7     8    1
    14     8     9    1
    15     9    10    1
    16    10    11    1
    17    11    12    1
    18    19    20   ar
    19    20    21    1
    20    20    22   ar
    21    22    16   ar
    22     6     1   ar
    23    12     7    1
    24    10    13    1
@<TRIPOS>MOLECULE
*****
 22 24 0 0 0
SMALL
GASTEIGER

@<TRIPOS>ATOM
      1 C          -6.9098  -16.4246   24.0804 C.ar    1  UNL1        0.0428
      2 C          -7.9690  -15.9597   25.0354 C.ar    1  UNL1        0.0077
      3 C          -7.5796  -15.3759   26.3611 C.ar    1  UNL1        0.0006
      4 C          -6.1310  -15.2568   26.7318 C.ar    1  UNL1        0.0013
      5 C          -5.0719  -15.7217   25.7768 C.ar    1  UNL1        0.0150
      6 C          -5.4612  -16.3056   24.4511 C.ar    1  UNL1        0.0540
      7 N          -4.4021  -16.7704   23.4961 N.pl3   1  UNL1       -0.3043
      8 C          -4.1957  -18.2375   23.2611 C.3     1  UNL1        0.1079
      9 C          -3.1365  -18.7023   22.3061 C.3     1  UNL1        0.0903
     10 N          -2.2836  -17.7001   21.5861 N.3     1  UNL1       -0.2946
     11 C          -2.4900  -16.2331   21.8211 C.3     1  UNL1        0.0903
     12 C          -3.5493  -15.7683   22.7761 C.3     1  UNL1        0.1079
     13 H          -2.4199  -17.8605   20.5880 H       1  UNL1        0.1233
     14 S          -7.2993  -17.0085   22.7547 S.3     1  UNL1       -0.0848
     15 CL        -13.0913  -17.8414   21.4284 Cl      1  UNL1       -0.0822
     16 C         -11.6433  -17.6332   21.7600 C.ar    1  UNL1        0.0585
     17 C         -10.8787  -18.7010   22.4846 C.ar    1  UNL1        0.0120
     18 C          -9.4307  -18.4928   22.8162 C.ar    1  UNL1        0.0082
     19 C          -8.7473  -17.2167   22.4232 C.ar    1  UNL1        0.0401
     20 C          -9.5118  -16.1489   21.6985 C.ar    1  UNL1        0.0645
     21 CL         -8.8284  -14.8728   21.3054 Cl      1  UNL1       -0.0817
     22 C         -10.9598  -16.3571   21.3669 C.ar    1  UNL1        0.0233
@<TRIPOS>BOND
     1    15    16    1
     2    16    17   ar
     3    17    18   ar
     4    18    19   ar
     5    19    14    1
     6    14     1    1
     7     1     2   ar
     8     2     3   ar
     9     3     4   ar
    10     4     5   ar
    11     5     6   ar
    12     6     7    1
    13     7     8    1
    14     8     9    1
    15     9    10    1
    16    10    11    1
    17    11    12    1
    18    19    20   ar
    19    20    21    1
    20    20    22   ar
    21    22    16   ar
    22     6     1   ar
    23    12     7    1
    24    10    13    1
@<TRIPOS>MOLECULE
*****
 22 24 0 0 0
SMALL
GASTEIGER

@<TRIPOS>ATOM
      1 C         -12.1963   -6.4526   17.7754 C.ar    1  UNL1        0.0428
      2 C         -11.3433   -7.6660   17.5517 C.ar    1  UNL1        0.0077
      3 C          -9.9661   -7.7339   18.1422 C.ar    1  UNL1        0.0006
      4 C          -9.4419   -6.5884   18.9565 C.ar    1  UNL1        0.0013
      5 C         -10.2948   -5.3750   19.1802 C.ar    1  UNL1        0.0150
      6 C         -11.6721   -5.3071   18.5896 C.ar    1  UNL1        0.0540
      7 N         -12.5250   -4.0936   18.8133 N.pl3   1  UNL1       -0.3043
      8 C         -12.5489   -2.9951   17.7922 C.3     1  UNL1        0.1079
      9 C         -13.4019   -1.7817   18.0159 C.3     1  UNL1        0.0903
     10 N         -14.2309   -1.6668   19.2608 N.3     1  UNL1       -0.2946
     11 C         -14.2070   -2.7653   20.2818 C.3     1  UNL1        0.0903
     12 C         -13.3540   -3.9788   20.0581 C.3     1  UNL1        0.1079
     13 H         -15.2004   -1.5649   18.9605 H       1  UNL1        0.1233
     14 S         -13.5735   -6.3847   17.1849 S.3     1  UNL1       -0.0848
     15 CL        -18.3135   -8.1415   20.4169 Cl      1  UNL1       -0.0822
     16 C         -17.1285   -7.7023   19.6089 C.ar    1  UNL1        0.0585
     17 C         -15.9669   -8.6313   19.4152 C.ar    1  UNL1        0.0120
     18 C         -14.7819   -8.1921   18.6072 C.ar    1  UNL1        0.0082
     19 C         -14.7585   -6.8239   17.9929 C.ar    1  UNL1        0.0401
     20 C         -15.9201   -5.8949   18.1866 C.ar    1  UNL1        0.0645
     21 CL        -15.8967   -4.5266   17.5723 Cl      1  UNL1       -0.0817
     22 C         -17.1051   -6.3341   18.9946 C.ar    1  UNL1        0.0233
@<TRIPOS>BOND
     1    15    16    1
     2    16    17   ar
     3    17    18   ar
     4    18    19   ar
     5    19    14    1
     6    14     1    1
     7     1     2   ar
     8     2     3   ar
     9     3     4   ar
    10     4     5   ar
    11     5     6   ar
    12     6     7    1
    13     7     8    1
    14     8     9    1
    15     9    10    1
    16    10    11    1
    17    11    12    1
    18    19    20   ar
    19    20    21    1
    20    20    22   ar
    21    22    16   ar
    22     6     1   ar
    23    12     7    1
    24    10    13    1
