@<TRIPOS>MOLECULE
*****
 52 55 0 0 0
SMALL
GASTEIGER

@<TRIPOS>ATOM
      1 C           3.3517   -0.5253   22.6147 C.3     1  UNL1        0.0760
      2 C           3.8671   -0.3810   25.1570 C.2     1  UNL1        0.2429
      3 O           4.0924    1.0963   25.0275 O.2     1  UNL1       -0.2732
      4 N           3.4968   -1.1918   23.9506 N.am    1  UNL1       -0.3042
      5 H           3.3489   -2.1614   24.0356 H       1  UNL1        0.1494
      6 CA          4.0121   -1.0475   26.4930 C.3     1  UNL1        0.1793
      7 N           7.0368   -3.5822   26.0725 N.am    1  UNL1       -0.2567
      8 C           8.3647   -3.6579   25.3790 C.3     1  UNL1        0.1168
      9 C           6.1884   -2.3528   25.9360 C.2     1  UNL1        0.3047
     10 O           6.6679   -1.1990   25.1059 O.2     1  UNL1       -0.2526
     11 N           4.8605   -2.2771   26.6295 N.am    1  UNL1       -0.2805
     12 H           4.5458   -3.0343   27.1743 H       1  UNL1        0.1514
     13 C           6.5573   -4.7359   26.9026 C.3     1  UNL1        0.1413
     14 C           6.8081   -3.9497   30.6953 C.ar    1  UNL1        0.0875
     15 N           6.5237   -3.5246   29.2852 N.ar    1  UNL1       -0.2453
     16 C           6.7317   -4.7118   28.3923 C.ar    1  UNL1        0.0858
     17 C           7.1446   -5.8706   29.2505 C.ar    1  UNL1        0.0530
     18 S           7.1918   -5.3997   30.6739 S.2     1  UNL1       -0.0705
     19 C           7.9720   -2.4951   32.5063 C.3     1  UNL1        0.0069
     20 C           6.7236   -3.0779   31.9130 C.3     1  UNL1        0.0465
     21 C           5.3908   -2.7890   32.5376 C.3     1  UNL1        0.0069
     22 C           3.3088   -0.4846   27.6923 C.3     1  UNL1        0.1661
     23 O           2.0020   -1.0703   28.1389 O.3     1  UNL1       -0.3798
     24 H           1.3263   -0.9062   27.4626 H       1  UNL1        0.2105
     25 C           2.0770    0.1835   22.2646 C.3     1  UNL1        0.0216
     26 C           2.1229    1.4895   21.5282 C.3     1  UNL1        0.0217
     27 C           1.1930    1.7346   20.3770 C.3     1  UNL1        0.0792
     28 N          -0.2878    1.5850   20.5641 N.am    1  UNL1       -0.2720
     29 C          -1.1445    2.7993   20.7679 C.2     1  UNL1        0.4019
     30 O          -0.5204    4.1632   20.7846 O.2     1  UNL1       -0.2264
     31 H          -0.6974    0.6898   20.5531 H       1  UNL1        0.1527
     32 O          -2.6252    2.6498   20.9550 O.3     1  UNL1       -0.4291
     33 C          -3.4175    3.7576   21.5833 C.3     1  UNL1        0.2447
     34 C          -3.7625    3.6991   23.0419 C.ar    1  UNL1        0.0714
     35 C          -5.1067    3.3639   23.6172 C.ar    1  UNL1        0.1053
     36 N          -4.9989    3.4231   25.1122 N.ar    1  UNL1       -0.2350
     37 C          -3.5881    3.7948   25.4608 C.ar    1  UNL1        0.1343
     38 S          -2.8240    3.9654   24.1813 S.2     1  UNL1       -0.0652
     39 C           1.7438    2.1292   19.0388 C.3     1  UNL1        0.0460
     40 C           2.8912    1.3666   18.4455 C.ar    1  UNL1       -0.0205
     41 C           2.6421    0.0689   17.7357 C.ar    1  UNL1       -0.0042
     42 C           3.7895   -0.6937   17.1424 C.ar    1  UNL1       -0.0003
     43 C           5.1859   -0.1585   17.2589 C.ar    1  UNL1       -0.0000
     44 C           5.4350    1.1393   17.9687 C.ar    1  UNL1       -0.0003
     45 C           4.2876    1.9018   18.5620 C.ar    1  UNL1       -0.0042
     46 C           4.4816   -0.5675   21.6288 C.3     1  UNL1        0.0459
     47 C           4.6038   -1.7206   20.6772 C.ar    1  UNL1       -0.0205
     48 C           5.9483   -2.1065   20.1353 C.ar    1  UNL1       -0.0042
     49 C           6.0705   -3.2595   19.1837 C.ar    1  UNL1       -0.0003
     50 C           4.8483   -4.0266   18.7739 C.ar    1  UNL1       -0.0000
     51 C           3.5039   -3.6406   19.3158 C.ar    1  UNL1       -0.0003
     52 C           3.3817   -2.4876   20.2674 C.ar    1  UNL1       -0.0042
@<TRIPOS>BOND
     1    19    20    1
     2    20    21    1
     3    20    14    1
     4    14    15   ar
     5    15    16   ar
     6    16    13    1
     7    13     7    1
     8     7     8    1
     9     7     9   am
    10     9    10    2
    11     9    11   am
    12    11     6    1
    13     6    22    1
    14    22    23    1
    15     6     2    1
    16     2     3    2
    17     2     4   am
    18     4     1    1
    19     1    25    1
    20    25    26    1
    21    27    26    1
    22    27    39    1
    23    39    40    1
    24    40    41   ar
    25    41    42   ar
    26    42    43   ar
    27    43    44   ar
    28    44    45   ar
    29    27    28    1
    30    28    29   am
    31    29    30    2
    32    29    32    1
    33    32    33    1
    34    33    34    1
    35    34    35   ar
    36    35    36   ar
    37    36    37   ar
    38    37    38   ar
    39     1    46    1
    40    46    47    1
    41    47    48   ar
    42    48    49   ar
    43    49    50   ar
    44    50    51   ar
    45    51    52   ar
    46    16    17   ar
    47    17    18   ar
    48    18    14   ar
    49    45    40   ar
    50    38    34   ar
    51    52    47   ar
    52    11    12    1
    53    23    24    1
    54     4     5    1
    55    28    31    1
@<TRIPOS>MOLECULE
*****
 52 55 0 0 0
SMALL
GASTEIGER

@<TRIPOS>ATOM
      1 C           5.3897   -1.9895   23.5839 C.3     1  UNL1        0.0760
      2 C           6.0126   -2.0856   26.1044 C.2     1  UNL1        0.2429
      3 O           6.7789   -0.8038   25.9639 O.2     1  UNL1       -0.2732
      4 N           5.3180   -2.6785   24.9144 N.am    1  UNL1       -0.3042
      5 H           4.8150   -3.5197   25.0066 H       1  UNL1        0.1494
      6 CA          5.9408   -2.7745   27.4349 C.3     1  UNL1        0.1793
      7 N           5.3186   -0.5798   30.6823 N.am    1  UNL1       -0.2567
      8 C           6.0920    0.2904   31.6281 C.3     1  UNL1        0.1168
      9 C           6.0164   -1.2420   29.5315 C.2     1  UNL1        0.3047
     10 O           7.4877   -1.0341   29.3265 O.2     1  UNL1       -0.2526
     11 N           5.2429   -2.1122   28.5857 N.am    1  UNL1       -0.2805
     12 H           4.2773   -2.2487   28.7203 H       1  UNL1        0.1514
     13 C           3.8473   -0.7877   30.8873 C.3     1  UNL1        0.1413
     14 C           0.8128    0.7211   28.9949 C.ar    1  UNL1        0.0875
     15 N           1.4287   -0.3603   29.8324 N.ar    1  UNL1       -0.2453
     16 C           2.8587    0.0114   30.0909 C.ar    1  UNL1        0.0858
     17 C           3.1267    1.3225   29.4132 C.ar    1  UNL1        0.0530
     18 S           1.8623    1.7611   28.7358 S.2     1  UNL1       -0.0705
     19 C          -1.6277   -0.1641   29.0984 C.3     1  UNL1        0.0069
     20 C          -0.6038    0.7562   28.5029 C.3     1  UNL1        0.0465
     21 C          -0.9965    1.7117   27.4153 C.3     1  UNL1        0.0069
     22 C           6.5669   -4.1257   27.6145 C.3     1  UNL1        0.1661
     23 O           6.2248   -5.2421   26.6729 O.3     1  UNL1       -0.3798
     24 H           5.2906   -5.4805   26.7800 H       1  UNL1        0.2105
     25 C           4.5553   -0.7703   23.3247 C.3     1  UNL1        0.0216
     26 C           3.1103   -0.9162   22.9499 C.3     1  UNL1        0.0217
     27 C           2.5646   -0.1771   21.7641 C.3     1  UNL1        0.0792
     28 N           2.0685    1.2298   21.9206 N.am    1  UNL1       -0.2720
     29 C           0.6857    1.5923   21.4663 C.2     1  UNL1        0.4019
     30 O          -0.2011    0.5479   20.8557 O.2     1  UNL1       -0.2264
     31 H           2.6506    1.9153   22.3214 H       1  UNL1        0.1527
     32 O           0.1896    2.9992   21.6228 O.3     1  UNL1       -0.4291
     33 C          -0.9181    3.5056   20.7472 C.3     1  UNL1        0.2447
     34 C          -2.3336    3.4888   21.2434 C.ar    1  UNL1        0.0714
     35 C          -3.5515    3.1804   20.4239 C.ar    1  UNL1        0.1053
     36 N          -4.7503    3.2784   21.3201 N.ar    1  UNL1       -0.2350
     37 C          -4.2733    3.6473   22.6936 C.ar    1  UNL1        0.1343
     38 S          -2.7797    3.7773   22.6461 S.2     1  UNL1       -0.0652
     39 C           2.5151   -0.8450   20.4219 C.3     1  UNL1        0.0460
     40 C           3.5141   -0.4787   19.3646 C.ar    1  UNL1       -0.0205
     41 C           3.2725   -0.8698   17.9368 C.ar    1  UNL1       -0.0042
     42 C           4.2714   -0.5036   16.8796 C.ar    1  UNL1       -0.0003
     43 C           5.5120    0.2538   17.2501 C.ar    1  UNL1       -0.0000
     44 C           5.7536    0.6449   18.6778 C.ar    1  UNL1       -0.0003
     45 C           4.7547    0.2787   19.7351 C.ar    1  UNL1       -0.0042
     46 C           6.2959   -2.5199   22.5126 C.3     1  UNL1        0.0459
     47 C           5.7145   -3.0880   21.2519 C.ar    1  UNL1       -0.0205
     48 C           6.3872   -2.8350   19.9353 C.ar    1  UNL1       -0.0042
     49 C           5.8058   -3.4030   18.6746 C.ar    1  UNL1       -0.0003
     50 C           4.5517   -4.2241   18.7306 C.ar    1  UNL1       -0.0000
     51 C           3.8790   -4.4770   20.0472 C.ar    1  UNL1       -0.0003
     52 C           4.4604   -3.9090   21.3078 C.ar    1  UNL1       -0.0042
@<TRIPOS>BOND
     1    19    20    1
     2    20    21    1
     3    20    14    1
     4    14    15   ar
     5    15    16   ar
     6    16    13    1
     7    13     7    1
     8     7     8    1
     9     7     9   am
    10     9    10    2
    11     9    11   am
    12    11     6    1
    13     6    22    1
    14    22    23    1
    15     6     2    1
    16     2     3    2
    17     2     4   am
    18     4     1    1
    19     1    25    1
    20    25    26    1
    21    27    26    1
    22    27    39    1
    23    39    40    1
    24    40    41   ar
    25    41    42   ar
    26    42    43   ar
    27    43    44   ar
    28    44    45   ar
    29    27    28    1
    30    28    29   am
    31    29    30    2
    32    29    32    1
    33    32    33    1
    34    33    34    1
    35    34    35   ar
    36    35    36   ar
    37    36    37   ar
    38    37    38   ar
    39     1    46    1
    40    46    47    1
    41    47    48   ar
    42    48    49   ar
    43    49    50   ar
    44    50    51   ar
    45    51    52   ar
    46    16    17   ar
    47    17    18   ar
    48    18    14   ar
    49    45    40   ar
    50    38    34   ar
    51    52    47   ar
    52    11    12    1
    53    23    24    1
    54     4     5    1
    55    28    31    1
@<TRIPOS>MOLECULE
*****
 52 55 0 0 0
SMALL
GASTEIGER

@<TRIPOS>ATOM
      1 C           2.4973   -0.2286   21.8965 C.3     1  UNL1        0.0760
      2 C           0.4577    1.3103   21.4255 C.2     1  UNL1        0.2429
      3 O          -0.2479    0.1696   20.7541 O.2     1  UNL1       -0.2732
      4 N           1.8304    1.1112   21.9968 N.am    1  UNL1       -0.3042
      5 H           2.2935    1.8599   22.4375 H       1  UNL1        0.1494
      6 CA         -0.2093    2.6501   21.5258 C.3     1  UNL1        0.1793
      7 N          -3.7085    3.5599   19.8893 N.am    1  UNL1       -0.2567
      8 C          -4.2450    4.2346   18.6617 C.3     1  UNL1        0.1168
      9 C          -2.2272    3.4423   20.0938 C.2     1  UNL1        0.3047
     10 O          -1.2822    3.9995   19.0706 O.2     1  UNL1       -0.2526
     11 N          -1.6907    2.7676   21.3214 N.am    1  UNL1       -0.2805
     12 H          -2.3108    2.4019   21.9929 H       1  UNL1        0.1514
     13 C          -4.6533    3.0027   20.9124 C.3     1  UNL1        0.1413
     14 C          -4.6498    4.3627   24.5478 C.ar    1  UNL1        0.0875
     15 N          -4.1486    3.4069   23.5061 N.ar    1  UNL1       -0.2453
     16 C          -4.8513    3.7155   22.2174 C.ar    1  UNL1        0.0858
     17 C          -5.7868    4.8621   22.4626 C.ar    1  UNL1        0.0530
     18 S          -5.6623    5.2622   23.9029 S.2     1  UNL1       -0.0705
     19 C          -2.9674    3.6972   26.4125 C.3     1  UNL1        0.0069
     20 C          -4.2148    4.4108   25.9826 C.3     1  UNL1        0.0465
     21 C          -5.0273    5.1724   26.9875 C.3     1  UNL1        0.0069
     22 C           0.6051    3.8724   21.8305 C.3     1  UNL1        0.1661
     23 O           1.4890    3.9019   23.0420 O.3     1  UNL1       -0.3798
     24 H           0.9419    3.8677   23.8423 H       1  UNL1        0.2105
     25 C           3.0980   -0.8606   23.1170 C.3     1  UNL1        0.0216
     26 C           4.5782   -0.7868   23.3483 C.3     1  UNL1        0.0217
     27 C           5.3814   -2.0475   23.4743 C.3     1  UNL1        0.0792
     28 N           5.2773   -2.8821   24.7164 N.am    1  UNL1       -0.2720
     29 C           6.3354   -2.7862   25.7753 C.2     1  UNL1        0.4019
     30 O           7.4975   -1.8557   25.5922 O.2     1  UNL1       -0.2264
     31 H           4.5145   -3.4928   24.8365 H       1  UNL1        0.1527
     32 O           6.2312   -3.6207   27.0173 O.3     1  UNL1       -0.4291
     33 C           6.6916   -3.0676   28.3334 C.3     1  UNL1        0.2447
     34 C           6.7573   -3.9574   29.5392 C.ar    1  UNL1        0.0714
     35 C           6.8610   -5.4538   29.5262 C.ar    1  UNL1        0.1053
     36 N           6.8986   -5.9282   30.9487 N.ar    1  UNL1       -0.2350
     37 C           6.8181   -4.7251   31.8409 C.ar    1  UNL1        0.1343
     38 S           6.7308   -3.5071   30.9698 S.2     1  UNL1       -0.0652
     39 C           6.2886   -2.4735   22.3584 C.3     1  UNL1        0.0460
     40 C           5.7121   -3.0768   21.1119 C.ar    1  UNL1       -0.0205
     41 C           4.4750   -3.9214   21.1903 C.ar    1  UNL1       -0.0042
     42 C           3.8986   -4.5247   19.9438 C.ar    1  UNL1       -0.0003
     43 C           4.5592   -4.2834   18.6190 C.ar    1  UNL1       -0.0000
     44 C           5.7963   -3.4388   18.5405 C.ar    1  UNL1       -0.0003
     45 C           6.3728   -2.8355   19.7870 C.ar    1  UNL1       -0.0042
     46 C           2.5636   -0.9364   20.5756 C.3     1  UNL1        0.0459
     47 C           3.5315   -0.4766   19.5260 C.ar    1  UNL1       -0.0205
     48 C           4.7163    0.3582   19.9125 C.ar    1  UNL1       -0.0042
     49 C           5.6842    0.8181   18.8629 C.ar    1  UNL1       -0.0003
     50 C           5.4673    0.4432   17.4268 C.ar    1  UNL1       -0.0000
     51 C           4.2826   -0.3916   17.0403 C.ar    1  UNL1       -0.0003
     52 C           3.3146   -0.8515   18.0899 C.ar    1  UNL1       -0.0042
@<TRIPOS>BOND
     1    19    20    1
     2    20    21    1
     3    20    14    1
     4    14    15   ar
     5    15    16   ar
     6    16    13    1
     7    13     7    1
     8     7     8    1
     9     7     9   am
    10     9    10    2
    11     9    11   am
    12    11     6    1
    13     6    22    1
    14    22    23    1
    15     6     2    1
    16     2     3    2
    17     2     4   am
    18     4     1    1
    19     1    25    1
    20    25    26    1
    21    27    26    1
    22    27    39    1
    23    39    40    1
    24    40    41   ar
    25    41    42   ar
    26    42    43   ar
    27    43    44   ar
    28    44    45   ar
    29    27    28    1
    30    28    29   am
    31    29    30    2
    32    29    32    1
    33    32    33    1
    34    33    34    1
    35    34    35   ar
    36    35    36   ar
    37    36    37   ar
    38    37    38   ar
    39     1    46    1
    40    46    47    1
    41    47    48   ar
    42    48    49   ar
    43    49    50   ar
    44    50    51   ar
    45    51    52   ar
    46    16    17   ar
    47    17    18   ar
    48    18    14   ar
    49    45    40   ar
    50    38    34   ar
    51    52    47   ar
    52    11    12    1
    53    23    24    1
    54     4     5    1
    55    28    31    1
@<TRIPOS>MOLECULE
*****
 52 55 0 0 0
SMALL
GASTEIGER

@<TRIPOS>ATOM
      1 C           3.9268   -0.4053   21.9955 C.3     1  UNL1        0.0760
      2 C           4.5916   -1.9863   23.9470 C.2     1  UNL1        0.2429
      3 O           4.1335   -3.1684   23.1455 O.2     1  UNL1       -0.2732
      4 N           4.4883   -0.6047   23.3721 N.am    1  UNL1       -0.3042
      5 H           4.7890    0.1712   23.8982 H       1  UNL1        0.1494
      6 CA          5.1531   -2.1857   25.3236 C.3     1  UNL1        0.1793
      7 N           4.2525    0.0301   28.4905 N.am    1  UNL1       -0.2567
      8 C           4.8211    1.1792   29.2692 C.3     1  UNL1        0.1168
      9 C           4.9870   -0.5033   27.2964 C.2     1  UNL1        0.3047
     10 O           6.2903    0.1124   26.8810 O.2     1  UNL1       -0.2526
     11 N           4.4184   -1.6523   26.5178 N.am    1  UNL1       -0.2805
     12 H           3.5631   -2.0564   26.7904 H       1  UNL1        0.1514
     13 C           2.9493   -0.5856   28.9059 C.3     1  UNL1        0.1413
     14 C           0.0344    1.2201   27.0870 C.ar    1  UNL1        0.0875
     15 N           1.4919    0.8921   27.2214 N.ar    1  UNL1       -0.2453
     16 C           1.6561   -0.0126   28.4065 C.ar    1  UNL1        0.0858
     17 C           0.3000   -0.2438   29.0045 C.ar    1  UNL1        0.0530
     18 S          -0.7023    0.5181   28.1890 S.2     1  UNL1       -0.0705
     19 C          -1.6608    3.0672   26.4051 C.3     1  UNL1        0.0069
     20 C          -0.5788    2.0963   26.0352 C.3     1  UNL1        0.0465
     21 C          -0.1101    2.0016   24.6134 C.3     1  UNL1        0.0069
     22 C           6.4491   -2.9184   25.5061 C.3     1  UNL1        0.1661
     23 O           7.1268   -2.9218   26.8443 O.3     1  UNL1       -0.3798
     24 H           7.4169   -2.0222   27.0621 H       1  UNL1        0.2105
     25 C           2.5295    0.1122   21.8231 C.3     1  UNL1        0.0216
     26 C           1.6218   -0.5055   20.8012 C.3     1  UNL1        0.0217
     27 C           0.7683    0.3682   19.9303 C.3     1  UNL1        0.0792
     28 N          -0.4986    0.9596   20.4734 N.am    1  UNL1       -0.2720
     29 C          -0.5165    2.3795   20.9569 C.2     1  UNL1        0.4019
     30 O           0.7325    3.2079   20.8972 O.2     1  UNL1       -0.2264
     31 H          -1.3184    0.4159   20.5126 H       1  UNL1        0.1527
     32 O          -1.7835    2.9709   21.5001 O.3     1  UNL1       -0.4291
     33 C          -2.4367    4.1220   20.7943 C.3     1  UNL1        0.2447
     34 C          -3.5991    3.8781   19.8783 C.ar    1  UNL1        0.0714
     35 C          -4.9398    3.3382   20.2796 C.ar    1  UNL1        0.1053
     36 N          -5.7943    3.2577   19.0494 N.ar    1  UNL1       -0.2350
     37 C          -4.9817    3.7479   17.8877 C.ar    1  UNL1        0.1343
     38 S          -3.6251    4.1314   18.4000 S.2     1  UNL1       -0.0652
     39 C           1.1819    0.6504   18.5163 C.3     1  UNL1        0.0460
     40 C           2.6370    0.7543   18.1670 C.ar    1  UNL1       -0.0205
     41 C           3.2929   -0.3251   17.3579 C.ar    1  UNL1       -0.0042
     42 C           4.7479   -0.2212   17.0085 C.ar    1  UNL1       -0.0003
     43 C           5.5470    0.9621   17.4683 C.ar    1  UNL1       -0.0000
     44 C           4.8911    2.0414   18.2774 C.ar    1  UNL1       -0.0003
     45 C           3.4361    1.9375   18.6268 C.ar    1  UNL1       -0.0042
     46 C           4.7627   -0.7234   20.7912 C.3     1  UNL1        0.0459
     47 C           4.7494   -2.1076   20.2134 C.ar    1  UNL1       -0.0205
     48 C           6.0234   -2.8941   20.1212 C.ar    1  UNL1       -0.0042
     49 C           6.0100   -4.2783   19.5434 C.ar    1  UNL1       -0.0003
     50 C           4.7227   -4.8759   19.0578 C.ar    1  UNL1       -0.0000
     51 C           3.4489   -4.0894   19.1500 C.ar    1  UNL1       -0.0003
     52 C           3.4622   -2.7052   19.7278 C.ar    1  UNL1       -0.0042
@<TRIPOS>BOND
     1    19    20    1
     2    20    21    1
     3    20    14    1
     4    14    15   ar
     5    15    16   ar
     6    16    13    1
     7    13     7    1
     8     7     8    1
     9     7     9   am
    10     9    10    2
    11     9    11   am
    12    11     6    1
    13     6    22    1
    14    22    23    1
    15     6     2    1
    16     2     3    2
    17     2     4   am
    18     4     1    1
    19     1    25    1
    20    25    26    1
    21    27    26    1
    22    27    39    1
    23    39    40    1
    24    40    41   ar
    25    41    42   ar
    26    42    43   ar
    27    43    44   ar
    28    44    45   ar
    29    27    28    1
    30    28    29   am
    31    29    30    2
    32    29    32    1
    33    32    33    1
    34    33    34    1
    35    34    35   ar
    36    35    36   ar
    37    36    37   ar
    38    37    38   ar
    39     1    46    1
    40    46    47    1
    41    47    48   ar
    42    48    49   ar
    43    49    50   ar
    44    50    51   ar
    45    51    52   ar
    46    16    17   ar
    47    17    18   ar
    48    18    14   ar
    49    45    40   ar
    50    38    34   ar
    51    52    47   ar
    52    11    12    1
    53    23    24    1
    54     4     5    1
    55    28    31    1
@<TRIPOS>MOLECULE
*****
 52 55 0 0 0
SMALL
GASTEIGER

@<TRIPOS>ATOM
      1 C           1.4851    0.5501   21.7100 C.3     1  UNL1        0.0760
      2 C          -0.0610    2.6334   21.5690 C.2     1  UNL1        0.2429
      3 O           0.8861    3.2704   20.5959 O.2     1  UNL1       -0.2732
      4 N           0.2385    1.2732   22.1261 N.am    1  UNL1       -0.3042
      5 H          -0.3831    0.8550   22.7649 H       1  UNL1        0.1494
      6 CA         -1.3076    3.3564   21.9852 C.3     1  UNL1        0.1793
      7 N          -3.0161    4.1078   25.4876 N.am    1  UNL1       -0.2567
      8 C          -4.3656    4.0096   26.1352 C.3     1  UNL1        0.1168
      9 C          -2.8366    3.6830   24.0602 C.2     1  UNL1        0.3047
     10 O          -4.0064    3.1600   23.2805 O.2     1  UNL1       -0.2526
     11 N          -1.4871    3.7812   23.4126 N.am    1  UNL1       -0.2805
     12 H          -0.7193    4.1245   23.9243 H       1  UNL1        0.1514
     13 C          -1.8463    4.6308   26.2672 C.3     1  UNL1        0.1413
     14 C          -0.2438    1.7005   28.2448 C.ar    1  UNL1        0.0875
     15 N          -1.2572    2.2244   27.2709 N.ar    1  UNL1       -0.2453
     16 C          -1.0512    3.7042   27.1387 C.ar    1  UNL1        0.0858
     17 C           0.0895    4.0950   28.0310 C.ar    1  UNL1        0.0530
     18 S           0.5885    2.8566   28.7147 S.2     1  UNL1       -0.0705
     19 C           1.2723   -0.2769   28.9809 C.3     1  UNL1        0.0069
     20 C          -0.0898    0.2714   28.6737 C.3     1  UNL1        0.0465
     21 C          -1.2977   -0.6095   28.7955 C.3     1  UNL1        0.0069
     22 C          -2.3746    3.6547   20.9741 C.3     1  UNL1        0.1661
     23 O          -3.3919    2.6086   20.6264 O.3     1  UNL1       -0.3798
     24 H          -2.9530    1.8649   20.1846 H       1  UNL1        0.2105
     25 C           2.6824    0.5385   22.6134 C.3     1  UNL1        0.0216
     26 C           2.9624   -0.6590   23.4721 C.3     1  UNL1        0.0217
     27 C           4.2646   -1.3913   23.3364 C.3     1  UNL1        0.0792
     28 N           4.6778   -2.3861   24.3802 N.am    1  UNL1       -0.2720
     29 C           5.6927   -2.0070   25.4177 C.2     1  UNL1        0.4019
     30 O           6.2943   -0.6329   25.4113 O.2     1  UNL1       -0.2264
     31 H           4.2829   -3.2880   24.3844 H       1  UNL1        0.1527
     32 O           6.1060   -3.0018   26.4614 O.3     1  UNL1       -0.4291
     33 C           6.0023   -2.6498   27.9158 C.3     1  UNL1        0.2447
     34 C           6.3798   -3.6581   28.9603 C.ar    1  UNL1        0.0714
     35 C           6.4959   -5.1394   28.7546 C.ar    1  UNL1        0.1053
     36 N           6.8954   -5.7589   30.0610 N.ar    1  UNL1       -0.2350
     37 C           7.0261   -4.6605   31.0741 C.ar    1  UNL1        0.1343
     38 S           6.7075   -3.3621   30.3938 S.2     1  UNL1       -0.0652
     39 C           5.1534   -1.1286   22.1571 C.3     1  UNL1        0.0460
     40 C           5.0982   -2.0316   20.9605 C.ar    1  UNL1       -0.0205
     41 C           6.1385   -1.9171   19.8860 C.ar    1  UNL1       -0.0042
     42 C           6.0834   -2.8200   18.6895 C.ar    1  UNL1       -0.0003
     43 C           4.9879   -3.8374   18.5675 C.ar    1  UNL1       -0.0000
     44 C           3.9476   -3.9518   19.6420 C.ar    1  UNL1       -0.0003
     45 C           4.0028   -3.0489   20.8385 C.ar    1  UNL1       -0.0042
     46 C           1.5343   -0.1614   20.3903 C.3     1  UNL1        0.0459
     47 C           2.6520    0.1170   19.4294 C.ar    1  UNL1       -0.0205
     48 C           2.7959   -0.7102   18.1864 C.ar    1  UNL1       -0.0042
     49 C           3.9136   -0.4319   17.2255 C.ar    1  UNL1       -0.0003
     50 C           4.8874    0.6737   17.5077 C.ar    1  UNL1       -0.0000
     51 C           4.7435    1.5008   18.7507 C.ar    1  UNL1       -0.0003
     52 C           3.6258    1.2224   19.7116 C.ar    1  UNL1       -0.0042
@<TRIPOS>BOND
     1    19    20    1
     2    20    21    1
     3    20    14    1
     4    14    15   ar
     5    15    16   ar
     6    16    13    1
     7    13     7    1
     8     7     8    1
     9     7     9   am
    10     9    10    2
    11     9    11   am
    12    11     6    1
    13     6    22    1
    14    22    23    1
    15     6     2    1
    16     2     3    2
    17     2     4   am
    18     4     1    1
    19     1    25    1
    20    25    26    1
    21    27    26    1
    22    27    39    1
    23    39    40    1
    24    40    41   ar
    25    41    42   ar
    26    42    43   ar
    27    43    44   ar
    28    44    45   ar
    29    27    28    1
    30    28    29   am
    31    29    30    2
    32    29    32    1
    33    32    33    1
    34    33    34    1
    35    34    35   ar
    36    35    36   ar
    37    36    37   ar
    38    37    38   ar
    39     1    46    1
    40    46    47    1
    41    47    48   ar
    42    48    49   ar
    43    49    50   ar
    44    50    51   ar
    45    51    52   ar
    46    16    17   ar
    47    17    18   ar
    48    18    14   ar
    49    45    40   ar
    50    38    34   ar
    51    52    47   ar
    52    11    12    1
    53    23    24    1
    54     4     5    1
    55    28    31    1
@<TRIPOS>MOLECULE
*****
 52 55 0 0 0
SMALL
GASTEIGER

@<TRIPOS>ATOM
      1 C           0.6978    0.9262   19.8561 C.3     1  UNL1        0.0760
      2 C           0.2607    3.4390   20.3508 C.2     1  UNL1        0.2429
      3 O           1.7382    3.6975   20.3435 O.2     1  UNL1       -0.2732
      4 N          -0.2596    2.0533   20.1071 N.am    1  UNL1       -0.3042
      5 H          -1.2293    1.8837   20.1119 H       1  UNL1        0.1494
      6 CA         -0.6967    4.5662   20.6018 C.3     1  UNL1        0.1793
      7 N          -3.6582    3.7758   23.1226 N.am    1  UNL1       -0.2567
      8 C          -4.9277    2.9780   23.1661 C.3     1  UNL1        0.1168
      9 C          -2.8122    3.7721   21.8840 C.2     1  UNL1        0.3047
     10 O          -3.2357    2.9706   20.6888 O.2     1  UNL1       -0.2526
     11 N          -1.5427    4.5699   21.8405 N.am    1  UNL1       -0.2805
     12 H          -1.2648    5.0959   22.6249 H       1  UNL1        0.1514
     13 C          -3.2348    4.5772   24.3177 C.3     1  UNL1        0.1413
     14 C           0.0802    3.5323   26.0453 C.ar    1  UNL1        0.0875
     15 N          -0.6610    4.1376   24.8903 N.ar    1  UNL1       -0.2453
     16 C          -2.1276    4.0808   25.1997 C.ar    1  UNL1        0.0858
     17 C          -2.2928    3.4403   26.5460 C.ar    1  UNL1        0.0530
     18 S          -0.9283    3.1013   27.0687 S.2     1  UNL1       -0.0705
     19 C           2.3465    2.7584   25.0378 C.3     1  UNL1        0.0069
     20 C           1.5687    3.3840   26.1574 C.3     1  UNL1        0.0465
     21 C           2.2793    3.8612   27.3892 C.3     1  UNL1        0.0069
     22 C          -0.8080    5.6896   19.6142 C.3     1  UNL1        0.1661
     23 O           0.4263    6.2446   18.9672 O.3     1  UNL1       -0.3798
     24 H           0.9787    6.6735   19.6393 H       1  UNL1        0.2105
     25 C           1.1522    0.0608   20.9939 C.3     1  UNL1        0.0216
     26 C           2.1684    0.5767   21.9691 C.3     1  UNL1        0.0217
     27 C           3.2652   -0.3234   22.4561 C.3     1  UNL1        0.0792
     28 N           3.0970   -1.0851   23.7373 N.am    1  UNL1       -0.2720
     29 C           3.9409   -0.7431   24.9294 C.2     1  UNL1        0.4019
     30 O           4.9528    0.3605   24.8402 O.2     1  UNL1       -0.2264
     31 H           2.4328   -1.8094   23.7958 H       1  UNL1        0.1527
     32 O           3.7727   -1.5048   26.2106 O.3     1  UNL1       -0.4291
     33 C           4.1169   -0.8570   27.5190 C.3     1  UNL1        0.2447
     34 C           3.0267   -0.4666   28.4724 C.ar    1  UNL1        0.0714
     35 C           3.0881   -0.5605   29.9682 C.ar    1  UNL1        0.1053
     36 N           1.7830   -0.0657   30.5177 N.ar    1  UNL1       -0.2350
     37 C           0.9150    0.3340   29.3615 C.ar    1  UNL1        0.1343
     38 S           1.6837    0.0863   28.0974 S.2     1  UNL1       -0.0652
     39 C           4.5300   -0.4617   21.6618 C.3     1  UNL1        0.0460
     40 C           4.6822   -1.5891   20.6840 C.ar    1  UNL1       -0.0205
     41 C           6.0375   -1.9337   20.1416 C.ar    1  UNL1       -0.0042
     42 C           6.1896   -3.0610   19.1639 C.ar    1  UNL1       -0.0003
     43 C           4.9863   -3.8438   18.7286 C.ar    1  UNL1       -0.0000
     44 C           3.6310   -3.4992   19.2710 C.ar    1  UNL1       -0.0003
     45 C           3.4789   -2.3719   20.2487 C.ar    1  UNL1       -0.0042
     46 C           1.2006    0.6644   18.4673 C.3     1  UNL1        0.0459
     47 C           2.6749    0.6662   18.1908 C.ar    1  UNL1       -0.0205
     48 C           3.2759   -0.3971   17.3199 C.ar    1  UNL1       -0.0042
     49 C           4.7502   -0.3954   17.0433 C.ar    1  UNL1       -0.0003
     50 C           5.6235    0.6696   17.6377 C.ar    1  UNL1       -0.0000
     51 C           5.0225    1.7328   18.5086 C.ar    1  UNL1       -0.0003
     52 C           3.5482    1.7311   18.7851 C.ar    1  UNL1       -0.0042
@<TRIPOS>BOND
     1    19    20    1
     2    20    21    1
     3    20    14    1
     4    14    15   ar
     5    15    16   ar
     6    16    13    1
     7    13     7    1
     8     7     8    1
     9     7     9   am
    10     9    10    2
    11     9    11   am
    12    11     6    1
    13     6    22    1
    14    22    23    1
    15     6     2    1
    16     2     3    2
    17     2     4   am
    18     4     1    1
    19     1    25    1
    20    25    26    1
    21    27    26    1
    22    27    39    1
    23    39    40    1
    24    40    41   ar
    25    41    42   ar
    26    42    43   ar
    27    43    44   ar
    28    44    45   ar
    29    27    28    1
    30    28    29   am
    31    29    30    2
    32    29    32    1
    33    32    33    1
    34    33    34    1
    35    34    35   ar
    36    35    36   ar
    37    36    37   ar
    38    37    38   ar
    39     1    46    1
    40    46    47    1
    41    47    48   ar
    42    48    49   ar
    43    49    50   ar
    44    50    51   ar
    45    51    52   ar
    46    16    17   ar
    47    17    18   ar
    48    18    14   ar
    49    45    40   ar
    50    38    34   ar
    51    52    47   ar
    52    11    12    1
    53    23    24    1
    54     4     5    1
    55    28    31    1
@<TRIPOS>MOLECULE
*****
 52 55 0 0 0
SMALL
GASTEIGER

@<TRIPOS>ATOM
      1 C           5.1883   -1.6176   23.3418 C.3     1  UNL1        0.0760
      2 C           6.5768   -3.7092   24.0106 C.2     1  UNL1        0.2429
      3 O           6.0474   -4.4432   22.8145 O.2     1  UNL1       -0.2732
      4 N           6.1473   -2.2963   24.2743 N.am    1  UNL1       -0.3042
      5 H           6.4948   -1.8146   25.0594 H       1  UNL1        0.1494
      6 CA          7.5358   -4.3879   24.9432 C.3     1  UNL1        0.1793
      7 N           7.2120   -4.6991   28.8863 N.am    1  UNL1       -0.2567
      8 C           6.8634   -5.7312   29.9175 C.3     1  UNL1        0.1168
      9 C           7.1996   -5.0595   27.4304 C.2     1  UNL1        0.3047
     10 O           6.8386   -6.4521   27.0055 O.2     1  UNL1       -0.2526
     11 N           7.5482   -4.0274   26.3992 N.am    1  UNL1       -0.2805
     12 H           7.7852   -3.1135   26.6780 H       1  UNL1        0.1514
     13 C           7.5730   -3.3066   29.3111 C.3     1  UNL1        0.1413
     14 C           5.0190   -1.3711   31.5014 C.ar    1  UNL1        0.0875
     15 N           6.0691   -2.4300   31.3397 N.ar    1  UNL1       -0.2453
     16 C           6.5300   -2.4117   29.9124 C.ar    1  UNL1        0.0858
     17 C           5.7648   -1.3415   29.1919 C.ar    1  UNL1        0.0530
     18 S           4.8310   -0.6983   30.1739 S.2     1  UNL1       -0.0705
     19 C           3.5406    0.2536   32.8887 C.3     1  UNL1        0.0069
     20 C           4.2858   -1.0426   32.7680 C.3     1  UNL1        0.0465
     21 C           4.2977   -2.0103   33.9141 C.3     1  UNL1        0.0069
     22 C           8.4824   -5.4271   24.4198 C.3     1  UNL1        0.1661
     23 O           7.9683   -6.5473   23.5647 O.3     1  UNL1       -0.3798
     24 H           7.3815   -7.1126   24.0910 H       1  UNL1        0.2105
     25 C           3.7243   -1.5825   23.6664 C.3     1  UNL1        0.0216
     26 C           3.1741   -0.4880   24.5319 C.3     1  UNL1        0.0217
     27 C           2.2518    0.5397   23.9458 C.3     1  UNL1        0.0792
     28 N           0.8470    0.6650   24.4567 N.am    1  UNL1       -0.2720
     29 C           0.4709    1.8160   25.3422 C.2     1  UNL1        0.4019
     30 O           1.4995    2.8414   25.7167 O.2     1  UNL1       -0.2264
     31 H           0.1719   -0.0080   24.2109 H       1  UNL1        0.1527
     32 O          -0.9338    1.9414   25.8531 O.3     1  UNL1       -0.4291
     33 C          -1.1819    2.1999   27.3096 C.3     1  UNL1        0.2447
     34 C          -0.3204    1.5407   28.3457 C.ar    1  UNL1        0.0714
     35 C          -0.2245    0.0663   28.6044 C.ar    1  UNL1        0.1053
     36 N           0.7516   -0.1454   29.7236 N.ar    1  UNL1       -0.2350
     37 C           1.2589    1.1981   30.1565 C.ar    1  UNL1        0.1343
     38 S           0.5964    2.2402   29.3050 S.2     1  UNL1       -0.0652
     39 C           2.7342    1.4418   22.8489 C.3     1  UNL1        0.0460
     40 C           2.6029    1.0171   21.4162 C.ar    1  UNL1       -0.0205
     41 C           1.5698    0.0019   21.0266 C.ar    1  UNL1       -0.0042
     42 C           1.4386   -0.4228   19.5940 C.ar    1  UNL1       -0.0003
     43 C           2.3404    0.1679   18.5510 C.ar    1  UNL1       -0.0000
     44 C           3.3735    1.1831   18.9407 C.ar    1  UNL1       -0.0003
     45 C           3.5048    1.6078   20.3733 C.ar    1  UNL1       -0.0042
     46 C           5.6934   -0.9739   22.0845 C.3     1  UNL1        0.0459
     47 C           5.3661   -1.5757   20.7501 C.ar    1  UNL1       -0.0205
     48 C           6.1446   -1.1708   19.5335 C.ar    1  UNL1       -0.0042
     49 C           5.8173   -1.7726   18.1991 C.ar    1  UNL1       -0.0003
     50 C           4.7115   -2.7793   18.0813 C.ar    1  UNL1       -0.0000
     51 C           3.9330   -3.1841   19.2978 C.ar    1  UNL1       -0.0003
     52 C           4.2603   -2.5823   20.6322 C.ar    1  UNL1       -0.0042
@<TRIPOS>BOND
     1    19    20    1
     2    20    21    1
     3    20    14    1
     4    14    15   ar
     5    15    16   ar
     6    16    13    1
     7    13     7    1
     8     7     8    1
     9     7     9   am
    10     9    10    2
    11     9    11   am
    12    11     6    1
    13     6    22    1
    14    22    23    1
    15     6     2    1
    16     2     3    2
    17     2     4   am
    18     4     1    1
    19     1    25    1
    20    25    26    1
    21    27    26    1
    22    27    39    1
    23    39    40    1
    24    40    41   ar
    25    41    42   ar
    26    42    43   ar
    27    43    44   ar
    28    44    45   ar
    29    27    28    1
    30    28    29   am
    31    29    30    2
    32    29    32    1
    33    32    33    1
    34    33    34    1
    35    34    35   ar
    36    35    36   ar
    37    36    37   ar
    38    37    38   ar
    39     1    46    1
    40    46    47    1
    41    47    48   ar
    42    48    49   ar
    43    49    50   ar
    44    50    51   ar
    45    51    52   ar
    46    16    17   ar
    47    17    18   ar
    48    18    14   ar
    49    45    40   ar
    50    38    34   ar
    51    52    47   ar
    52    11    12    1
    53    23    24    1
    54     4     5    1
    55    28    31    1
@<TRIPOS>MOLECULE
*****
 52 55 0 0 0
SMALL
GASTEIGER

@<TRIPOS>ATOM
      1 C           0.6904    0.7165   19.9881 C.3     1  UNL1        0.0760
      2 C          -0.5710    2.6662   21.1533 C.2     1  UNL1        0.2429
      3 O           0.7157    3.4279   21.2717 O.2     1  UNL1       -0.2732
      4 N          -0.5837    1.3104   20.5114 N.am    1  UNL1       -0.3042
      5 H          -1.4283    0.8105   20.4337 H       1  UNL1        0.1494
      6 CA         -1.8451    3.2601   21.6766 C.3     1  UNL1        0.1793
      7 N          -1.6315    5.4580   24.9742 N.am    1  UNL1       -0.2567
      8 C          -1.2161    6.8373   25.3926 C.3     1  UNL1        0.1168
      9 C          -1.5307    5.0487   23.5346 C.2     1  UNL1        0.3047
     10 O          -1.0145    6.0187   22.5134 O.2     1  UNL1       -0.2526
     11 N          -1.9460    3.6694   23.1162 N.am    1  UNL1       -0.2805
     12 H          -2.2847    3.0328   23.7864 H       1  UNL1        0.1514
     13 C          -2.1476    4.4880   25.9953 C.3     1  UNL1        0.1413
     14 C          -0.3006    1.6377   27.8741 C.ar    1  UNL1        0.0875
     15 N          -1.5478    2.2218   27.2796 N.ar    1  UNL1       -0.2453
     16 C          -1.1997    3.5572   26.6919 C.ar    1  UNL1        0.0858
     17 C           0.2626    3.7986   26.9232 C.ar    1  UNL1        0.0530
     18 S           0.8183    2.6123   27.6538 S.2     1  UNL1       -0.0705
     19 C           1.1467   -0.1861   29.0269 C.3     1  UNL1        0.0069
     20 C          -0.1914    0.3119   28.5672 C.3     1  UNL1        0.0465
     21 C          -1.4204   -0.5158   28.8006 C.3     1  UNL1        0.0069
     22 C          -3.0184    3.4448   20.7605 C.3     1  UNL1        0.1661
     23 O          -4.2269    2.5678   20.9033 O.3     1  UNL1       -0.3798
     24 H          -3.9907    1.6533   20.6823 H       1  UNL1        0.2105
     25 C           1.5122   -0.1843   20.8616 C.3     1  UNL1        0.0216
     26 C           2.4124    0.4029   21.9079 C.3     1  UNL1        0.0217
     27 C           3.5187   -0.4228   22.4948 C.3     1  UNL1        0.0792
     28 N           3.3554   -1.0390   23.8527 N.am    1  UNL1       -0.2720
     29 C           3.6112   -0.2204   25.0834 C.2     1  UNL1        0.4019
     30 O           4.0304    1.2142   24.9562 O.2     1  UNL1       -0.2264
     31 H           3.0803   -1.9806   23.9361 H       1  UNL1        0.1527
     32 O           3.4479   -0.8366   26.4412 O.3     1  UNL1       -0.4291
     33 C           4.5356   -1.6993   27.0091 C.3     1  UNL1        0.2447
     34 C           5.8940   -1.7095   26.3729 C.ar    1  UNL1        0.0714
     35 C           6.3718   -2.6756   25.3297 C.ar    1  UNL1        0.1053
     36 N           7.7861   -2.3186   24.9802 N.ar    1  UNL1       -0.2350
     37 C           8.1825   -1.1317   25.8074 C.ar    1  UNL1        0.1343
     38 S           7.0131   -0.7553   26.6681 S.2     1  UNL1       -0.0652
     39 C           4.7882   -0.6324   21.7239 C.3     1  UNL1        0.0460
     40 C           4.8724   -1.7259   20.7005 C.ar    1  UNL1       -0.0205
     41 C           6.1711   -2.0015   20.0026 C.ar    1  UNL1       -0.0042
     42 C           6.2553   -3.0950   18.9792 C.ar    1  UNL1       -0.0003
     43 C           5.0406   -3.9127   18.6537 C.ar    1  UNL1       -0.0000
     44 C           3.7418   -3.6370   19.3516 C.ar    1  UNL1       -0.0003
     45 C           3.6577   -2.5436   20.3750 C.ar    1  UNL1       -0.0042
     46 C           1.1425    1.0233   18.5911 C.3     1  UNL1        0.0459
     47 C           2.5830    0.8443   18.2127 C.ar    1  UNL1       -0.0205
     48 C           3.5971    1.8746   18.6127 C.ar    1  UNL1       -0.0042
     49 C           5.0375    1.6956   18.2343 C.ar    1  UNL1       -0.0003
     50 C           5.4638    0.4862   17.4559 C.ar    1  UNL1       -0.0000
     51 C           4.4496   -0.5441   17.0560 C.ar    1  UNL1       -0.0003
     52 C           3.0092   -0.3650   17.4344 C.ar    1  UNL1       -0.0042
@<TRIPOS>BOND
     1    19    20    1
     2    20    21    1
     3    20    14    1
     4    14    15   ar
     5    15    16   ar
     6    16    13    1
     7    13     7    1
     8     7     8    1
     9     7     9   am
    10     9    10    2
    11     9    11   am
    12    11     6    1
    13     6    22    1
    14    22    23    1
    15     6     2    1
    16     2     3    2
    17     2     4   am
    18     4     1    1
    19     1    25    1
    20    25    26    1
    21    27    26    1
    22    27    39    1
    23    39    40    1
    24    40    41   ar
    25    41    42   ar
    26    42    43   ar
    27    43    44   ar
    28    44    45   ar
    29    27    28    1
    30    28    29   am
    31    29    30    2
    32    29    32    1
    33    32    33    1
    34    33    34    1
    35    34    35   ar
    36    35    36   ar
    37    36    37   ar
    38    37    38   ar
    39     1    46    1
    40    46    47    1
    41    47    48   ar
    42    48    49   ar
    43    49    50   ar
    44    50    51   ar
    45    51    52   ar
    46    16    17   ar
    47    17    18   ar
    48    18    14   ar
    49    45    40   ar
    50    38    34   ar
    51    52    47   ar
    52    11    12    1
    53    23    24    1
    54     4     5    1
    55    28    31    1
@<TRIPOS>MOLECULE
*****
 52 55 0 0 0
SMALL
GASTEIGER

@<TRIPOS>ATOM
      1 C           3.4850   -0.6711   23.2310 C.3     1  UNL1        0.0760
      2 C           1.7627    1.0097   24.2102 C.2     1  UNL1        0.2429
      3 O           2.1770    2.0284   23.1901 O.2     1  UNL1       -0.2732
      4 N           2.4168   -0.3401   24.2306 N.am    1  UNL1       -0.3042
      5 H           2.1449   -1.0088   24.9001 H       1  UNL1        0.1494
      6 CA          0.6945    1.3407   25.2098 C.3     1  UNL1        0.1793
      7 N           0.8561    1.4544   29.1736 N.am    1  UNL1       -0.2567
      8 C           0.7295    2.4533   30.2854 C.3     1  UNL1        0.1168
      9 C           0.7120    1.8970   27.7476 C.2     1  UNL1        0.3047
     10 O           0.4412    3.3385   27.4334 O.2     1  UNL1       -0.2526
     11 N           0.8386    0.8980   26.6358 N.am    1  UNL1       -0.2805
     12 H           1.0164   -0.0481   26.8420 H       1  UNL1        0.1514
     13 C           1.1269    0.0129   29.4877 C.3     1  UNL1        0.1413
     14 C           4.2793   -1.2530   31.3654 C.ar    1  UNL1        0.0875
     15 N           2.8061   -0.9744   31.3182 N.ar    1  UNL1       -0.2453
     16 C           2.4845   -0.4081   29.9669 C.ar    1  UNL1        0.0858
     17 C           3.7590   -0.3366   29.1790 C.ar    1  UNL1        0.0530
     18 S           4.8682   -0.8588   30.0433 S.2     1  UNL1       -0.0705
     19 C           4.3261   -2.7049   33.5194 C.3     1  UNL1        0.0069
     20 C           5.0315   -1.8252   32.5302 C.3     1  UNL1        0.0465
     21 C           6.4891   -1.5178   32.7058 C.3     1  UNL1        0.0069
     22 C          -0.5178    2.1142   24.7836 C.3     1  UNL1        0.1661
     23 O          -0.5147    2.8547   23.4790 O.3     1  UNL1       -0.3798
     24 H           0.1326    3.5760   23.5183 H       1  UNL1        0.2105
     25 C           4.9062   -0.2681   23.4909 C.3     1  UNL1        0.0216
     26 C           5.9694   -0.5727   22.4776 C.3     1  UNL1        0.0217
     27 C           7.0177   -1.6031   22.7771 C.3     1  UNL1        0.0792
     28 N           7.7415   -1.5768   24.0906 N.am    1  UNL1       -0.2720
     29 C           7.3477   -2.5264   25.1831 C.2     1  UNL1        0.4019
     30 O           6.2302   -3.5021   24.9620 O.2     1  UNL1       -0.2264
     31 H           8.4750   -0.9364   24.2357 H       1  UNL1        0.1527
     32 O           8.0716   -2.5001   26.4966 O.3     1  UNL1       -0.4291
     33 C           7.3077   -2.6627   27.7772 C.3     1  UNL1        0.2447
     34 C           7.3238   -3.9779   28.4983 C.ar    1  UNL1        0.0714
     35 C           6.7167   -4.2543   29.8418 C.ar    1  UNL1        0.1053
     36 N           6.9675   -5.6948   30.1764 N.ar    1  UNL1       -0.2350
     37 C           7.7296   -6.3088   29.0396 C.ar    1  UNL1        0.1343
     38 S           7.9498   -5.2476   28.0026 S.2     1  UNL1       -0.0652
     39 C           7.3421   -2.6597   21.7630 C.3     1  UNL1        0.0460
     40 C           6.3017   -3.0943   20.7737 C.ar    1  UNL1       -0.0205
     41 C           6.4020   -2.6617   19.3409 C.ar    1  UNL1       -0.0042
     42 C           5.3616   -3.0964   18.3517 C.ar    1  UNL1       -0.0003
     43 C           4.2209   -3.9637   18.7952 C.ar    1  UNL1       -0.0000
     44 C           4.1206   -4.3963   20.2279 C.ar    1  UNL1       -0.0003
     45 C           5.1610   -3.9616   21.2171 C.ar    1  UNL1       -0.0042
     46 C           3.1320   -1.4052   21.9714 C.3     1  UNL1        0.0459
     47 C           2.6160   -0.6498   20.7826 C.ar    1  UNL1       -0.0205
     48 C           3.5538   -0.2544   19.6806 C.ar    1  UNL1       -0.0042
     49 C           3.0378    0.5010   18.4918 C.ar    1  UNL1       -0.0003
     50 C           1.5842    0.8610   18.4050 C.ar    1  UNL1       -0.0000
     51 C           0.6466    0.4655   19.5070 C.ar    1  UNL1       -0.0003
     52 C           1.1625   -0.2899   20.6958 C.ar    1  UNL1       -0.0042
@<TRIPOS>BOND
     1    19    20    1
     2    20    21    1
     3    20    14    1
     4    14    15   ar
     5    15    16   ar
     6    16    13    1
     7    13     7    1
     8     7     8    1
     9     7     9   am
    10     9    10    2
    11     9    11   am
    12    11     6    1
    13     6    22    1
    14    22    23    1
    15     6     2    1
    16     2     3    2
    17     2     4   am
    18     4     1    1
    19     1    25    1
    20    25    26    1
    21    27    26    1
    22    27    39    1
    23    39    40    1
    24    40    41   ar
    25    41    42   ar
    26    42    43   ar
    27    43    44   ar
    28    44    45   ar
    29    27    28    1
    30    28    29   am
    31    29    30    2
    32    29    32    1
    33    32    33    1
    34    33    34    1
    35    34    35   ar
    36    35    36   ar
    37    36    37   ar
    38    37    38   ar
    39     1    46    1
    40    46    47    1
    41    47    48   ar
    42    48    49   ar
    43    49    50   ar
    44    50    51   ar
    45    51    52   ar
    46    16    17   ar
    47    17    18   ar
    48    18    14   ar
    49    45    40   ar
    50    38    34   ar
    51    52    47   ar
    52    11    12    1
    53    23    24    1
    54     4     5    1
    55    28    31    1
