@<TRIPOS>MOLECULE
*****
 29 30 0 0 0
SMALL
GASTEIGER

@<TRIPOS>ATOM
      1 C          -7.6454  -19.7833   21.3388 C.3     1  UNL1        0.2969
      2 F          -6.9673  -20.7813   22.2300 F       1  UNL1       -0.1981
      3 F          -8.3235  -18.7854   20.4477 F       1  UNL1       -0.1981
      4 C          -8.5385  -19.3769   22.4735 C.ar    1  UNL1        0.0422
      5 C          -8.9671  -20.3920   23.4912 C.ar    1  UNL1        0.0012
      6 C          -9.8602  -19.9856   24.6257 C.ar    1  UNL1        0.0030
      7 C         -10.3246  -18.5641   24.7425 C.ar    1  UNL1        0.0369
      8 C          -9.8959  -17.5490   23.7248 C.ar    1  UNL1        0.1384
      9 C          -9.0029  -17.9554   22.5903 C.ar    1  UNL1        0.0379
     10 O         -10.3603  -16.1275   23.8417 O.3     1  UNL1       -0.4755
     11 C         -11.4785  -15.6301   22.9743 C.3     1  UNL1        0.2057
     12 C         -12.5184  -16.5861   22.4696 C.3     1  UNL1        0.0561
     13 C         -12.4560  -17.0846   21.0562 C.3     1  UNL1        0.1072
     14 C         -11.7979  -18.3978   20.7525 C.3     1  UNL1        0.3979
     15 F         -11.1398  -19.7111   20.4487 F       1  UNL1       -0.1700
     16 F         -12.2901  -18.9466   22.0589 F       1  UNL1       -0.1700
     17 F         -11.3057  -17.8491   19.4461 F       1  UNL1       -0.1700
     18 C          -6.7524  -20.1897   20.2042 C.3     1  UNL1        0.1409
     19 N          -5.6357  -21.1630   20.4402 N.3     1  UNL1       -0.2850
     20 H          -5.8260  -21.6187   21.3327 H       1  UNL1        0.1239
     21 C          -4.2172  -20.6782   20.4953 C.3     1  UNL1        0.1553
     22 O          -4.4505  -19.5035   22.8009 O.2     1  UNL1       -0.2734
     23 C          -3.8394  -19.5697   21.4326 C.2     1  UNL1        0.2419
     24 N          -2.8507  -18.5273   21.0015 N.am    1  UNL1       -0.2733
     25 C          -2.2398  -18.5935   19.6332 C.3     1  UNL1        0.1255
     26 C          -1.2509  -17.5511   19.2021 C.3     1  UNL1        0.1636
     27 O          -0.8731  -16.4426   20.1394 O.3     1  UNL1       -0.3501
     28 C          -1.4842  -16.3765   21.5078 C.3     1  UNL1        0.1636
     29 C          -2.4729  -17.4188   21.9388 C.3     1  UNL1        0.1255
@<TRIPOS>BOND
     1    22    23    2
     2    23    21    1
     3    21    19    1
     4    19    18    1
     5    18     1    1
     6     1     2    1
     7     1     3    1
     8     1     4    1
     9     4     5   ar
    10     5     6   ar
    11     6     7   ar
    12     7     8   ar
    13     8    10    1
    14    10    11    1
    15    11    12    1
    16    12    13    1
    17    13    14    1
    18    14    15    1
    19    14    16    1
    20    14    17    1
    21     8     9   ar
    22    23    24   am
    23    24    25    1
    24    25    26    1
    25    26    27    1
    26    27    28    1
    27    28    29    1
    28     9     4   ar
    29    29    24    1
    30    19    20    1
@<TRIPOS>MOLECULE
*****
 29 30 0 0 0
SMALL
GASTEIGER

@<TRIPOS>ATOM
      1 C          -8.4402  -19.5137   20.4050 C.3     1  UNL1        0.2969
      2 F          -7.7128  -19.7984   21.6854 F       1  UNL1       -0.1981
      3 F          -9.1677  -19.2289   19.1245 F       1  UNL1       -0.1981
      4 C          -9.6280  -19.0351   21.1862 C.ar    1  UNL1        0.0422
      5 C         -10.8696  -18.5948   20.4688 C.ar    1  UNL1        0.0012
      6 C         -12.0573  -18.1162   21.2500 C.ar    1  UNL1        0.0030
      7 C         -12.0034  -18.0780   22.7486 C.ar    1  UNL1        0.0369
      8 C         -10.7619  -18.5183   23.4659 C.ar    1  UNL1        0.1384
      9 C          -9.5742  -18.9969   22.6847 C.ar    1  UNL1        0.0379
     10 O         -10.7080  -18.4801   24.9645 O.3     1  UNL1       -0.4755
     11 C          -9.5385  -17.8455   25.6570 C.3     1  UNL1        0.2057
     12 C          -8.9983  -16.5345   25.1678 C.3     1  UNL1        0.0561
     13 C          -8.3763  -15.5717   26.1354 C.3     1  UNL1        0.1072
     14 C          -6.8920  -15.5793   26.3516 C.3     1  UNL1        0.3979
     15 F          -5.4077  -15.5870   26.5678 F       1  UNL1       -0.1700
     16 F          -6.6946  -14.9185   25.0195 F       1  UNL1       -0.1700
     17 F          -7.0894  -16.2401   27.6837 F       1  UNL1       -0.1700
     18 C          -7.2525  -19.9922   19.6238 C.3     1  UNL1        0.1409
     19 N          -6.2575  -20.9155   20.2621 N.3     1  UNL1       -0.2850
     20 H          -6.5387  -21.0232   21.2366 H       1  UNL1        0.1239
     21 C          -4.8004  -20.5592   20.2685 C.3     1  UNL1        0.1553
     22 O          -4.8074  -19.5833   22.6764 O.2     1  UNL1       -0.2734
     23 C          -4.2721  -19.5806   21.2751 C.2     1  UNL1        0.2419
     24 N          -3.2086  -18.5992   20.8804 N.am    1  UNL1       -0.2733
     25 C          -2.6735  -18.5965   19.4791 C.3     1  UNL1        0.1255
     26 C          -1.6099  -17.6150   19.0844 C.3     1  UNL1        0.1636
     27 O          -1.0816  -16.6364   20.0909 O.3     1  UNL1       -0.3501
     28 C          -1.6169  -16.6391   21.4922 C.3     1  UNL1        0.1636
     29 C          -2.6803  -17.6205   21.8869 C.3     1  UNL1        0.1255
@<TRIPOS>BOND
     1    22    23    2
     2    23    21    1
     3    21    19    1
     4    19    18    1
     5    18     1    1
     6     1     2    1
     7     1     3    1
     8     1     4    1
     9     4     5   ar
    10     5     6   ar
    11     6     7   ar
    12     7     8   ar
    13     8    10    1
    14    10    11    1
    15    11    12    1
    16    12    13    1
    17    13    14    1
    18    14    15    1
    19    14    16    1
    20    14    17    1
    21     8     9   ar
    22    23    24   am
    23    24    25    1
    24    25    26    1
    25    26    27    1
    26    27    28    1
    27    28    29    1
    28     9     4   ar
    29    29    24    1
    30    19    20    1
@<TRIPOS>MOLECULE
*****
 29 30 0 0 0
SMALL
GASTEIGER

@<TRIPOS>ATOM
      1 C          -7.0365  -20.3543   21.6423 C.3     1  UNL1        0.2969
      2 F          -7.3358  -19.4697   20.4686 F       1  UNL1       -0.1981
      3 F          -6.7372  -21.2389   22.8161 F       1  UNL1       -0.1981
      4 C          -8.1139  -19.6715   22.4317 C.ar    1  UNL1        0.0422
      5 C          -8.8404  -20.4180   23.5110 C.ar    1  UNL1        0.0012
      6 C          -9.9178  -19.7352   24.3003 C.ar    1  UNL1        0.0030
      7 C         -10.2687  -18.3060   24.0103 C.ar    1  UNL1        0.0369
      8 C          -9.5422  -17.5595   22.9310 C.ar    1  UNL1        0.1384
      9 C          -8.4648  -18.2423   22.1417 C.ar    1  UNL1        0.0379
     10 O          -9.8931  -16.1302   22.6410 O.3     1  UNL1       -0.4755
     11 C         -10.2969  -15.7235   21.2548 C.3     1  UNL1        0.2057
     12 C         -11.5099  -16.3338   20.6175 C.3     1  UNL1        0.0561
     13 C         -11.3718  -17.5579   19.7615 C.3     1  UNL1        0.1072
     14 C         -11.2932  -18.9136   20.3986 C.3     1  UNL1        0.3979
     15 F         -11.2147  -20.2693   21.0357 F       1  UNL1       -0.1700
     16 F         -10.2066  -19.3012   19.4399 F       1  UNL1       -0.1700
     17 F         -12.3798  -18.5261   21.3573 F       1  UNL1       -0.1700
     18 C          -5.9591  -21.0371   20.8531 C.3     1  UNL1        0.1409
     19 N          -5.2544  -20.3006   19.7526 N.3     1  UNL1       -0.2850
     20 H          -5.6350  -20.6505   18.8733 H       1  UNL1        0.1239
     21 C          -3.7606  -20.3743   19.6376 C.3     1  UNL1        0.1553
     22 O          -2.1034  -18.7806   18.4275 O.2     1  UNL1       -0.2734
     23 C          -2.9465  -19.1145   19.6225 C.2     1  UNL1        0.2419
     24 N          -2.9755  -18.1886   20.8022 N.am    1  UNL1       -0.2733
     25 C          -3.8186  -18.5225   21.9971 C.3     1  UNL1        0.1255
     26 C          -3.8476  -17.5966   23.1769 C.3     1  UNL1        0.1636
     27 O          -3.0336  -16.3368   23.1618 O.3     1  UNL1       -0.3501
     28 C          -2.1905  -16.0029   21.9669 C.3     1  UNL1        0.1636
     29 C          -2.1615  -16.9288   20.7871 C.3     1  UNL1        0.1255
@<TRIPOS>BOND
     1    22    23    2
     2    23    21    1
     3    21    19    1
     4    19    18    1
     5    18     1    1
     6     1     2    1
     7     1     3    1
     8     1     4    1
     9     4     5   ar
    10     5     6   ar
    11     6     7   ar
    12     7     8   ar
    13     8    10    1
    14    10    11    1
    15    11    12    1
    16    12    13    1
    17    13    14    1
    18    14    15    1
    19    14    16    1
    20    14    17    1
    21     8     9   ar
    22    23    24   am
    23    24    25    1
    24    25    26    1
    25    26    27    1
    26    27    28    1
    27    28    29    1
    28     9     4   ar
    29    29    24    1
    30    19    20    1
@<TRIPOS>MOLECULE
*****
 29 30 0 0 0
SMALL
GASTEIGER

@<TRIPOS>ATOM
      1 C          -7.1701  -19.6654   20.8930 C.3     1  UNL1        0.2969
      2 F          -7.2618  -18.9704   19.5669 F       1  UNL1       -0.1981
      3 F          -7.0783  -20.3603   22.2191 F       1  UNL1       -0.1981
      4 C          -7.8542  -18.5030   21.5495 C.ar    1  UNL1        0.0422
      5 C          -7.1644  -17.7493   22.6477 C.ar    1  UNL1        0.0012
      6 C          -7.8485  -16.5870   23.3041 C.ar    1  UNL1        0.0030
      7 C          -9.2226  -16.1784   22.8624 C.ar    1  UNL1        0.0369
      8 C          -9.9124  -16.9321   21.7642 C.ar    1  UNL1        0.1384
      9 C          -9.2283  -18.0944   21.1078 C.ar    1  UNL1        0.0379
     10 O         -11.2865  -16.5236   21.3225 O.3     1  UNL1       -0.4755
     11 C         -12.4032  -16.4464   22.3209 C.3     1  UNL1        0.2057
     12 C         -12.7573  -17.6489   23.1446 C.3     1  UNL1        0.0561
     13 C         -11.9803  -18.9222   22.9856 C.3     1  UNL1        0.1072
     14 C         -11.0655  -19.3843   24.0808 C.3     1  UNL1        0.3979
     15 F         -10.1507  -19.8464   25.1761 F       1  UNL1       -0.1700
     16 F         -10.4804  -20.4123   23.1584 F       1  UNL1       -0.1700
     17 F         -11.6506  -18.3563   25.0033 F       1  UNL1       -0.1700
     18 C          -6.4859  -20.8277   20.2366 C.3     1  UNL1        0.1409
     19 N          -5.0748  -20.6887   19.7472 N.3     1  UNL1       -0.2850
     20 H          -4.9224  -21.4373   19.0715 H       1  UNL1        0.1239
     21 C          -3.9346  -20.7448   20.7203 C.3     1  UNL1        0.1553
     22 O          -4.2876  -19.4711   22.9571 O.2     1  UNL1       -0.2734
     23 C          -3.6451  -19.5687   21.6051 C.2     1  UNL1        0.2419
     24 N          -2.7131  -18.4902   21.1380 N.am    1  UNL1       -0.2733
     25 C          -2.0707  -18.5878   19.7861 C.3     1  UNL1        0.1255
     26 C          -1.1386  -17.5093   19.3190 C.3     1  UNL1        0.1636
     27 O          -0.8491  -16.3332   20.2038 O.3     1  UNL1       -0.3501
     28 C          -1.4917  -16.2355   21.5557 C.3     1  UNL1        0.1636
     29 C          -2.4236  -17.3140   22.0228 C.3     1  UNL1        0.1255
@<TRIPOS>BOND
     1    22    23    2
     2    23    21    1
     3    21    19    1
     4    19    18    1
     5    18     1    1
     6     1     2    1
     7     1     3    1
     8     1     4    1
     9     4     5   ar
    10     5     6   ar
    11     6     7   ar
    12     7     8   ar
    13     8    10    1
    14    10    11    1
    15    11    12    1
    16    12    13    1
    17    13    14    1
    18    14    15    1
    19    14    16    1
    20    14    17    1
    21     8     9   ar
    22    23    24   am
    23    24    25    1
    24    25    26    1
    25    26    27    1
    26    27    28    1
    27    28    29    1
    28     9     4   ar
    29    29    24    1
    30    19    20    1
@<TRIPOS>MOLECULE
*****
 29 30 0 0 0
SMALL
GASTEIGER

@<TRIPOS>ATOM
      1 C         -13.1143   -7.4253   18.3313 C.3     1  UNL1        0.2969
      2 F         -12.3234   -8.0902   17.2439 F       1  UNL1       -0.1981
      3 F         -13.9052   -6.7605   19.4186 F       1  UNL1       -0.1981
      4 C         -12.0112   -6.4271   18.5234 C.ar    1  UNL1        0.0422
      5 C         -10.6206   -6.8965   18.8330 C.ar    1  UNL1        0.0012
      6 C          -9.5175   -5.8983   19.0252 C.ar    1  UNL1        0.0030
      7 C          -9.8051   -4.4308   18.9077 C.ar    1  UNL1        0.0369
      8 C         -11.1957   -3.9615   18.5981 C.ar    1  UNL1        0.1384
      9 C         -12.2987   -4.9597   18.4059 C.ar    1  UNL1        0.0379
     10 O         -11.4833   -2.4940   18.4806 O.3     1  UNL1       -0.4755
     11 C         -12.8622   -2.0265   18.1205 C.3     1  UNL1        0.2057
     12 C         -13.7625   -1.4606   19.1785 C.3     1  UNL1        0.0561
     13 C         -14.8186   -2.3227   19.8042 C.3     1  UNL1        0.1072
     14 C         -14.4271   -3.5532   20.5675 C.3     1  UNL1        0.3979
     15 F         -14.0357   -4.7838   21.3307 F       1  UNL1       -0.1700
     16 F         -15.5558   -4.3078   19.9298 F       1  UNL1       -0.1700
     17 F         -13.2984   -2.7986   21.2051 F       1  UNL1       -0.1700
     18 C         -14.2174   -8.4234   18.1392 C.3     1  UNL1        0.1409
     19 N         -14.7237   -9.2159   19.3078 N.3     1  UNL1       -0.2850
     20 H         -14.4492  -10.1851   19.1473 H       1  UNL1        0.1239
     21 C         -16.1892   -9.2281   19.6273 C.3     1  UNL1        0.1553
     22 O         -16.9019  -11.6562   19.0385 O.2     1  UNL1       -0.2734
     23 C         -17.1052  -10.1755   18.9108 C.2     1  UNL1        0.2419
     24 N         -18.2245   -9.6422   18.0665 N.am    1  UNL1       -0.2733
     25 C         -18.4278   -8.1616   17.9388 C.3     1  UNL1        0.1255
     26 C         -19.5472   -7.6283   17.0945 C.3     1  UNL1        0.1636
     27 O         -20.4631   -8.5756   16.3780 O.3     1  UNL1       -0.3501
     28 C         -20.2598  -10.0563   16.5057 C.3     1  UNL1        0.1636
     29 C         -19.1405  -10.5896   17.3500 C.3     1  UNL1        0.1255
@<TRIPOS>BOND
     1    22    23    2
     2    23    21    1
     3    21    19    1
     4    19    18    1
     5    18     1    1
     6     1     2    1
     7     1     3    1
     8     1     4    1
     9     4     5   ar
    10     5     6   ar
    11     6     7   ar
    12     7     8   ar
    13     8    10    1
    14    10    11    1
    15    11    12    1
    16    12    13    1
    17    13    14    1
    18    14    15    1
    19    14    16    1
    20    14    17    1
    21     8     9   ar
    22    23    24   am
    23    24    25    1
    24    25    26    1
    25    26    27    1
    26    27    28    1
    27    28    29    1
    28     9     4   ar
    29    29    24    1
    30    19    20    1
@<TRIPOS>MOLECULE
*****
 29 30 0 0 0
SMALL
GASTEIGER

@<TRIPOS>ATOM
      1 C         -13.8753   -6.9346   18.7938 C.3     1  UNL1        0.2969
      2 F         -12.6461   -7.0048   17.9371 F       1  UNL1       -0.1981
      3 F         -15.1046   -6.8644   19.6505 F       1  UNL1       -0.1981
      4 C         -13.5768   -5.4978   19.1045 C.ar    1  UNL1        0.0422
      5 C         -13.9462   -4.9271   20.4416 C.ar    1  UNL1        0.0012
      6 C         -13.6477   -3.4904   20.7522 C.ar    1  UNL1        0.0030
      7 C         -12.9797   -2.6242   19.7257 C.ar    1  UNL1        0.0369
      8 C         -12.6103   -3.1949   18.3886 C.ar    1  UNL1        0.1384
      9 C         -12.9089   -4.6316   18.0780 C.ar    1  UNL1        0.0379
     10 O         -11.9424   -2.3287   17.3621 O.3     1  UNL1       -0.4755
     11 C         -10.8865   -2.9056   16.4664 C.3     1  UNL1        0.2057
     12 C          -9.6559   -3.5247   17.0599 C.3     1  UNL1        0.0561
     13 C          -9.5353   -5.0173   17.1484 C.3     1  UNL1        0.1072
     14 C          -9.3888   -5.6799   18.4861 C.3     1  UNL1        0.3979
     15 F          -9.2423   -6.3425   19.8238 F       1  UNL1       -0.1700
     16 F          -9.2672   -7.0143   17.8119 F       1  UNL1       -0.1700
     17 F          -9.5104   -4.3455   19.1604 F       1  UNL1       -0.1700
     18 C         -14.1739   -8.3714   18.4832 C.3     1  UNL1        0.1409
     19 N         -14.8518   -8.7351   17.1955 N.3     1  UNL1       -0.2850
     20 H         -14.4417   -8.1465   16.4704 H       1  UNL1        0.1239
     21 C         -16.3407   -8.6044   17.0688 C.3     1  UNL1        0.1553
     22 O         -17.1684  -10.7346   18.3047 O.2     1  UNL1       -0.2734
     23 C         -17.2393   -9.2532   18.0796 C.2     1  UNL1        0.2419
     24 N         -18.2086   -8.4207   18.8653 N.am    1  UNL1       -0.2733
     25 C         -18.2794   -6.9394   18.6401 C.3     1  UNL1        0.1255
     26 C         -19.2487   -6.1068   19.4258 C.3     1  UNL1        0.1636
     27 O         -20.1472   -6.7556   20.4366 O.3     1  UNL1       -0.3501
     28 C         -20.0764   -8.2369   20.6617 C.3     1  UNL1        0.1636
     29 C         -19.1071   -9.0694   19.8761 C.3     1  UNL1        0.1255
@<TRIPOS>BOND
     1    22    23    2
     2    23    21    1
     3    21    19    1
     4    19    18    1
     5    18     1    1
     6     1     2    1
     7     1     3    1
     8     1     4    1
     9     4     5   ar
    10     5     6   ar
    11     6     7   ar
    12     7     8   ar
    13     8    10    1
    14    10    11    1
    15    11    12    1
    16    12    13    1
    17    13    14    1
    18    14    15    1
    19    14    16    1
    20    14    17    1
    21     8     9   ar
    22    23    24   am
    23    24    25    1
    24    25    26    1
    25    26    27    1
    26    27    28    1
    27    28    29    1
    28     9     4   ar
    29    29    24    1
    30    19    20    1
@<TRIPOS>MOLECULE
*****
 29 30 0 0 0
SMALL
GASTEIGER

@<TRIPOS>ATOM
      1 C         -13.3877   -2.6790   19.8926 C.3     1  UNL1        0.2969
      2 F         -12.3405   -3.7528   19.8867 F       1  UNL1       -0.1981
      3 F         -14.4349   -1.6051   19.8985 F       1  UNL1       -0.1981
      4 C         -12.6118   -1.9166   18.8597 C.ar    1  UNL1        0.0422
      5 C         -12.9494   -0.4831   18.5749 C.ar    1  UNL1        0.0012
      6 C         -12.1735    0.2791   17.5420 C.ar    1  UNL1        0.0030
      7 C         -11.0600   -0.3920   16.7939 C.ar    1  UNL1        0.0369
      8 C         -10.7224   -1.8255   17.0787 C.ar    1  UNL1        0.1384
      9 C         -11.4983   -2.5878   18.1116 C.ar    1  UNL1        0.0379
     10 O          -9.6089   -2.4967   16.3307 O.3     1  UNL1       -0.4755
     11 C          -9.6764   -3.9680   16.0465 C.3     1  UNL1        0.2057
     12 C          -9.2426   -4.9541   17.0902 C.3     1  UNL1        0.0561
     13 C         -10.2109   -5.9789   17.6023 C.3     1  UNL1        0.1072
     14 C          -9.7290   -7.0894   18.4881 C.3     1  UNL1        0.3979
     15 F          -9.2472   -8.1998   19.3739 F       1  UNL1       -0.1700
     16 F         -10.2088   -8.0970   17.4859 F       1  UNL1       -0.1700
     17 F          -9.2492   -6.0817   19.4903 F       1  UNL1       -0.1700
     18 C         -14.1637   -3.4412   20.9255 C.3     1  UNL1        0.1409
     19 N         -15.5125   -4.0032   20.5866 N.3     1  UNL1       -0.2850
     20 H         -15.7874   -4.5998   21.3670 H       1  UNL1        0.1239
     21 C         -15.6953   -4.8129   19.3372 C.3     1  UNL1        0.1553
     22 O         -13.8758   -6.6585   19.1545 O.2     1  UNL1       -0.2734
     23 C         -15.3133   -6.2634   19.3208 C.2     1  UNL1        0.2419
     24 N         -16.3686   -7.3187   19.4708 N.am    1  UNL1       -0.2733
     25 C         -17.8060   -6.9235   19.6372 C.3     1  UNL1        0.1255
     26 C         -18.8615   -7.9788   19.7872 C.3     1  UNL1        0.1636
     27 O         -18.4794   -9.4292   19.7709 O.3     1  UNL1       -0.3501
     28 C         -17.0419   -9.8244   19.6045 C.3     1  UNL1        0.1636
     29 C         -15.9866   -8.7691   19.4545 C.3     1  UNL1        0.1255
@<TRIPOS>BOND
     1    22    23    2
     2    23    21    1
     3    21    19    1
     4    19    18    1
     5    18     1    1
     6     1     2    1
     7     1     3    1
     8     1     4    1
     9     4     5   ar
    10     5     6   ar
    11     6     7   ar
    12     7     8   ar
    13     8    10    1
    14    10    11    1
    15    11    12    1
    16    12    13    1
    17    13    14    1
    18    14    15    1
    19    14    16    1
    20    14    17    1
    21     8     9   ar
    22    23    24   am
    23    24    25    1
    24    25    26    1
    25    26    27    1
    26    27    28    1
    27    28    29    1
    28     9     4   ar
    29    29    24    1
    30    19    20    1
@<TRIPOS>MOLECULE
*****
 29 30 0 0 0
SMALL
GASTEIGER

@<TRIPOS>ATOM
      1 C           8.1416   -8.1575   26.9773 C.3     1  UNL1        0.2969
      2 F           9.5339   -7.9123   27.4788 F       1  UNL1       -0.1981
      3 F           6.7494   -8.4027   26.4759 F       1  UNL1       -0.1981
      4 C           8.1546   -6.8246   26.2893 C.ar    1  UNL1        0.0422
      5 C           8.5702   -5.5958   27.0425 C.ar    1  UNL1        0.0012
      6 C           8.5831   -4.2630   26.3544 C.ar    1  UNL1        0.0030
      7 C           8.1806   -4.1590   24.9132 C.ar    1  UNL1        0.0369
      8 C           7.7650   -5.3878   24.1600 C.ar    1  UNL1        0.1384
      9 C           7.7521   -6.7206   24.8481 C.ar    1  UNL1        0.0379
     10 O           7.3625   -5.2838   22.7188 O.3     1  UNL1       -0.4755
     11 C           6.8898   -3.9725   22.1649 C.3     1  UNL1        0.2057
     12 C           5.4963   -3.8451   21.6246 C.3     1  UNL1        0.0561
     13 C           5.2762   -3.6707   20.1511 C.3     1  UNL1        0.1072
     14 C           3.9913   -4.1266   19.5255 C.3     1  UNL1        0.3979
     15 F           2.7065   -4.5826   18.9000 F       1  UNL1       -0.1700
     16 F           3.3130   -2.8796   20.0100 F       1  UNL1       -0.1700
     17 F           4.6697   -5.3737   19.0411 F       1  UNL1       -0.1700
     18 C           8.1286   -9.4903   27.6653 C.3     1  UNL1        0.1409
     19 N           6.8637  -10.2948   27.7180 N.3     1  UNL1       -0.2850
     20 H           6.2306   -9.8069   28.3516 H       1  UNL1        0.1239
     21 C           6.9035  -11.7267   28.1634 C.3     1  UNL1        0.1553
     22 O           6.5627  -13.5221   26.3167 O.2     1  UNL1       -0.2734
     23 C           6.0358  -12.7467   27.4877 C.2     1  UNL1        0.2419
     24 N           4.6412  -12.9913   27.9830 N.am    1  UNL1       -0.2733
     25 C           4.1144  -12.2160   29.1539 C.3     1  UNL1        0.1255
     26 C           2.7198  -12.4606   29.6492 C.3     1  UNL1        0.1636
     27 O           1.8521  -13.4806   28.9735 O.3     1  UNL1       -0.3501
     28 C           2.3790  -14.2560   27.8025 C.3     1  UNL1        0.1636
     29 C           3.7735  -14.0114   27.3073 C.3     1  UNL1        0.1255
@<TRIPOS>BOND
     1    22    23    2
     2    23    21    1
     3    21    19    1
     4    19    18    1
     5    18     1    1
     6     1     2    1
     7     1     3    1
     8     1     4    1
     9     4     5   ar
    10     5     6   ar
    11     6     7   ar
    12     7     8   ar
    13     8    10    1
    14    10    11    1
    15    11    12    1
    16    12    13    1
    17    13    14    1
    18    14    15    1
    19    14    16    1
    20    14    17    1
    21     8     9   ar
    22    23    24   am
    23    24    25    1
    24    25    26    1
    25    26    27    1
    26    27    28    1
    27    28    29    1
    28     9     4   ar
    29    29    24    1
    30    19    20    1
@<TRIPOS>MOLECULE
*****
 29 30 0 0 0
SMALL
GASTEIGER

@<TRIPOS>ATOM
      1 C         -13.1240   -7.5561   18.1080 C.3     1  UNL1        0.2969
      2 F         -13.6666   -6.9243   19.3555 F       1  UNL1       -0.1981
      3 F         -12.5815   -8.1879   16.8604 F       1  UNL1       -0.1981
      4 C         -11.9447   -6.6301   18.1518 C.ar    1  UNL1        0.0422
      5 C         -10.7105   -7.0228   18.9084 C.ar    1  UNL1        0.0012
      6 C          -9.5313   -6.0968   18.9522 C.ar    1  UNL1        0.0030
      7 C          -9.5863   -4.7781   18.2394 C.ar    1  UNL1        0.0369
      8 C         -10.8205   -4.3854   17.4829 C.ar    1  UNL1        0.1384
      9 C         -11.9997   -5.3114   17.4391 C.ar    1  UNL1        0.0379
     10 O         -10.8755   -3.0667   16.7702 O.3     1  UNL1       -0.4755
     11 C         -11.2885   -1.8300   17.5117 C.3     1  UNL1        0.2057
     12 C         -11.7695   -1.9308   18.9289 C.3     1  UNL1        0.0561
     13 C         -13.2393   -2.0069   19.2185 C.3     1  UNL1        0.1072
     14 C         -13.7482   -2.9425   20.2748 C.3     1  UNL1        0.3979
     15 F         -14.2571   -3.8782   21.3310 F       1  UNL1       -0.1700
     16 F         -15.0029   -2.1287   20.3912 F       1  UNL1       -0.1700
     17 F         -12.4935   -3.7563   20.1584 F       1  UNL1       -0.1700
     18 C         -14.3032   -8.4820   18.0641 C.3     1  UNL1        0.1409
     19 N         -14.8267   -9.0904   19.3313 N.3     1  UNL1       -0.2850
     20 H         -14.5644  -10.0760   19.3150 H       1  UNL1        0.1239
     21 C         -16.2941   -9.0378   19.6382 C.3     1  UNL1        0.1553
     22 O         -17.9288   -9.4406   17.6595 O.2     1  UNL1       -0.2734
     23 C         -17.2550   -8.5037   18.6178 C.2     1  UNL1        0.2419
     24 N         -17.5422   -7.0328   18.5556 N.am    1  UNL1       -0.2733
     25 C         -16.8684   -6.0960   19.5139 C.3     1  UNL1        0.1255
     26 C         -17.1556   -4.6250   19.4518 C.3     1  UNL1        0.1636
     27 O         -18.1166   -4.0909   18.4314 O.3     1  UNL1       -0.3501
     28 C         -18.7903   -5.0278   17.4730 C.3     1  UNL1        0.1636
     29 C         -18.5032   -6.4987   17.5352 C.3     1  UNL1        0.1255
@<TRIPOS>BOND
     1    22    23    2
     2    23    21    1
     3    21    19    1
     4    19    18    1
     5    18     1    1
     6     1     2    1
     7     1     3    1
     8     1     4    1
     9     4     5   ar
    10     5     6   ar
    11     6     7   ar
    12     7     8   ar
    13     8    10    1
    14    10    11    1
    15    11    12    1
    16    12    13    1
    17    13    14    1
    18    14    15    1
    19    14    16    1
    20    14    17    1
    21     8     9   ar
    22    23    24   am
    23    24    25    1
    24    25    26    1
    25    26    27    1
    26    27    28    1
    27    28    29    1
    28     9     4   ar
    29    29    24    1
    30    19    20    1
