@<TRIPOS>MOLECULE
*****
 21 23 0 0 0
SMALL
GASTEIGER

@<TRIPOS>ATOM
      1 O          -3.6375  -18.8667   23.7666 O.2     1  UNL1       -0.2863
      2 C          -4.2974  -18.8434   22.4197 C.ar    1  UNL1        0.2046
      3 C          -5.7744  -19.0782   22.3040 C.ar    1  UNL1        0.0797
      4 C          -6.4343  -19.0549   20.9572 C.ar    1  UNL1        0.1484
      5 O          -5.6173  -18.7968   19.7261 O.2     1  UNL1       -0.4531
      6 C          -4.1403  -18.5619   19.8417 C.ar    1  UNL1        0.1543
      7 C          -3.3232  -18.3037   18.6105 C.ar    1  UNL1        0.0744
      8 C          -1.8463  -18.0688   18.7262 C.ar    1  UNL1        0.1397
      9 O          -1.0292  -17.8106   17.4950 O.3     1  UNL1       -0.5053
     10 C          -1.1864  -18.0921   20.0731 C.ar    1  UNL1        0.0735
     11 C          -2.0034  -18.3503   21.3042 C.ar    1  UNL1        0.1427
     12 O          -1.3435  -18.3736   22.6510 O.3     1  UNL1       -0.5052
     13 C          -3.4804  -18.5852   21.1886 C.ar    1  UNL1        0.1073
     14 H          -1.4414  -17.7961   16.6537 H       1  UNL1        0.2922
     15 H          -0.4209  -18.2268   22.7233 H       1  UNL1        0.2922
     16 C          -7.9113  -19.2899   20.8416 C.ar    1  UNL1        0.0347
     17 C          -8.7646  -19.3211   22.0749 C.ar    1  UNL1        0.0030
     18 C         -10.2415  -19.5560   21.9593 C.ar    1  UNL1        0.0001
     19 C         -10.8653  -19.7596   20.6103 C.ar    1  UNL1        0.0000
     20 C         -10.0121  -19.7284   19.3771 C.ar    1  UNL1        0.0001
     21 C          -8.5350  -19.4935   19.4927 C.ar    1  UNL1        0.0030
@<TRIPOS>BOND
     1     1     2    2
     2     2     3   ar
     3     3     4   ar
     4     4    16    1
     5    16    17   ar
     6    17    18   ar
     7    18    19   ar
     8    19    20   ar
     9    20    21   ar
    10     4     5   ar
    11     5     6   ar
    12     6     7   ar
    13     7     8   ar
    14     8     9    1
    15     8    10   ar
    16    10    11   ar
    17    11    12    1
    18    11    13   ar
    19    13     2   ar
    20    21    16   ar
    21    13     6   ar
    22     9    14    1
    23    12    15    1
@<TRIPOS>MOLECULE
*****
 21 23 0 0 0
SMALL
GASTEIGER

@<TRIPOS>ATOM
      1 O         -10.5405  -19.7593   24.5819 O.2     1  UNL1       -0.2863
      2 C          -9.8822  -19.2308   23.3421 C.ar    1  UNL1        0.2046
      3 C          -8.4549  -19.5819   23.0429 C.ar    1  UNL1        0.0797
      4 C          -7.7966  -19.0534   21.8030 C.ar    1  UNL1        0.1484
      5 O          -8.5655  -18.1738   20.8623 O.2     1  UNL1       -0.4531
      6 C          -9.9928  -17.8227   21.1615 C.ar    1  UNL1        0.1543
      7 C         -10.7619  -16.9431   20.2207 C.ar    1  UNL1        0.0744
      8 C         -12.1891  -16.5920   20.5199 C.ar    1  UNL1        0.1397
      9 O         -12.9582  -15.7124   19.5792 O.3     1  UNL1       -0.5053
     10 C         -12.8475  -17.1205   21.7598 C.ar    1  UNL1        0.0735
     11 C         -12.0785  -18.0001   22.7005 C.ar    1  UNL1        0.1427
     12 O         -12.7368  -18.5286   23.9404 O.3     1  UNL1       -0.5052
     13 C         -10.6511  -18.3512   22.4013 C.ar    1  UNL1        0.1073
     14 H         -12.5470  -15.3822   18.8047 H       1  UNL1        0.2922
     15 H         -13.6284  -18.3092   24.1273 H       1  UNL1        0.2922
     16 C          -6.3692  -19.4045   21.5039 C.ar    1  UNL1        0.0347
     17 C          -6.0480  -20.3466   20.3817 C.ar    1  UNL1        0.0030
     18 C          -4.6207  -20.6978   20.0826 C.ar    1  UNL1        0.0001
     19 C          -3.5146  -20.1068   20.9055 C.ar    1  UNL1        0.0000
     20 C          -3.8358  -19.1646   22.0277 C.ar    1  UNL1        0.0001
     21 C          -5.2631  -18.8135   22.3268 C.ar    1  UNL1        0.0030
@<TRIPOS>BOND
     1     1     2    2
     2     2     3   ar
     3     3     4   ar
     4     4    16    1
     5    16    17   ar
     6    17    18   ar
     7    18    19   ar
     8    19    20   ar
     9    20    21   ar
    10     4     5   ar
    11     5     6   ar
    12     6     7   ar
    13     7     8   ar
    14     8     9    1
    15     8    10   ar
    16    10    11   ar
    17    11    12    1
    18    11    13   ar
    19    13     2   ar
    20    21    16   ar
    21    13     6   ar
    22     9    14    1
    23    12    15    1
@<TRIPOS>MOLECULE
*****
 21 23 0 0 0
SMALL
GASTEIGER

@<TRIPOS>ATOM
      1 O         -12.3921  -15.9261   22.5923 O.2     1  UNL1       -0.2863
      2 C         -10.9905  -16.4538   22.6769 C.ar    1  UNL1        0.2046
      3 C         -10.0809  -15.9935   23.7771 C.ar    1  UNL1        0.0797
      4 C          -8.6793  -16.5212   23.8617 C.ar    1  UNL1        0.1484
      5 O          -8.1874  -17.5093   22.8459 O.2     1  UNL1       -0.4531
      6 C          -9.0971  -17.9696   21.7457 C.ar    1  UNL1        0.1543
      7 C          -8.6052  -18.9577   20.7299 C.ar    1  UNL1        0.0744
      8 C          -9.5148  -19.4180   19.6296 C.ar    1  UNL1        0.1397
      9 O          -9.0230  -20.4061   18.6138 O.3     1  UNL1       -0.5053
     10 C         -10.9164  -18.8903   19.5451 C.ar    1  UNL1        0.0735
     11 C         -11.4083  -17.9022   20.5608 C.ar    1  UNL1        0.1427
     12 O         -12.8098  -17.3745   20.4763 O.3     1  UNL1       -0.5052
     13 C         -10.4986  -17.4419   21.6611 C.ar    1  UNL1        0.1073
     14 H          -8.1475  -20.7358   18.6666 H       1  UNL1        0.2922
     15 H         -13.3781  -17.6620   19.7890 H       1  UNL1        0.2922
     16 C          -7.7697  -16.0609   24.9620 C.ar    1  UNL1        0.0347
     17 C          -6.3665  -15.6349   24.6462 C.ar    1  UNL1        0.0030
     18 C          -5.4569  -15.1745   25.7464 C.ar    1  UNL1        0.0001
     19 C          -5.9504  -15.1402   27.1626 C.ar    1  UNL1        0.0000
     20 C          -7.3535  -15.5662   27.4784 C.ar    1  UNL1        0.0001
     21 C          -8.2632  -16.0266   26.3780 C.ar    1  UNL1        0.0030
@<TRIPOS>BOND
     1     1     2    2
     2     2     3   ar
     3     3     4   ar
     4     4    16    1
     5    16    17   ar
     6    17    18   ar
     7    18    19   ar
     8    19    20   ar
     9    20    21   ar
    10     4     5   ar
    11     5     6   ar
    12     6     7   ar
    13     7     8   ar
    14     8     9    1
    15     8    10   ar
    16    10    11   ar
    17    11    12    1
    18    11    13   ar
    19    13     2   ar
    20    21    16   ar
    21    13     6   ar
    22     9    14    1
    23    12    15    1
@<TRIPOS>MOLECULE
*****
 21 23 0 0 0
SMALL
GASTEIGER

@<TRIPOS>ATOM
      1 O          -8.0689  -19.9653   21.4197 O.2     1  UNL1       -0.2863
      2 C          -8.5124  -18.6307   21.9413 C.ar    1  UNL1        0.2046
      3 C          -7.8771  -18.0582   23.1736 C.ar    1  UNL1        0.0797
      4 C          -8.3206  -16.7235   23.6951 C.ar    1  UNL1        0.1484
      5 O          -9.3994  -15.9613   22.9843 O.2     1  UNL1       -0.4531
      6 C         -10.0346  -16.5338   21.7520 C.ar    1  UNL1        0.1543
      7 C         -11.1135  -15.7716   21.0411 C.ar    1  UNL1        0.0744
      8 C         -11.7487  -16.3441   19.8088 C.ar    1  UNL1        0.1397
      9 O         -12.8275  -15.5819   19.0979 O.3     1  UNL1       -0.5053
     10 C         -11.3052  -17.6787   19.2873 C.ar    1  UNL1        0.0735
     11 C         -10.2265  -18.4409   19.9981 C.ar    1  UNL1        0.1427
     12 O          -9.7830  -19.7756   19.4765 O.3     1  UNL1       -0.5052
     13 C          -9.5911  -17.8685   21.2305 C.ar    1  UNL1        0.1073
     14 H         -13.1046  -14.7482   19.4237 H       1  UNL1        0.2922
     15 H         -10.1798  -20.1332   18.7067 H       1  UNL1        0.2922
     16 C          -7.6853  -16.1511   24.9275 C.ar    1  UNL1        0.0347
     17 C          -6.2695  -15.6576   24.8813 C.ar    1  UNL1        0.0030
     18 C          -5.6342  -15.0852   26.1136 C.ar    1  UNL1        0.0001
     19 C          -6.4146  -15.0062   27.3922 C.ar    1  UNL1        0.0000
     20 C          -7.8304  -15.4996   27.4384 C.ar    1  UNL1        0.0001
     21 C          -8.4657  -16.0721   26.2060 C.ar    1  UNL1        0.0030
@<TRIPOS>BOND
     1     1     2    2
     2     2     3   ar
     3     3     4   ar
     4     4    16    1
     5    16    17   ar
     6    17    18   ar
     7    18    19   ar
     8    19    20   ar
     9    20    21   ar
    10     4     5   ar
    11     5     6   ar
    12     6     7   ar
    13     7     8   ar
    14     8     9    1
    15     8    10   ar
    16    10    11   ar
    17    11    12    1
    18    11    13   ar
    19    13     2   ar
    20    21    16   ar
    21    13     6   ar
    22     9    14    1
    23    12    15    1
@<TRIPOS>MOLECULE
*****
 21 23 0 0 0
SMALL
GASTEIGER

@<TRIPOS>ATOM
      1 O         -11.8703   -2.1671   19.5937 O.2     1  UNL1       -0.2863
      2 C         -12.6062   -3.4644   19.4338 C.ar    1  UNL1        0.2046
      3 C         -14.1016   -3.4972   19.5463 C.ar    1  UNL1        0.0797
      4 C         -14.8374   -4.7945   19.3865 C.ar    1  UNL1        0.1484
      5 O         -14.0779   -6.0590   19.1142 O.2     1  UNL1       -0.4531
      6 C         -12.5825   -6.0261   19.0018 C.ar    1  UNL1        0.1543
      7 C         -11.8228   -7.2906   18.7295 C.ar    1  UNL1        0.0744
      8 C         -10.3274   -7.2578   18.6170 C.ar    1  UNL1        0.1397
      9 O          -9.5678   -8.5223   18.3448 O.3     1  UNL1       -0.5053
     10 C          -9.5916   -5.9605   18.7768 C.ar    1  UNL1        0.0735
     11 C         -10.3512   -4.6960   19.0491 C.ar    1  UNL1        0.1427
     12 O          -9.6153   -3.3987   19.2089 O.3     1  UNL1       -0.5052
     13 C         -11.8466   -4.7288   19.1616 C.ar    1  UNL1        0.1073
     14 H         -10.0275   -9.3327   18.2449 H       1  UNL1        0.2922
     15 H          -8.6812   -3.3782   19.1387 H       1  UNL1        0.2922
     16 C         -16.3329   -4.8273   19.4990 C.ar    1  UNL1        0.0347
     17 C         -17.0715   -6.1181   19.3034 C.ar    1  UNL1        0.0030
     18 C         -18.5669   -6.1509   19.4159 C.ar    1  UNL1        0.0001
     19 C         -19.3237   -4.8929   19.7239 C.ar    1  UNL1        0.0000
     20 C         -18.5851   -3.6022   19.9194 C.ar    1  UNL1        0.0001
     21 C         -17.0896   -3.5694   19.8069 C.ar    1  UNL1        0.0030
@<TRIPOS>BOND
     1     1     2    2
     2     2     3   ar
     3     3     4   ar
     4     4    16    1
     5    16    17   ar
     6    17    18   ar
     7    18    19   ar
     8    19    20   ar
     9    20    21   ar
    10     4     5   ar
    11     5     6   ar
    12     6     7   ar
    13     7     8   ar
    14     8     9    1
    15     8    10   ar
    16    10    11   ar
    17    11    12    1
    18    11    13   ar
    19    13     2   ar
    20    21    16   ar
    21    13     6   ar
    22     9    14    1
    23    12    15    1
@<TRIPOS>MOLECULE
*****
 21 23 0 0 0
SMALL
GASTEIGER

@<TRIPOS>ATOM
      1 O         -15.2010  -10.8773   17.9930 O.2     1  UNL1       -0.2863
      2 C         -15.2709   -9.4587   18.4752 C.ar    1  UNL1        0.2046
      3 C         -14.0451   -8.5947   18.4440 C.ar    1  UNL1        0.0797
      4 C         -14.1150   -7.1760   18.9263 C.ar    1  UNL1        0.1484
      5 O         -15.4106   -6.6214   19.4398 O.2     1  UNL1       -0.4531
      6 C         -16.6364   -7.4854   19.4710 C.ar    1  UNL1        0.1543
      7 C         -17.9321   -6.9308   19.9845 C.ar    1  UNL1        0.0744
      8 C         -19.1578   -7.7948   20.0158 C.ar    1  UNL1        0.1397
      9 O         -20.4535   -7.2401   20.5293 O.3     1  UNL1       -0.5053
     10 C         -19.0879   -9.2134   19.5335 C.ar    1  UNL1        0.0735
     11 C         -17.7923   -9.7680   19.0200 C.ar    1  UNL1        0.1427
     12 O         -17.7224  -11.1867   18.5378 O.3     1  UNL1       -0.5052
     13 C         -16.5665   -8.9040   18.9888 C.ar    1  UNL1        0.1073
     14 H         -20.4972   -6.3540   20.8306 H       1  UNL1        0.2922
     15 H         -18.4881  -11.7264   18.5573 H       1  UNL1        0.2922
     16 C         -12.8892   -6.3120   18.8950 C.ar    1  UNL1        0.0347
     17 C         -13.0111   -4.8299   19.0915 C.ar    1  UNL1        0.0030
     18 C         -11.7853   -3.9659   19.0603 C.ar    1  UNL1        0.0001
     19 C         -10.4376   -4.5840   18.8325 C.ar    1  UNL1        0.0000
     20 C         -10.3158   -6.0660   18.6359 C.ar    1  UNL1        0.0001
     21 C         -11.5416   -6.9300   18.6672 C.ar    1  UNL1        0.0030
@<TRIPOS>BOND
     1     1     2    2
     2     2     3   ar
     3     3     4   ar
     4     4    16    1
     5    16    17   ar
     6    17    18   ar
     7    18    19   ar
     8    19    20   ar
     9    20    21   ar
    10     4     5   ar
    11     5     6   ar
    12     6     7   ar
    13     7     8   ar
    14     8     9    1
    15     8    10   ar
    16    10    11   ar
    17    11    12    1
    18    11    13   ar
    19    13     2   ar
    20    21    16   ar
    21    13     6   ar
    22     9    14    1
    23    12    15    1
@<TRIPOS>MOLECULE
*****
 21 23 0 0 0
SMALL
GASTEIGER

@<TRIPOS>ATOM
      1 O          -5.6045  -15.6700   24.1570 O.2     1  UNL1       -0.2863
      2 C          -6.4695  -16.6929   23.4820 C.ar    1  UNL1        0.2046
      3 C          -7.9592  -16.6443   23.6506 C.ar    1  UNL1        0.0797
      4 C          -8.8242  -17.6671   22.9756 C.ar    1  UNL1        0.1484
      5 O          -8.1995  -18.7385   22.1320 O.2     1  UNL1       -0.4531
      6 C          -6.7098  -18.7871   21.9633 C.ar    1  UNL1        0.1543
      7 C          -6.0851  -19.8585   21.1196 C.ar    1  UNL1        0.0744
      8 C          -4.5954  -19.9071   20.9509 C.ar    1  UNL1        0.1397
      9 O          -3.9707  -20.9786   20.1072 O.3     1  UNL1       -0.5053
     10 C          -3.7304  -18.8843   21.6259 C.ar    1  UNL1        0.0735
     11 C          -4.3551  -17.8129   22.4696 C.ar    1  UNL1        0.1427
     12 O          -3.4901  -16.7901   23.1446 O.3     1  UNL1       -0.5052
     13 C          -5.8448  -17.7643   22.6383 C.ar    1  UNL1        0.1073
     14 H          -4.5110  -21.6175   19.6855 H       1  UNL1        0.2922
     15 H          -2.5595  -16.8204   23.0392 H       1  UNL1        0.2922
     16 C         -10.3139  -17.6185   23.1444 C.ar    1  UNL1        0.0347
     17 C         -11.1208  -16.6007   22.3941 C.ar    1  UNL1        0.0030
     18 C         -12.6105  -16.5520   22.5627 C.ar    1  UNL1        0.0001
     19 C         -13.2933  -17.5212   23.4817 C.ar    1  UNL1        0.0000
     20 C         -12.4864  -18.5390   24.2320 C.ar    1  UNL1        0.0001
     21 C         -10.9966  -18.5876   24.0633 C.ar    1  UNL1        0.0030
@<TRIPOS>BOND
     1     1     2    2
     2     2     3   ar
     3     3     4   ar
     4     4    16    1
     5    16    17   ar
     6    17    18   ar
     7    18    19   ar
     8    19    20   ar
     9    20    21   ar
    10     4     5   ar
    11     5     6   ar
    12     6     7   ar
    13     7     8   ar
    14     8     9    1
    15     8    10   ar
    16    10    11   ar
    17    11    12    1
    18    11    13   ar
    19    13     2   ar
    20    21    16   ar
    21    13     6   ar
    22     9    14    1
    23    12    15    1
@<TRIPOS>MOLECULE
*****
 21 23 0 0 0
SMALL
GASTEIGER

@<TRIPOS>ATOM
      1 O         -10.2131   -6.0167   19.1310 O.2     1  UNL1       -0.2863
      2 C         -11.6867   -5.7609   19.0170 C.ar    1  UNL1        0.2046
      3 C         -12.6487   -6.9117   19.0025 C.ar    1  UNL1        0.0797
      4 C         -14.1224   -6.6560   18.8885 C.ar    1  UNL1        0.1484
      5 O         -14.6340   -5.2495   18.7891 O.2     1  UNL1       -0.4531
      6 C         -13.6720   -4.0987   18.8036 C.ar    1  UNL1        0.1543
      7 C         -14.1837   -2.6921   18.7042 C.ar    1  UNL1        0.0744
      8 C         -13.2217   -1.5414   18.7187 C.ar    1  UNL1        0.1397
      9 O         -13.7333   -0.1348   18.6192 O.3     1  UNL1       -0.5053
     10 C         -11.7480   -1.7971   18.8326 C.ar    1  UNL1        0.0735
     11 C         -11.2364   -3.2036   18.9321 C.ar    1  UNL1        0.1427
     12 O          -9.7627   -3.4593   19.0460 O.3     1  UNL1       -0.5052
     13 C         -12.1984   -4.3544   18.9176 C.ar    1  UNL1        0.1073
     14 H         -14.6538    0.0250   18.5480 H       1  UNL1        0.2922
     15 H          -9.1618   -2.7404   19.0551 H       1  UNL1        0.2922
     16 C         -15.0844   -7.8069   18.8740 C.ar    1  UNL1        0.0347
     17 C         -14.7427   -9.0605   18.1246 C.ar    1  UNL1        0.0030
     18 C         -15.7046  -10.2113   18.1101 C.ar    1  UNL1        0.0001
     19 C         -17.0083  -10.1085   18.8450 C.ar    1  UNL1        0.0000
     20 C         -17.3499   -8.8549   19.5944 C.ar    1  UNL1        0.0001
     21 C         -16.3879   -7.7040   19.6089 C.ar    1  UNL1        0.0030
@<TRIPOS>BOND
     1     1     2    2
     2     2     3   ar
     3     3     4   ar
     4     4    16    1
     5    16    17   ar
     6    17    18   ar
     7    18    19   ar
     8    19    20   ar
     9    20    21   ar
    10     4     5   ar
    11     5     6   ar
    12     6     7   ar
    13     7     8   ar
    14     8     9    1
    15     8    10   ar
    16    10    11   ar
    17    11    12    1
    18    11    13   ar
    19    13     2   ar
    20    21    16   ar
    21    13     6   ar
    22     9    14    1
    23    12    15    1
@<TRIPOS>MOLECULE
*****
 21 23 0 0 0
SMALL
GASTEIGER

@<TRIPOS>ATOM
      1 O         -17.4382   -4.6916   19.9629 O.2     1  UNL1       -0.2863
      2 C         -16.3829   -5.6963   19.6067 C.ar    1  UNL1        0.2046
      3 C         -14.9483   -5.2715   19.5006 C.ar    1  UNL1        0.0797
      4 C         -13.8930   -6.2762   19.1444 C.ar    1  UNL1        0.1484
      5 O         -14.2723   -7.7057   18.8944 O.2     1  UNL1       -0.4531
      6 C         -15.7069   -8.1305   19.0006 C.ar    1  UNL1        0.1543
      7 C         -16.0863   -9.5601   18.7506 C.ar    1  UNL1        0.0744
      8 C         -17.5209   -9.9849   18.8568 C.ar    1  UNL1        0.1397
      9 O         -17.9002  -11.4145   18.6067 O.3     1  UNL1       -0.5053
     10 C         -18.5762   -8.9802   19.2129 C.ar    1  UNL1        0.0735
     11 C         -18.1969   -7.5507   19.4629 C.ar    1  UNL1        0.1427
     12 O         -19.2522   -6.5460   19.8191 O.3     1  UNL1       -0.5052
     13 C         -16.7622   -7.1258   19.3568 C.ar    1  UNL1        0.1073
     14 H         -17.2410  -12.0422   18.3843 H       1  UNL1        0.2922
     15 H         -20.1484   -6.8114   19.8854 H       1  UNL1        0.2922
     16 C         -12.4583   -5.8513   19.0383 C.ar    1  UNL1        0.0347
     17 C         -12.1096   -4.3932   18.9888 C.ar    1  UNL1        0.0030
     18 C         -10.6750   -3.9683   18.8826 C.ar    1  UNL1        0.0001
     19 C          -9.5890   -5.0015   18.8259 C.ar    1  UNL1        0.0000
     20 C          -9.9376   -6.4596   18.8754 C.ar    1  UNL1        0.0001
     21 C         -11.3723   -6.8845   18.9816 C.ar    1  UNL1        0.0030
@<TRIPOS>BOND
     1     1     2    2
     2     2     3   ar
     3     3     4   ar
     4     4    16    1
     5    16    17   ar
     6    17    18   ar
     7    18    19   ar
     8    19    20   ar
     9    20    21   ar
    10     4     5   ar
    11     5     6   ar
    12     6     7   ar
    13     7     8   ar
    14     8     9    1
    15     8    10   ar
    16    10    11   ar
    17    11    12    1
    18    11    13   ar
    19    13     2   ar
    20    21    16   ar
    21    13     6   ar
    22     9    14    1
    23    12    15    1
