@<TRIPOS>MOLECULE
*****
 44 48 0 0 0
SMALL
GASTEIGER

@<TRIPOS>ATOM
      1 N           0.8589    1.8327   24.2581 N.am    1  UNL1       -0.2741
      2 C           2.0836    1.3305   23.5525 C.2     1  UNL1        0.2303
      3 O           2.7823    2.2016   22.5509 O.2     1  UNL1       -0.2745
      4 C           1.2218    4.4021   24.1314 C.3     1  UNL1        0.0297
      5 C           0.3328    3.2059   23.9622 C.3     1  UNL1        0.1325
      6 C          -1.0823    3.3828   23.4971 C.ar    1  UNL1        0.1462
      7 N          -2.1727    3.6412   24.4941 N.ar    1  UNL1       -0.2114
      8 C          -3.5878    3.8182   24.0290 C.ar    1  UNL1        0.1682
      9 N          -4.6782    4.0766   25.0260 N.ar    1  UNL1       -0.2249
     10 C          -6.0932    4.2535   24.5609 C.ar    1  UNL1        0.1006
     11 C          -6.4178    4.1720   23.0987 C.ar    1  UNL1        0.0209
     12 C          -5.3274    3.9136   22.1016 C.ar    1  UNL1        0.0094
     13 C          -3.9124    3.7367   22.5668 C.ar    1  UNL1        0.0923
     14 C          -2.8219    3.4782   21.5697 C.ar    1  UNL1        0.2685
     15 O          -3.1464    3.3967   20.1075 O.2     1  UNL1       -0.2665
     16 N          -1.4068    3.3013   22.0349 N.ar    1  UNL1       -0.2612
     17 C          -0.3163    3.0429   21.0378 C.ar    1  UNL1        0.0680
     18 C          -0.1222    1.6644   20.4791 C.ar    1  UNL1        0.0185
     19 C           0.9682    1.4059   19.4821 C.ar    1  UNL1        0.0129
     20 C           1.8646    2.5259   19.0438 C.ar    1  UNL1        0.0578
     21 CL          2.9551    2.2675   18.0467 Cl      1  UNL1       -0.0822
     22 C           1.6705    3.9044   19.6025 C.ar    1  UNL1        0.0129
     23 C           0.5800    4.1628   20.5995 C.ar    1  UNL1        0.0185
     24 C           0.1602    0.9616   25.2597 C.3     1  UNL1        0.0938
     25 C           0.3770    1.1837   26.7272 C.3     1  UNL1        0.0234
     26 C          -0.6349    0.6894   27.7180 C.3     1  UNL1        0.0271
     27 C          -0.4182    0.9115   29.1856 C.3     1  UNL1        0.1509
     28 S           0.8104    1.6278   29.6623 S.O2    1  UNL1       -0.0100
     29 O           1.8080    2.2472   30.5958 O.2     1  UNL1       -0.1730
     30 O           0.1449    1.3486   30.9774 O.2     1  UNL1       -0.1730
     31 C           1.8223    2.1220   28.6716 C.3     1  UNL1        0.1509
     32 C           1.6056    1.9000   27.2040 C.3     1  UNL1        0.0271
     33 C           2.6097   -0.0427   23.8484 C.3     1  UNL1        0.1116
     34 C           3.0377   -0.9400   22.7253 C.ar    1  UNL1       -0.0109
     35 C           2.4476   -0.7634   21.3576 C.ar    1  UNL1       -0.0037
     36 C           2.8758   -1.6608   20.2344 C.ar    1  UNL1        0.0058
     37 C           3.8940   -2.7347   20.4789 C.ar    1  UNL1        0.0988
     38 C           4.4841   -2.9113   21.8466 C.ar    1  UNL1        0.1437
     39 F           5.5023   -3.9853   22.0911 F       1  UNL1       -0.2042
     40 C           4.0560   -2.0140   22.9697 C.ar    1  UNL1        0.0258
     41 C           4.3221   -3.6320   19.3558 C.3     1  UNL1        0.4207
     42 F           4.7501   -4.5294   18.2325 F       1  UNL1       -0.1658
     43 F           5.6756   -2.9857   19.3553 F       1  UNL1       -0.1658
     44 F           2.9685   -4.2783   19.3562 F       1  UNL1       -0.1658
@<TRIPOS>BOND
     1     5     4    1
     2     5     6    1
     3     6     7   ar
     4     7     8   ar
     5     8     9   ar
     6     9    10   ar
     7    10    11   ar
     8    11    12   ar
     9    12    13   ar
    10    13    14   ar
    11    14    15    2
    12    14    16   ar
    13    16    17    1
    14    17    18   ar
    15    18    19   ar
    16    19    20   ar
    17    20    21    1
    18    20    22   ar
    19    22    23   ar
    20     5     1    1
    21     1    24    1
    22    24    25    1
    23    25    26    1
    24    26    27    1
    25    27    28    1
    26    28    29    2
    27    28    30    2
    28    28    31    1
    29    31    32    1
    30     1     2   am
    31     2     3    2
    32     2    33    1
    33    33    34    1
    34    34    35   ar
    35    35    36   ar
    36    36    37   ar
    37    37    41    1
    38    41    42    1
    39    41    43    1
    40    41    44    1
    41    37    38   ar
    42    38    39    1
    43    38    40   ar
    44    16     6   ar
    45    23    17   ar
    46    32    25    1
    47    40    34   ar
    48    13     8   ar
@<TRIPOS>MOLECULE
*****
 44 48 0 0 0
SMALL
GASTEIGER

@<TRIPOS>ATOM
      1 N           3.0000    1.2647   31.8442 N.am    1  UNL1       -0.2741
      2 C           3.2695    0.1622   30.8633 C.2     1  UNL1        0.2303
      3 O           4.6819   -0.2337   30.5496 O.2     1  UNL1       -0.2745
      4 C           5.2013    2.6350   31.6812 C.3     1  UNL1        0.0297
      5 C           4.1428    1.9712   32.5112 C.3     1  UNL1        0.1325
      6 C           4.2270    2.0138   34.0083 C.ar    1  UNL1        0.1462
      7 N           3.7597    3.2300   34.7514 N.ar    1  UNL1       -0.2114
      8 C           3.8439    3.2726   36.2485 C.ar    1  UNL1        0.1682
      9 N           3.3765    4.4888   36.9917 N.ar    1  UNL1       -0.2249
     10 C           3.4608    4.5314   38.4887 C.ar    1  UNL1        0.1006
     11 C           4.0125    3.3578   39.2425 C.ar    1  UNL1        0.0209
     12 C           4.4799    2.1416   38.4993 C.ar    1  UNL1        0.0094
     13 C           4.3956    2.0990   37.0023 C.ar    1  UNL1        0.0923
     14 C           4.8630    0.8827   36.2591 C.ar    1  UNL1        0.2685
     15 O           5.4147   -0.2909   37.0129 O.2     1  UNL1       -0.2665
     16 N           4.7787    0.8402   34.7621 N.ar    1  UNL1       -0.2612
     17 C           5.2461   -0.3761   34.0188 C.ar    1  UNL1        0.0680
     18 C           4.3188   -1.5391   33.8252 C.ar    1  UNL1        0.0185
     19 C           4.7862   -2.7553   33.0820 C.ar    1  UNL1        0.0129
     20 C           6.1808   -2.8085   32.5324 C.ar    1  UNL1        0.0578
     21 CL          6.6482   -4.0247   31.7892 Cl      1  UNL1       -0.0822
     22 C           7.1081   -1.6455   32.7261 C.ar    1  UNL1        0.0129
     23 C           6.6408   -0.4293   33.4693 C.ar    1  UNL1        0.0185
     24 C           1.5876    1.6607   32.1579 C.3     1  UNL1        0.0938
     25 C           1.0986    3.0349   31.8080 C.3     1  UNL1        0.0234
     26 C           1.0152    3.4580   30.3714 C.3     1  UNL1        0.0271
     27 C           0.5262    4.8322   30.0214 C.3     1  UNL1        0.1509
     28 S           0.1206    5.7833   31.1081 S.O2    1  UNL1       -0.0100
     29 O          -0.3736    7.0319   31.7765 O.2     1  UNL1       -0.1730
     30 O          -0.1345    6.6401   29.9036 O.2     1  UNL1       -0.1730
     31 C           0.2040    5.3601   32.5448 C.3     1  UNL1        0.1509
     32 C           0.6930    3.9859   32.8947 C.3     1  UNL1        0.0271
     33 C           2.1267   -0.5442   30.1963 C.3     1  UNL1        0.1116
     34 C           1.3857    0.1211   29.0747 C.ar    1  UNL1       -0.0109
     35 C          -0.1118    0.0535   29.0210 C.ar    1  UNL1       -0.0037
     36 C          -0.8529    0.7189   27.8993 C.ar    1  UNL1        0.0058
     37 C          -0.0965    1.4519   26.8314 C.ar    1  UNL1        0.0988
     38 C           1.4010    1.5196   26.8851 C.ar    1  UNL1        0.1437
     39 F           2.1575    2.2525   25.8172 F       1  UNL1       -0.2042
     40 C           2.1421    0.8542   28.0067 C.ar    1  UNL1        0.0258
     41 C          -0.8375    2.1173   25.7098 C.3     1  UNL1        0.4207
     42 F          -1.5786    2.7826   24.5880 F       1  UNL1       -0.1658
     43 F          -1.4506    3.0781   26.6848 F       1  UNL1       -0.1658
     44 F          -0.2244    1.1564   24.7347 F       1  UNL1       -0.1658
@<TRIPOS>BOND
     1     5     4    1
     2     5     6    1
     3     6     7   ar
     4     7     8   ar
     5     8     9   ar
     6     9    10   ar
     7    10    11   ar
     8    11    12   ar
     9    12    13   ar
    10    13    14   ar
    11    14    15    2
    12    14    16   ar
    13    16    17    1
    14    17    18   ar
    15    18    19   ar
    16    19    20   ar
    17    20    21    1
    18    20    22   ar
    19    22    23   ar
    20     5     1    1
    21     1    24    1
    22    24    25    1
    23    25    26    1
    24    26    27    1
    25    27    28    1
    26    28    29    2
    27    28    30    2
    28    28    31    1
    29    31    32    1
    30     1     2   am
    31     2     3    2
    32     2    33    1
    33    33    34    1
    34    34    35   ar
    35    35    36   ar
    36    36    37   ar
    37    37    41    1
    38    41    42    1
    39    41    43    1
    40    41    44    1
    41    37    38   ar
    42    38    39    1
    43    38    40   ar
    44    16     6   ar
    45    23    17   ar
    46    32    25    1
    47    40    34   ar
    48    13     8   ar
@<TRIPOS>MOLECULE
*****
 44 48 0 0 0
SMALL
GASTEIGER

@<TRIPOS>ATOM
      1 N           4.4235    0.0637   23.8182 N.am    1  UNL1       -0.2741
      2 C           4.0947    1.3721   24.4741 C.2     1  UNL1        0.2303
      3 O           5.1802    2.1806   25.1206 O.2     1  UNL1       -0.2745
      4 C           6.8289    0.1357   22.8390 C.3     1  UNL1        0.0297
      5 C           5.8377   -0.4361   23.8088 C.3     1  UNL1        0.1325
      6 C           6.2609   -1.5077   24.7694 C.ar    1  UNL1        0.1462
      7 N           6.5981   -1.1534   26.1874 N.ar    1  UNL1       -0.2114
      8 C           7.0212   -2.2251   27.1479 C.ar    1  UNL1        0.1682
      9 N           7.3584   -1.8707   28.5659 N.ar    1  UNL1       -0.2249
     10 C           7.7815   -2.9424   29.5264 C.ar    1  UNL1        0.1006
     11 C           7.8673   -4.3683   29.0689 C.ar    1  UNL1        0.0209
     12 C           7.5301   -4.7226   27.6509 C.ar    1  UNL1        0.0094
     13 C           7.1070   -3.6510   26.6904 C.ar    1  UNL1        0.0923
     14 C           6.7698   -4.0053   25.2724 C.ar    1  UNL1        0.2685
     15 O           6.8556   -5.4312   24.8149 O.2     1  UNL1       -0.2665
     16 N           6.3467   -2.9337   24.3119 N.ar    1  UNL1       -0.2612
     17 C           6.0095   -3.2880   22.8938 C.ar    1  UNL1        0.0680
     18 C           4.6150   -3.7109   22.5378 C.ar    1  UNL1        0.0185
     19 C           4.2778   -4.0651   21.1198 C.ar    1  UNL1        0.0129
     20 C           5.3349   -3.9965   20.0579 C.ar    1  UNL1        0.0578
     21 CL          4.9976   -4.3508   18.6398 Cl      1  UNL1       -0.0822
     22 C           6.7293   -3.5736   20.4140 C.ar    1  UNL1        0.0129
     23 C           7.0666   -3.2193   21.8319 C.ar    1  UNL1        0.0185
     24 C           3.3380   -0.7448   23.1717 C.3     1  UNL1        0.0938
     25 C           2.9171   -0.4451   21.7635 C.3     1  UNL1        0.0234
     26 C           1.5041   -0.0329   21.4746 C.3     1  UNL1        0.0271
     27 C           1.0832    0.2668   20.0664 C.3     1  UNL1        0.1509
     28 S           2.0753    0.1543   18.9471 S.O2    1  UNL1       -0.0100
     29 O           2.6455    0.1891   17.5600 O.2     1  UNL1       -0.1730
     30 O           0.8603    0.5786   18.1765 O.2     1  UNL1       -0.1730
     31 C           3.4883   -0.2579   19.2359 C.3     1  UNL1        0.1509
     32 C           3.9092   -0.5576   20.6441 C.3     1  UNL1        0.0271
     33 C           2.6805    1.8719   24.4834 C.3     1  UNL1        0.1116
     34 C           1.7616    1.5017   25.6098 C.ar    1  UNL1       -0.0109
     35 C           0.3073    1.8624   25.5407 C.ar    1  UNL1       -0.0037
     36 C          -0.6116    1.4922   26.6672 C.ar    1  UNL1        0.0058
     37 C          -0.0760    0.7614   27.8626 C.ar    1  UNL1        0.0988
     38 C           1.3783    0.4007   27.9316 C.ar    1  UNL1        0.1437
     39 F           1.9138   -0.3301   29.1270 F       1  UNL1       -0.2042
     40 C           2.2971    0.7709   26.8053 C.ar    1  UNL1        0.0258
     41 C          -0.9949    0.3913   28.9889 C.3     1  UNL1        0.4207
     42 F          -1.9138    0.0211   30.1153 F       1  UNL1       -0.1658
     43 F          -0.4614    1.5348   29.7999 F       1  UNL1       -0.1658
     44 F          -1.5284   -0.7522   28.1779 F       1  UNL1       -0.1658
@<TRIPOS>BOND
     1     5     4    1
     2     5     6    1
     3     6     7   ar
     4     7     8   ar
     5     8     9   ar
     6     9    10   ar
     7    10    11   ar
     8    11    12   ar
     9    12    13   ar
    10    13    14   ar
    11    14    15    2
    12    14    16   ar
    13    16    17    1
    14    17    18   ar
    15    18    19   ar
    16    19    20   ar
    17    20    21    1
    18    20    22   ar
    19    22    23   ar
    20     5     1    1
    21     1    24    1
    22    24    25    1
    23    25    26    1
    24    26    27    1
    25    27    28    1
    26    28    29    2
    27    28    30    2
    28    28    31    1
    29    31    32    1
    30     1     2   am
    31     2     3    2
    32     2    33    1
    33    33    34    1
    34    34    35   ar
    35    35    36   ar
    36    36    37   ar
    37    37    41    1
    38    41    42    1
    39    41    43    1
    40    41    44    1
    41    37    38   ar
    42    38    39    1
    43    38    40   ar
    44    16     6   ar
    45    23    17   ar
    46    32    25    1
    47    40    34   ar
    48    13     8   ar
@<TRIPOS>MOLECULE
*****
 44 48 0 0 0
SMALL
GASTEIGER

@<TRIPOS>ATOM
      1 N           2.1529    1.8229   22.8587 N.am    1  UNL1       -0.2741
      2 C           3.5508    1.3951   22.5226 C.2     1  UNL1        0.2303
      3 O           4.4499    2.3121   21.7476 O.2     1  UNL1       -0.2745
      4 C           2.4067    4.4079   22.8017 C.3     1  UNL1        0.0297
      5 C           1.6542    3.1678   22.4199 C.3     1  UNL1        0.1325
      6 C           0.4030    3.2726   21.5992 C.ar    1  UNL1        0.1462
      7 N          -0.9234    3.4591   22.2744 N.ar    1  UNL1       -0.2114
      8 C          -2.1746    3.5638   21.4537 C.ar    1  UNL1        0.1682
      9 N          -3.5010    3.7503   22.1289 N.ar    1  UNL1       -0.2249
     10 C          -4.7522    3.8551   21.3082 C.ar    1  UNL1        0.1006
     11 C          -4.6770    3.7733   19.8124 C.ar    1  UNL1        0.0209
     12 C          -3.3506    3.5867   19.1372 C.ar    1  UNL1        0.0094
     13 C          -2.0994    3.4820   19.9578 C.ar    1  UNL1        0.0923
     14 C          -0.7730    3.2955   19.2827 C.ar    1  UNL1        0.2685
     15 O          -0.6978    3.2137   17.7868 O.2     1  UNL1       -0.2665
     16 N           0.4782    3.1908   20.1033 N.ar    1  UNL1       -0.2612
     17 C           1.8046    3.0042   19.4281 C.ar    1  UNL1        0.0680
     18 C           2.6554    4.1964   19.1040 C.ar    1  UNL1        0.0185
     19 C           3.9818    4.0099   18.4289 C.ar    1  UNL1        0.0129
     20 C           4.4574    2.6313   18.0778 C.ar    1  UNL1        0.0578
     21 CL          5.7839    2.4448   17.4027 Cl      1  UNL1       -0.0822
     22 C           3.6066    1.4392   18.4020 C.ar    1  UNL1        0.0129
     23 C           2.2802    1.6257   19.0771 C.ar    1  UNL1        0.0185
     24 C           1.2538    0.9059   23.6337 C.3     1  UNL1        0.0938
     25 C           1.1166    1.0684   25.1185 C.3     1  UNL1        0.0234
     26 C          -0.2307    1.3321   25.7228 C.3     1  UNL1        0.0271
     27 C          -0.3679    1.4946   27.2077 C.3     1  UNL1        0.1509
     28 S           0.8422    1.3935   28.0882 S.O2    1  UNL1       -0.0100
     29 O           1.6862    1.3826   29.3282 O.2     1  UNL1       -0.1730
     30 O          -0.2120    1.6534   29.1232 O.2     1  UNL1       -0.1730
     31 C           2.1895    1.1299   27.4839 C.3     1  UNL1        0.1509
     32 C           2.3267    0.9673   25.9991 C.3     1  UNL1        0.0271
     33 C           4.0495    0.0502   22.9614 C.3     1  UNL1        0.1116
     34 C           4.1717   -1.0656   21.9665 C.ar    1  UNL1       -0.0109
     35 C           3.0852   -1.2934   20.9578 C.ar    1  UNL1       -0.0037
     36 C           3.2074   -2.4093   19.9628 C.ar    1  UNL1        0.0058
     37 C           4.4162   -3.2974   19.9766 C.ar    1  UNL1        0.0988
     38 C           5.5027   -3.0696   20.9853 C.ar    1  UNL1        0.1437
     39 F           6.7115   -3.9576   20.9991 F       1  UNL1       -0.2042
     40 C           5.3805   -1.9537   21.9802 C.ar    1  UNL1        0.0258
     41 C           4.5384   -4.4132   18.9817 C.3     1  UNL1        0.4207
     42 F           4.6606   -5.5291   17.9867 F       1  UNL1       -0.1658
     43 F           5.4285   -3.5569   18.1306 F       1  UNL1       -0.1658
     44 F           3.6482   -5.2695   19.8327 F       1  UNL1       -0.1658
@<TRIPOS>BOND
     1     5     4    1
     2     5     6    1
     3     6     7   ar
     4     7     8   ar
     5     8     9   ar
     6     9    10   ar
     7    10    11   ar
     8    11    12   ar
     9    12    13   ar
    10    13    14   ar
    11    14    15    2
    12    14    16   ar
    13    16    17    1
    14    17    18   ar
    15    18    19   ar
    16    19    20   ar
    17    20    21    1
    18    20    22   ar
    19    22    23   ar
    20     5     1    1
    21     1    24    1
    22    24    25    1
    23    25    26    1
    24    26    27    1
    25    27    28    1
    26    28    29    2
    27    28    30    2
    28    28    31    1
    29    31    32    1
    30     1     2   am
    31     2     3    2
    32     2    33    1
    33    33    34    1
    34    34    35   ar
    35    35    36   ar
    36    36    37   ar
    37    37    41    1
    38    41    42    1
    39    41    43    1
    40    41    44    1
    41    37    38   ar
    42    38    39    1
    43    38    40   ar
    44    16     6   ar
    45    23    17   ar
    46    32    25    1
    47    40    34   ar
    48    13     8   ar
@<TRIPOS>MOLECULE
*****
 44 48 0 0 0
SMALL
GASTEIGER

@<TRIPOS>ATOM
      1 N           0.0480    2.1330   22.5260 N.am    1  UNL1       -0.2741
      2 C          -0.2617    1.7249   21.1161 C.2     1  UNL1        0.2303
      3 O          -1.0259    2.6516   20.2178 O.2     1  UNL1       -0.2745
      4 C           0.5703    4.6006   23.1488 C.3     1  UNL1        0.0297
      5 C          -0.4065    3.4678   23.0375 C.3     1  UNL1        0.1325
      6 C          -1.8381    3.6697   23.4376 C.ar    1  UNL1        0.1462
      7 N          -2.8793    3.9338   22.3908 N.ar    1  UNL1       -0.2114
      8 C          -4.3109    4.1357   22.7909 C.ar    1  UNL1        0.1682
      9 N          -5.3521    4.3998   21.7440 N.ar    1  UNL1       -0.2249
     10 C          -6.7836    4.6017   22.1442 C.ar    1  UNL1        0.1006
     11 C          -7.1737    4.5396   23.5913 C.ar    1  UNL1        0.0209
     12 C          -6.1324    4.2756   24.6381 C.ar    1  UNL1        0.0094
     13 C          -4.7010    4.0737   24.2380 C.ar    1  UNL1        0.0923
     14 C          -3.6596    3.8096   25.2848 C.ar    1  UNL1        0.2685
     15 O          -4.0498    3.7475   26.7319 O.2     1  UNL1       -0.2665
     16 N          -2.2282    3.6077   24.8847 N.ar    1  UNL1       -0.2612
     17 C          -1.1868    3.3436   25.9315 C.ar    1  UNL1        0.0680
     18 C          -0.5054    4.4904   26.6175 C.ar    1  UNL1        0.0185
     19 C           0.5360    4.2264   27.6644 C.ar    1  UNL1        0.0129
     20 C           0.8958    2.8156   28.0252 C.ar    1  UNL1        0.0578
     21 CL          1.9372    2.5516   29.0721 Cl      1  UNL1       -0.0822
     22 C           0.2144    1.6689   27.3392 C.ar    1  UNL1        0.0129
     23 C          -0.8270    1.9329   26.2924 C.ar    1  UNL1        0.0185
     24 C           0.8123    1.2062   23.4243 C.3     1  UNL1        0.0938
     25 C           2.2564    0.9122   23.1447 C.3     1  UNL1        0.0234
     26 C           3.1338    1.9688   22.5417 C.3     1  UNL1        0.0271
     27 C           4.5779    1.6748   22.2621 C.3     1  UNL1        0.1509
     28 S           5.1446    0.3242   22.5856 S.O2    1  UNL1       -0.0100
     29 O           6.1355   -0.7945   22.7152 O.2     1  UNL1       -0.1730
     30 O           6.3662    0.9923   22.0275 O.2     1  UNL1       -0.1730
     31 C           4.2672   -0.7324   23.1886 C.3     1  UNL1        0.1509
     32 C           2.8231   -0.4384   23.4682 C.3     1  UNL1        0.0271
     33 C           0.1929    0.3901   20.6047 C.3     1  UNL1        0.1116
     34 C           1.4782    0.2781   19.8395 C.ar    1  UNL1       -0.0109
     35 C           1.9833    1.4471   19.0467 C.ar    1  UNL1       -0.0037
     36 C           3.2686    1.3351   18.2815 C.ar    1  UNL1        0.0058
     37 C           4.0488    0.0543   18.3091 C.ar    1  UNL1        0.0988
     38 C           3.5436   -1.1147   19.1019 C.ar    1  UNL1        0.1437
     39 F           4.3238   -2.3955   19.1295 F       1  UNL1       -0.2042
     40 C           2.2584   -1.0027   19.8671 C.ar    1  UNL1        0.0258
     41 C           5.3340   -0.0577   17.5440 C.3     1  UNL1        0.4207
     42 F           6.6194   -0.1696   16.7788 F       1  UNL1       -0.1658
     43 F           4.5685   -0.4514   16.3156 F       1  UNL1       -0.1658
     44 F           6.0996    0.3361   18.7723 F       1  UNL1       -0.1658
@<TRIPOS>BOND
     1     5     4    1
     2     5     6    1
     3     6     7   ar
     4     7     8   ar
     5     8     9   ar
     6     9    10   ar
     7    10    11   ar
     8    11    12   ar
     9    12    13   ar
    10    13    14   ar
    11    14    15    2
    12    14    16   ar
    13    16    17    1
    14    17    18   ar
    15    18    19   ar
    16    19    20   ar
    17    20    21    1
    18    20    22   ar
    19    22    23   ar
    20     5     1    1
    21     1    24    1
    22    24    25    1
    23    25    26    1
    24    26    27    1
    25    27    28    1
    26    28    29    2
    27    28    30    2
    28    28    31    1
    29    31    32    1
    30     1     2   am
    31     2     3    2
    32     2    33    1
    33    33    34    1
    34    34    35   ar
    35    35    36   ar
    36    36    37   ar
    37    37    41    1
    38    41    42    1
    39    41    43    1
    40    41    44    1
    41    37    38   ar
    42    38    39    1
    43    38    40   ar
    44    16     6   ar
    45    23    17   ar
    46    32    25    1
    47    40    34   ar
    48    13     8   ar
@<TRIPOS>MOLECULE
*****
 44 48 0 0 0
SMALL
GASTEIGER

@<TRIPOS>ATOM
      1 N           3.8244    0.0565   30.3649 N.am    1  UNL1       -0.2741
      2 C           3.6322    0.9788   31.5322 C.2     1  UNL1        0.2303
      3 O           4.8157    1.6611   32.1517 O.2     1  UNL1       -0.2745
      4 C           6.0630    0.9779   29.4217 C.3     1  UNL1        0.0297
      5 C           5.2001   -0.1834   29.8172 C.3     1  UNL1        0.1325
      6 C           5.7128   -1.5849   29.6651 C.ar    1  UNL1        0.1462
      7 N           5.9247   -2.1616   28.2967 N.ar    1  UNL1       -0.2114
      8 C           6.4374   -3.5631   28.1445 C.ar    1  UNL1        0.1682
      9 N           6.6493   -4.1397   26.7762 N.ar    1  UNL1       -0.2249
     10 C           7.1620   -5.5411   26.6241 C.ar    1  UNL1        0.1006
     11 C           7.4628   -6.3658   27.8404 C.ar    1  UNL1        0.0209
     12 C           7.2509   -5.7892   29.2087 C.ar    1  UNL1        0.0094
     13 C           6.7382   -4.3878   29.3608 C.ar    1  UNL1        0.0923
     14 C           6.5263   -3.8110   30.7293 C.ar    1  UNL1        0.2685
     15 O           6.8271   -4.6357   31.9456 O.2     1  UNL1       -0.2665
     16 N           6.0136   -2.4096   30.8814 N.ar    1  UNL1       -0.2612
     17 C           5.8017   -1.8329   32.2498 C.ar    1  UNL1        0.0680
     18 C           4.5184   -2.0913   32.9821 C.ar    1  UNL1        0.0185
     19 C           4.3064   -1.5146   34.3505 C.ar    1  UNL1        0.0129
     20 C           5.3778   -0.6795   34.9865 C.ar    1  UNL1        0.0578
     21 CL          5.1659   -0.1027   36.3549 Cl      1  UNL1       -0.0822
     22 C           6.6611   -0.4210   34.2542 C.ar    1  UNL1        0.0129
     23 C           6.8731   -0.9977   32.8858 C.ar    1  UNL1        0.0185
     24 C           2.6409   -0.6257   29.7453 C.3     1  UNL1        0.0938
     25 C           1.8637    0.0589   28.6604 C.3     1  UNL1        0.0234
     26 C           0.4150    0.3872   28.8685 C.3     1  UNL1        0.0271
     27 C          -0.3623    1.0718   27.7835 C.3     1  UNL1        0.1509
     28 S           0.3091    1.4281   26.4904 S.O2    1  UNL1       -0.0100
     29 O           0.5005    1.9629   25.1021 O.2     1  UNL1       -0.1730
     30 O          -1.0732    1.9422   26.2164 O.2     1  UNL1       -0.1730
     31 C           1.7578    1.0997   26.2823 C.3     1  UNL1        0.1509
     32 C           2.5351    0.4151   27.3672 C.3     1  UNL1        0.0271
     33 C           2.2566    1.2188   32.0799 C.3     1  UNL1        0.1116
     34 C           2.0364    2.2813   33.1155 C.ar    1  UNL1       -0.0109
     35 C           1.2274    3.4992   32.7804 C.ar    1  UNL1       -0.0037
     36 C           1.0073    4.5617   33.8161 C.ar    1  UNL1        0.0058
     37 C           1.5962    4.4063   35.1869 C.ar    1  UNL1        0.0988
     38 C           2.4052    3.1885   35.5220 C.ar    1  UNL1        0.1437
     39 F           2.9941    3.0331   36.8928 F       1  UNL1       -0.2042
     40 C           2.6253    2.1260   34.4864 C.ar    1  UNL1        0.0258
     41 C           1.3760    5.4688   36.2225 C.3     1  UNL1        0.4207
     42 F           1.1559    6.5314   37.2582 F       1  UNL1       -0.1658
     43 F           0.6992    4.4652   37.1083 F       1  UNL1       -0.1658
     44 F           2.0529    6.4725   35.3367 F       1  UNL1       -0.1658
@<TRIPOS>BOND
     1     5     4    1
     2     5     6    1
     3     6     7   ar
     4     7     8   ar
     5     8     9   ar
     6     9    10   ar
     7    10    11   ar
     8    11    12   ar
     9    12    13   ar
    10    13    14   ar
    11    14    15    2
    12    14    16   ar
    13    16    17    1
    14    17    18   ar
    15    18    19   ar
    16    19    20   ar
    17    20    21    1
    18    20    22   ar
    19    22    23   ar
    20     5     1    1
    21     1    24    1
    22    24    25    1
    23    25    26    1
    24    26    27    1
    25    27    28    1
    26    28    29    2
    27    28    30    2
    28    28    31    1
    29    31    32    1
    30     1     2   am
    31     2     3    2
    32     2    33    1
    33    33    34    1
    34    34    35   ar
    35    35    36   ar
    36    36    37   ar
    37    37    41    1
    38    41    42    1
    39    41    43    1
    40    41    44    1
    41    37    38   ar
    42    38    39    1
    43    38    40   ar
    44    16     6   ar
    45    23    17   ar
    46    32    25    1
    47    40    34   ar
    48    13     8   ar
@<TRIPOS>MOLECULE
*****
 44 48 0 0 0
SMALL
GASTEIGER

@<TRIPOS>ATOM
      1 N           0.8510    1.2371   21.4728 N.am    1  UNL1       -0.2741
      2 C           1.0121    0.5039   20.1741 C.2     1  UNL1        0.2303
      3 O           0.7466    1.2088   18.8770 O.2     1  UNL1       -0.2745
      4 C           1.4398    3.7589   21.2625 C.3     1  UNL1        0.0297
      5 C           0.4245    2.6752   21.4743 C.3     1  UNL1        0.1325
      6 C          -1.0174    3.0296   21.6875 C.ar    1  UNL1        0.1462
      7 N          -1.9681    3.0343   20.5273 N.ar    1  UNL1       -0.2114
      8 C          -3.4100    3.3887   20.7405 C.ar    1  UNL1        0.1682
      9 N          -4.3606    3.3934   19.5803 N.ar    1  UNL1       -0.2249
     10 C          -5.8024    3.7478   19.7935 C.ar    1  UNL1        0.1006
     11 C          -6.2936    4.0975   21.1670 C.ar    1  UNL1        0.0209
     12 C          -5.3429    4.0928   22.3273 C.ar    1  UNL1        0.0094
     13 C          -3.9011    3.7384   22.1140 C.ar    1  UNL1        0.0923
     14 C          -2.9503    3.7338   23.2742 C.ar    1  UNL1        0.2685
     15 O          -3.4415    4.0835   24.6477 O.2     1  UNL1       -0.2665
     16 N          -1.5085    3.3794   23.0610 N.ar    1  UNL1       -0.2612
     17 C          -0.5578    3.3747   24.2212 C.ar    1  UNL1        0.0680
     18 C          -0.4813    2.1787   25.1234 C.ar    1  UNL1        0.0185
     19 C           0.4693    2.1740   26.2836 C.ar    1  UNL1        0.0129
     20 C           1.3436    3.3652   26.5416 C.ar    1  UNL1        0.0578
     21 CL          2.2944    3.3605   27.7019 Cl      1  UNL1       -0.0822
     22 C           1.2672    4.5612   25.6395 C.ar    1  UNL1        0.0129
     23 C           0.3165    4.5659   24.4793 C.ar    1  UNL1        0.0185
     24 C           1.1165    0.5323   22.7699 C.3     1  UNL1        0.0938
     25 C           2.5045    0.5045   23.3381 C.3     1  UNL1        0.0234
     26 C           3.1797    1.7849   23.7314 C.3     1  UNL1        0.0271
     27 C           4.5677    1.7571   24.2995 C.3     1  UNL1        0.1509
     28 S           5.2804    0.4489   24.4743 S.O2    1  UNL1       -0.0100
     29 O           6.3577   -0.5330   24.8284 O.2     1  UNL1       -0.1730
     30 O           6.3298    1.3883   24.9906 O.2     1  UNL1       -0.1730
     31 C           4.6053   -0.8314   24.0810 C.3     1  UNL1        0.1509
     32 C           3.2173   -0.8037   23.5129 C.3     1  UNL1        0.0271
     33 C           1.4386   -0.9341   20.1726 C.3     1  UNL1        0.1116
     34 C           2.8663   -1.2927   19.8843 C.ar    1  UNL1       -0.0109
     35 C           3.9392   -0.2507   19.9991 C.ar    1  UNL1       -0.0037
     36 C           5.3669   -0.6093   19.7108 C.ar    1  UNL1        0.0058
     37 C           5.7217   -2.0099   19.3077 C.ar    1  UNL1        0.0988
     38 C           4.6488   -3.0519   19.1929 C.ar    1  UNL1        0.1437
     39 F           5.0036   -4.4524   18.7898 F       1  UNL1       -0.2042
     40 C           3.2211   -2.6933   19.4812 C.ar    1  UNL1        0.0258
     41 C           7.1493   -2.3684   19.0194 C.3     1  UNL1        0.4207
     42 F           8.5771   -2.7270   18.7311 F       1  UNL1       -0.1658
     43 F           6.8381   -2.4290   17.5533 F       1  UNL1       -0.1658
     44 F           7.4606   -2.3078   20.4854 F       1  UNL1       -0.1658
@<TRIPOS>BOND
     1     5     4    1
     2     5     6    1
     3     6     7   ar
     4     7     8   ar
     5     8     9   ar
     6     9    10   ar
     7    10    11   ar
     8    11    12   ar
     9    12    13   ar
    10    13    14   ar
    11    14    15    2
    12    14    16   ar
    13    16    17    1
    14    17    18   ar
    15    18    19   ar
    16    19    20   ar
    17    20    21    1
    18    20    22   ar
    19    22    23   ar
    20     5     1    1
    21     1    24    1
    22    24    25    1
    23    25    26    1
    24    26    27    1
    25    27    28    1
    26    28    29    2
    27    28    30    2
    28    28    31    1
    29    31    32    1
    30     1     2   am
    31     2     3    2
    32     2    33    1
    33    33    34    1
    34    34    35   ar
    35    35    36   ar
    36    36    37   ar
    37    37    41    1
    38    41    42    1
    39    41    43    1
    40    41    44    1
    41    37    38   ar
    42    38    39    1
    43    38    40   ar
    44    16     6   ar
    45    23    17   ar
    46    32    25    1
    47    40    34   ar
    48    13     8   ar
@<TRIPOS>MOLECULE
*****
 44 48 0 0 0
SMALL
GASTEIGER

@<TRIPOS>ATOM
      1 N          -0.8826    3.1615   21.1603 N.am    1  UNL1       -0.2741
      2 C           0.3579    2.4857   20.6558 C.2     1  UNL1        0.2303
      3 O           1.6897    2.8112   21.2642 O.2     1  UNL1       -0.2745
      4 C          -0.7420    5.6292   21.9609 C.3     1  UNL1        0.0297
      5 C          -0.7912    4.1629   22.2734 C.3     1  UNL1        0.1325
      6 C          -0.7489    3.6980   23.6989 C.ar    1  UNL1        0.1462
      7 N           0.5475    3.2442   24.3017 N.ar    1  UNL1       -0.2114
      8 C           0.5898    2.7793   25.7272 C.ar    1  UNL1        0.1682
      9 N           1.8862    2.3255   26.3300 N.ar    1  UNL1       -0.2249
     10 C           1.9284    1.8606   27.7555 C.ar    1  UNL1        0.1006
     11 C           0.6743    1.8495   28.5782 C.ar    1  UNL1        0.0209
     12 C          -0.6222    2.3033   27.9755 C.ar    1  UNL1        0.0094
     13 C          -0.6644    2.7682   26.5500 C.ar    1  UNL1        0.0923
     14 C          -1.9609    3.2220   25.9472 C.ar    1  UNL1        0.2685
     15 O          -3.2150    3.2109   26.7699 O.2     1  UNL1       -0.2665
     16 N          -2.0031    3.6869   24.5217 N.ar    1  UNL1       -0.2612
     17 C          -3.2995    4.1407   23.9189 C.ar    1  UNL1        0.0680
     18 C          -3.6283    5.6031   23.8607 C.ar    1  UNL1        0.0185
     19 C          -4.9247    6.0569   23.2579 C.ar    1  UNL1        0.0129
     20 C          -5.8923    5.0484   22.7133 C.ar    1  UNL1        0.0578
     21 CL         -7.1888    5.5022   22.1105 Cl      1  UNL1       -0.0822
     22 C          -5.5635    3.5860   22.7715 C.ar    1  UNL1        0.0129
     23 C          -4.2671    3.1322   23.3743 C.ar    1  UNL1        0.0185
     24 C          -2.2144    2.8360   20.5519 C.3     1  UNL1        0.0938
     25 C          -2.8005    3.7357   19.5045 C.3     1  UNL1        0.0234
     26 C          -4.2850    3.9395   19.4363 C.3     1  UNL1        0.0271
     27 C          -4.8712    4.8393   18.3889 C.3     1  UNL1        0.1509
     28 S          -3.9728    5.5352   17.4099 S.O2    1  UNL1       -0.0100
     29 O          -3.5375    6.4071   16.2695 O.2     1  UNL1       -0.1730
     30 O          -5.3062    6.0418   16.9456 O.2     1  UNL1       -0.1730
     31 C          -2.4883    5.3314   17.4781 C.3     1  UNL1        0.1509
     32 C          -1.9022    4.4317   18.5255 C.3     1  UNL1        0.0271
     33 C           0.2665    1.4843   19.5427 C.3     1  UNL1        0.1116
     34 C           1.3547    0.4691   19.3560 C.ar    1  UNL1       -0.0109
     35 C           1.6086   -0.5619   20.4155 C.ar    1  UNL1       -0.0037
     36 C           2.6969   -1.5772   20.2287 C.ar    1  UNL1        0.0058
     37 C           3.5314   -1.5614   18.9824 C.ar    1  UNL1        0.0988
     38 C           3.2776   -0.5304   17.9228 C.ar    1  UNL1        0.1437
     39 F           4.1121   -0.5146   16.6765 F       1  UNL1       -0.2042
     40 C           2.1893    0.4848   18.1096 C.ar    1  UNL1        0.0258
     41 C           4.6197   -2.5766   18.7956 C.3     1  UNL1        0.4207
     42 F           5.7080   -3.5919   18.6088 F       1  UNL1       -0.1658
     43 F           5.6519   -1.5030   18.9746 F       1  UNL1       -0.1658
     44 F           3.5875   -3.6501   18.6167 F       1  UNL1       -0.1658
@<TRIPOS>BOND
     1     5     4    1
     2     5     6    1
     3     6     7   ar
     4     7     8   ar
     5     8     9   ar
     6     9    10   ar
     7    10    11   ar
     8    11    12   ar
     9    12    13   ar
    10    13    14   ar
    11    14    15    2
    12    14    16   ar
    13    16    17    1
    14    17    18   ar
    15    18    19   ar
    16    19    20   ar
    17    20    21    1
    18    20    22   ar
    19    22    23   ar
    20     5     1    1
    21     1    24    1
    22    24    25    1
    23    25    26    1
    24    26    27    1
    25    27    28    1
    26    28    29    2
    27    28    30    2
    28    28    31    1
    29    31    32    1
    30     1     2   am
    31     2     3    2
    32     2    33    1
    33    33    34    1
    34    34    35   ar
    35    35    36   ar
    36    36    37   ar
    37    37    41    1
    38    41    42    1
    39    41    43    1
    40    41    44    1
    41    37    38   ar
    42    38    39    1
    43    38    40   ar
    44    16     6   ar
    45    23    17   ar
    46    32    25    1
    47    40    34   ar
    48    13     8   ar
@<TRIPOS>MOLECULE
*****
 44 48 0 0 0
SMALL
GASTEIGER

@<TRIPOS>ATOM
      1 N           4.1588    0.0843   26.2028 N.am    1  UNL1       -0.2741
      2 C           4.5051   -0.2240   24.7762 C.2     1  UNL1        0.2303
      3 O           5.9363   -0.1932   24.3283 O.2     1  UNL1       -0.2745
      4 C           6.2390    1.4974   26.8555 C.3     1  UNL1        0.0297
      5 C           5.2438    0.4234   27.1814 C.3     1  UNL1        0.1325
      6 C           5.3336   -0.3115   28.4861 C.ar    1  UNL1        0.1462
      7 N           4.5897    0.1962   29.6855 N.ar    1  UNL1       -0.2114
      8 C           4.6795   -0.5387   30.9902 C.ar    1  UNL1        0.1682
      9 N           3.9356   -0.0311   32.1897 N.ar    1  UNL1       -0.2249
     10 C           4.0254   -0.7659   33.4942 C.ar    1  UNL1        0.1006
     11 C           4.8591   -2.0085   33.5992 C.ar    1  UNL1        0.0209
     12 C           5.6031   -2.5161   32.3997 C.ar    1  UNL1        0.0094
     13 C           5.5132   -1.7812   31.0952 C.ar    1  UNL1        0.0923
     14 C           6.2572   -2.2888   29.8956 C.ar    1  UNL1        0.2685
     15 O           7.0909   -3.5314   30.0007 O.2     1  UNL1       -0.2665
     16 N           6.1674   -1.5540   28.5911 N.ar    1  UNL1       -0.2612
     17 C           6.9113   -2.0616   27.3915 C.ar    1  UNL1        0.0680
     18 C           8.3006   -1.5721   27.1081 C.ar    1  UNL1        0.0185
     19 C           9.0446   -2.0796   25.9086 C.ar    1  UNL1        0.0129
     20 C           8.3992   -3.0767   24.9925 C.ar    1  UNL1        0.0578
     21 CL          9.1432   -3.5844   23.7929 Cl      1  UNL1       -0.0822
     22 C           7.0100   -3.5663   25.2759 C.ar    1  UNL1        0.0129
     23 C           6.2660   -3.0587   26.4754 C.ar    1  UNL1        0.0185
     24 C           2.7276    0.0535   26.6506 C.3     1  UNL1        0.0938
     25 C           1.9851    1.3369   26.8779 C.3     1  UNL1        0.0234
     26 C           1.7520    2.2809   25.7358 C.3     1  UNL1        0.0271
     27 C           1.0095    3.5642   25.9630 C.3     1  UNL1        0.1509
     28 S           0.5000    3.9035   27.3324 S.O2    1  UNL1       -0.0100
     29 O          -0.1715    4.6622   28.4385 O.2     1  UNL1       -0.1730
     30 O           0.0337    5.1111   26.5744 O.2     1  UNL1       -0.1730
     31 C           0.7330    2.9595   28.4745 C.3     1  UNL1        0.1509
     32 C           1.4756    1.6762   28.2472 C.3     1  UNL1        0.0271
     33 C           3.4201   -0.5631   23.7975 C.3     1  UNL1        0.1116
     34 C           3.6830   -1.5491   22.6982 C.ar    1  UNL1       -0.0109
     35 C           4.3273   -2.8671   23.0110 C.ar    1  UNL1       -0.0037
     36 C           4.5902   -3.8532   21.9116 C.ar    1  UNL1        0.0058
     37 C           4.2088   -3.5212   20.4994 C.ar    1  UNL1        0.0988
     38 C           3.5645   -2.2033   20.1866 C.ar    1  UNL1        0.1437
     39 F           3.1831   -1.8714   18.7744 F       1  UNL1       -0.2042
     40 C           3.3016   -1.2173   21.2859 C.ar    1  UNL1        0.0258
     41 C           4.4717   -4.5073   19.4001 C.3     1  UNL1        0.4207
     42 F           4.7346   -5.4934   18.3007 F       1  UNL1       -0.1658
     43 F           5.9471   -4.2841   19.5527 F       1  UNL1       -0.1658
     44 F           2.9963   -4.7305   19.2475 F       1  UNL1       -0.1658
@<TRIPOS>BOND
     1     5     4    1
     2     5     6    1
     3     6     7   ar
     4     7     8   ar
     5     8     9   ar
     6     9    10   ar
     7    10    11   ar
     8    11    12   ar
     9    12    13   ar
    10    13    14   ar
    11    14    15    2
    12    14    16   ar
    13    16    17    1
    14    17    18   ar
    15    18    19   ar
    16    19    20   ar
    17    20    21    1
    18    20    22   ar
    19    22    23   ar
    20     5     1    1
    21     1    24    1
    22    24    25    1
    23    25    26    1
    24    26    27    1
    25    27    28    1
    26    28    29    2
    27    28    30    2
    28    28    31    1
    29    31    32    1
    30     1     2   am
    31     2     3    2
    32     2    33    1
    33    33    34    1
    34    34    35   ar
    35    35    36   ar
    36    36    37   ar
    37    37    41    1
    38    41    42    1
    39    41    43    1
    40    41    44    1
    41    37    38   ar
    42    38    39    1
    43    38    40   ar
    44    16     6   ar
    45    23    17   ar
    46    32    25    1
    47    40    34   ar
    48    13     8   ar
