@<TRIPOS>MOLECULE
*****
 25 28 0 0 0
SMALL
GASTEIGER

@<TRIPOS>ATOM
      1 C         -10.4945  -19.4392   21.1709 C.ar    1  UNL1        0.1386
      2 C          -9.7634  -19.6679   22.4606 C.ar    1  UNL1        0.0369
      3 C          -8.2657  -19.7508   22.4692 C.ar    1  UNL1        0.0043
      4 C          -7.4991  -19.6049   21.1881 C.ar    1  UNL1        0.0152
      5 C          -8.2302  -19.3762   19.8985 C.ar    1  UNL1        0.0043
      6 C          -9.7279  -19.2934   19.8899 C.ar    1  UNL1        0.0369
      7 C          -6.0014  -19.6877   21.1968 C.2     1  UNL1        0.0763
      8 N          -5.2962  -20.6167   20.2536 N.2     1  UNL1       -0.1836
      9 N          -3.7985  -20.6996   20.2622 N.am    1  UNL1       -0.2062
     10 C          -3.0061  -19.8534   21.2140 C.2     1  UNL1        0.2410
     11 O          -1.5084  -19.9363   21.2227 O.2     1  UNL1       -0.2734
     12 C          -3.7113  -18.9244   22.1573 C.3     1  UNL1        0.0841
     13 C          -4.4165  -17.9954   23.1004 C.3     1  UNL1        0.0160
     14 C          -5.2090  -18.8415   22.1486 C.3     1  UNL1        0.0509
     15 H          -3.3357  -21.3093   19.6432 H       1  UNL1        0.1772
     16 O         -11.9922  -19.3564   21.1622 O.3     1  UNL1       -0.4754
     17 C         -12.6722  -18.0443   21.4188 C.3     1  UNL1        0.2068
     18 C         -12.7579  -17.5045   22.8157 C.3     1  UNL1        0.0646
     19 C         -12.0041  -16.2621   23.1872 C.3     1  UNL1        0.0759
     20 C         -10.2657  -15.6562   20.4927 C.3     1  UNL1        0.0173
     21 C          -9.7084  -15.9574   21.8522 C.3     1  UNL1        0.0576
     22 C          -8.2541  -16.0330   22.2121 C.3     1  UNL1        0.0174
     23 C          -8.1544  -16.3582   23.6730 C.3     1  UNL1        0.0187
     24 C          -9.5470  -16.4836   24.2161 C.3     1  UNL1        0.0721
     25 N         -10.5074  -16.2359   23.0908 N.3     1  UNL1       -0.2738
@<TRIPOS>BOND
     1    21    20    1
     2    21    22    1
     3    22    23    1
     4    23    24    1
     5    24    25    1
     6    25    19    1
     7    19    18    1
     8    18    17    1
     9    17    16    1
    10    16     1    1
    11     1     2   ar
    12     2     3   ar
    13     3     4   ar
    14     4     7    1
    15     7     8    2
    16     8     9    1
    17     9    10   am
    18    10    11    2
    19    10    12    1
    20    12    13    1
    21    13    14    1
    22     4     5   ar
    23     5     6   ar
    24    25    21    1
    25     6     1   ar
    26    14     7    1
    27    14    12    1
    28     9    15    1
@<TRIPOS>MOLECULE
*****
 25 28 0 0 0
SMALL
GASTEIGER

@<TRIPOS>ATOM
      1 C          -6.6702  -18.8015   20.9364 C.ar    1  UNL1        0.1386
      2 C          -6.7906  -18.1087   22.2614 C.ar    1  UNL1        0.0369
      3 C          -8.1232  -18.0232   22.9447 C.ar    1  UNL1        0.0043
      4 C          -9.3354  -18.6306   22.3030 C.ar    1  UNL1        0.0152
      5 C          -9.2150  -19.3234   20.9781 C.ar    1  UNL1        0.0043
      6 C          -7.8824  -19.4089   20.2948 C.ar    1  UNL1        0.0369
      7 C         -10.6680  -18.5451   22.9863 C.2     1  UNL1        0.0763
      8 N         -10.8121  -18.9994   24.4086 N.2     1  UNL1       -0.1836
      9 N         -12.1447  -18.9139   25.0919 N.am    1  UNL1       -0.2062
     10 C         -13.3332  -18.3741   24.3529 C.2     1  UNL1        0.2410
     11 O         -14.6658  -18.2886   25.0362 O.2     1  UNL1       -0.2734
     12 C         -13.1891  -17.9198   22.9306 C.3     1  UNL1        0.0841
     13 C         -13.0450  -17.4656   21.5083 C.3     1  UNL1        0.0160
     14 C         -11.8565  -18.0053   22.2473 C.3     1  UNL1        0.0509
     15 H         -12.2392  -19.2120   26.0254 H       1  UNL1        0.1772
     16 O          -5.3376  -18.8870   20.2531 O.3     1  UNL1       -0.4754
     17 C          -4.7808  -20.2231   19.8597 C.3     1  UNL1        0.2068
     18 C          -3.3674  -20.5801   20.2129 C.3     1  UNL1        0.0646
     19 C          -2.6954  -19.9175   21.3788 C.3     1  UNL1        0.0759
     20 C          -3.5539  -17.3759   23.2370 C.3     1  UNL1        0.0173
     21 C          -2.5726  -17.3473   22.1030 C.3     1  UNL1        0.0576
     22 C          -1.8135  -16.1455   21.6238 C.3     1  UNL1        0.0174
     23 C          -0.9498  -16.5710   20.4736 C.3     1  UNL1        0.0187
     24 C          -1.1751  -18.0358   20.2418 C.3     1  UNL1        0.0721
     25 N          -2.1780  -18.5156   21.2488 N.3     1  UNL1       -0.2738
@<TRIPOS>BOND
     1    21    20    1
     2    21    22    1
     3    22    23    1
     4    23    24    1
     5    24    25    1
     6    25    19    1
     7    19    18    1
     8    18    17    1
     9    17    16    1
    10    16     1    1
    11     1     2   ar
    12     2     3   ar
    13     3     4   ar
    14     4     7    1
    15     7     8    2
    16     8     9    1
    17     9    10   am
    18    10    11    2
    19    10    12    1
    20    12    13    1
    21    13    14    1
    22     4     5   ar
    23     5     6   ar
    24    25    21    1
    25     6     1   ar
    26    14     7    1
    27    14    12    1
    28     9    15    1
@<TRIPOS>MOLECULE
*****
 25 28 0 0 0
SMALL
GASTEIGER

@<TRIPOS>ATOM
      1 C          -8.6002  -19.6162   21.1494 C.ar    1  UNL1        0.1386
      2 C          -8.0219  -19.4499   19.7754 C.ar    1  UNL1        0.0369
      3 C          -6.5499  -19.2179   19.6043 C.ar    1  UNL1        0.0043
      4 C          -5.6562  -19.1522   20.8072 C.ar    1  UNL1        0.0152
      5 C          -6.2345  -19.3186   22.1812 C.ar    1  UNL1        0.0043
      6 C          -7.7065  -19.5506   22.3523 C.ar    1  UNL1        0.0369
      7 C          -4.1841  -18.9202   20.6361 C.2     1  UNL1        0.0763
      8 N          -3.5364  -19.1624   19.3050 N.2     1  UNL1       -0.1836
      9 N          -2.0644  -18.9304   19.1339 N.am    1  UNL1       -0.2062
     10 C          -1.2400  -18.4562   20.2939 C.2     1  UNL1        0.2410
     11 O           0.2320  -18.2242   20.1228 O.2     1  UNL1       -0.2734
     12 C          -1.8877  -18.2140   21.6250 C.3     1  UNL1        0.0841
     13 C          -2.5354  -17.9718   22.9561 C.3     1  UNL1        0.0160
     14 C          -3.3598  -18.4460   21.7962 C.3     1  UNL1        0.0509
     15 H          -1.6393  -19.0894   18.2603 H       1  UNL1        0.1772
     16 O         -10.0723  -19.8482   21.3205 O.3     1  UNL1       -0.4754
     17 C         -11.0525  -19.1199   20.4496 C.3     1  UNL1        0.2068
     18 C         -11.7664  -17.9093   20.9738 C.3     1  UNL1        0.0646
     19 C         -10.9810  -16.7310   21.4684 C.3     1  UNL1        0.0759
     20 C          -8.1124  -15.2949   22.0671 C.3     1  UNL1        0.0173
     21 C          -8.8716  -16.1765   23.0138 C.3     1  UNL1        0.0576
     22 C          -8.4457  -16.5528   24.4020 C.3     1  UNL1        0.0174
     23 C          -9.5009  -17.4455   24.9847 C.3     1  UNL1        0.0187
     24 C         -10.5791  -17.6209   23.9567 C.3     1  UNL1        0.0721
     25 N         -10.1902  -16.8366   22.7387 N.3     1  UNL1       -0.2738
@<TRIPOS>BOND
     1    21    20    1
     2    21    22    1
     3    22    23    1
     4    23    24    1
     5    24    25    1
     6    25    19    1
     7    19    18    1
     8    18    17    1
     9    17    16    1
    10    16     1    1
    11     1     2   ar
    12     2     3   ar
    13     3     4   ar
    14     4     7    1
    15     7     8    2
    16     8     9    1
    17     9    10   am
    18    10    11    2
    19    10    12    1
    20    12    13    1
    21    13    14    1
    22     4     5   ar
    23     5     6   ar
    24    25    21    1
    25     6     1   ar
    26    14     7    1
    27    14    12    1
    28     9    15    1
@<TRIPOS>MOLECULE
*****
 25 28 0 0 0
SMALL
GASTEIGER

@<TRIPOS>ATOM
      1 C          -8.0734  -17.2431   23.6991 C.ar    1  UNL1        0.1386
      2 C          -7.9163  -18.3659   22.7169 C.ar    1  UNL1        0.0369
      3 C          -6.5801  -18.6320   22.0895 C.ar    1  UNL1        0.0043
      4 C          -5.4009  -17.7753   22.4442 C.ar    1  UNL1        0.0152
      5 C          -5.5581  -16.6525   23.4264 C.ar    1  UNL1        0.0043
      6 C          -6.8943  -16.3864   24.0538 C.ar    1  UNL1        0.0369
      7 C          -4.0647  -18.0414   21.8168 C.2     1  UNL1        0.0763
      8 N          -2.9166  -17.1112   22.0744 N.2     1  UNL1       -0.1836
      9 N          -1.5803  -17.3773   21.4470 N.am    1  UNL1       -0.2062
     10 C          -1.3923  -18.5736   20.5618 C.2     1  UNL1        0.2410
     11 O          -0.0561  -18.8397   19.9344 O.2     1  UNL1       -0.2734
     12 C          -2.5405  -19.5039   20.3042 C.3     1  UNL1        0.0841
     13 C          -3.6886  -20.4341   20.0465 C.3     1  UNL1        0.0160
     14 C          -3.8767  -19.2378   20.9316 C.3     1  UNL1        0.0509
     15 H          -0.8268  -16.7668   21.6161 H       1  UNL1        0.1772
     16 O          -9.4096  -16.9770   24.3266 O.3     1  UNL1       -0.4754
     17 C         -10.1669  -18.0943   24.9807 C.3     1  UNL1        0.2068
     18 C         -11.4695  -18.5585   24.3996 C.3     1  UNL1        0.0646
     19 C         -11.4767  -19.4961   23.2288 C.3     1  UNL1        0.0759
     20 C         -12.2718  -16.5196   22.1526 C.3     1  UNL1        0.0173
     21 C         -11.6108  -17.6001   21.3493 C.3     1  UNL1        0.0576
     22 C         -11.1991  -17.5023   19.9101 C.3     1  UNL1        0.0174
     23 C         -10.5793  -18.8100   19.5154 C.3     1  UNL1        0.0187
     24 C         -10.6078  -19.7160   20.7105 C.3     1  UNL1        0.0721
     25 N         -11.2453  -18.9683   21.8439 N.3     1  UNL1       -0.2738
@<TRIPOS>BOND
     1    21    20    1
     2    21    22    1
     3    22    23    1
     4    23    24    1
     5    24    25    1
     6    25    19    1
     7    19    18    1
     8    18    17    1
     9    17    16    1
    10    16     1    1
    11     1     2   ar
    12     2     3   ar
    13     3     4   ar
    14     4     7    1
    15     7     8    2
    16     8     9    1
    17     9    10   am
    18    10    11    2
    19    10    12    1
    20    12    13    1
    21    13    14    1
    22     4     5   ar
    23     5     6   ar
    24    25    21    1
    25     6     1   ar
    26    14     7    1
    27    14    12    1
    28     9    15    1
@<TRIPOS>MOLECULE
*****
 25 28 0 0 0
SMALL
GASTEIGER

@<TRIPOS>ATOM
      1 C          -6.7676  -15.8756   25.0507 C.ar    1  UNL1        0.1386
      2 C          -7.0387  -16.3908   23.6683 C.ar    1  UNL1        0.0369
      3 C          -5.9003  -16.8233   22.7925 C.ar    1  UNL1        0.0043
      4 C          -4.4909  -16.7408   23.2992 C.ar    1  UNL1        0.0152
      5 C          -4.2198  -16.2257   24.6816 C.ar    1  UNL1        0.0043
      6 C          -5.3582  -15.7931   25.5574 C.ar    1  UNL1        0.0369
      7 C          -3.3525  -17.1734   22.4234 C.2     1  UNL1        0.0763
      8 N          -2.3471  -16.1667   21.9484 N.2     1  UNL1       -0.1836
      9 N          -1.2087  -16.5992   21.0726 N.am    1  UNL1       -0.2062
     10 C          -1.0758  -18.0385   20.6718 C.2     1  UNL1        0.2410
     11 O           0.0626  -18.4711   19.7960 O.2     1  UNL1       -0.2734
     12 C          -2.0813  -19.0453   21.1467 C.3     1  UNL1        0.0841
     13 C          -3.0867  -20.0520   21.6217 C.3     1  UNL1        0.0160
     14 C          -3.2196  -18.6127   22.0225 C.3     1  UNL1        0.0509
     15 H          -0.5488  -15.9385   20.7609 H       1  UNL1        0.1772
     16 O          -7.9059  -15.4430   25.9265 O.3     1  UNL1       -0.4754
     17 C          -9.1777  -16.2380   25.9507 C.3     1  UNL1        0.2068
     18 C          -9.1333  -17.7289   25.7920 C.3     1  UNL1        0.0646
     19 C         -10.1937  -18.4303   24.9961 C.3     1  UNL1        0.0759
     20 C          -8.3347  -19.7834   22.6803 C.3     1  UNL1        0.0173
     21 C          -9.4530  -18.8093   22.4558 C.3     1  UNL1        0.0576
     22 C          -9.9133  -18.2861   21.1274 C.3     1  UNL1        0.0174
     23 C         -11.0522  -17.3408   21.3709 C.3     1  UNL1        0.0187
     24 C         -11.2958  -17.2798   22.8498 C.3     1  UNL1        0.0721
     25 N         -10.3075  -18.1873   23.5203 N.3     1  UNL1       -0.2738
@<TRIPOS>BOND
     1    21    20    1
     2    21    22    1
     3    22    23    1
     4    23    24    1
     5    24    25    1
     6    25    19    1
     7    19    18    1
     8    18    17    1
     9    17    16    1
    10    16     1    1
    11     1     2   ar
    12     2     3   ar
    13     3     4   ar
    14     4     7    1
    15     7     8    2
    16     8     9    1
    17     9    10   am
    18    10    11    2
    19    10    12    1
    20    12    13    1
    21    13    14    1
    22     4     5   ar
    23     5     6   ar
    24    25    21    1
    25     6     1   ar
    26    14     7    1
    27    14    12    1
    28     9    15    1
@<TRIPOS>MOLECULE
*****
 25 28 0 0 0
SMALL
GASTEIGER

@<TRIPOS>ATOM
      1 C           5.3524   -2.6026   18.6525 C.ar    1  UNL1        0.1386
      2 C           4.4038   -3.4263   19.4722 C.ar    1  UNL1        0.0369
      3 C           4.8163   -3.9181   20.8279 C.ar    1  UNL1        0.0043
      4 C           6.1774   -3.5861   21.3640 C.ar    1  UNL1        0.0152
      5 C           7.1259   -2.7624   20.5444 C.ar    1  UNL1        0.0043
      6 C           6.7134   -2.2707   19.1886 C.ar    1  UNL1        0.0369
      7 C           6.5899   -4.0778   22.7198 C.2     1  UNL1        0.0763
      8 N           7.3897   -5.3402   22.8483 N.2     1  UNL1       -0.1836
      9 N           7.8022   -5.8320   24.2041 N.am    1  UNL1       -0.2062
     10 C           7.4149   -5.0613   25.4312 C.2     1  UNL1        0.2410
     11 O           7.8274   -5.5531   26.7870 O.2     1  UNL1       -0.2734
     12 C           6.6150   -3.7989   25.3027 C.3     1  UNL1        0.0841
     13 C           5.8151   -2.5365   25.1742 C.3     1  UNL1        0.0160
     14 C           6.2025   -3.3071   23.9470 C.3     1  UNL1        0.0509
     15 H           8.3272   -6.6605   24.2884 H       1  UNL1        0.1772
     16 O           4.9399   -2.1109   17.2968 O.3     1  UNL1       -0.4754
     17 C           3.9438   -0.9961   17.1744 C.3     1  UNL1        0.2068
     18 C           4.3071    0.3873   17.6262 C.3     1  UNL1        0.0646
     19 C           3.6139    0.9964   18.8088 C.3     1  UNL1        0.0759
     20 C           1.2156   -0.7522   20.1654 C.3     1  UNL1        0.0173
     21 C           2.5646   -0.4905   20.7667 C.3     1  UNL1        0.0576
     22 C           3.0482   -0.9866   22.0971 C.3     1  UNL1        0.0174
     23 C           4.4494   -0.4895   22.2958 C.3     1  UNL1        0.0187
     24 C           4.8319    0.3138   21.0882 C.3     1  UNL1        0.0721
     25 N           3.6670    0.3132   20.1431 N.3     1  UNL1       -0.2738
@<TRIPOS>BOND
     1    21    20    1
     2    21    22    1
     3    22    23    1
     4    23    24    1
     5    24    25    1
     6    25    19    1
     7    19    18    1
     8    18    17    1
     9    17    16    1
    10    16     1    1
    11     1     2   ar
    12     2     3   ar
    13     3     4   ar
    14     4     7    1
    15     7     8    2
    16     8     9    1
    17     9    10   am
    18    10    11    2
    19    10    12    1
    20    12    13    1
    21    13    14    1
    22     4     5   ar
    23     5     6   ar
    24    25    21    1
    25     6     1   ar
    26    14     7    1
    27    14    12    1
    28     9    15    1
@<TRIPOS>MOLECULE
*****
 25 28 0 0 0
SMALL
GASTEIGER

@<TRIPOS>ATOM
      1 C           6.3578   -1.6302   22.4740 C.ar    1  UNL1        0.1386
      2 C           6.9657   -2.8183   21.7893 C.ar    1  UNL1        0.0369
      3 C           7.2376   -4.0731   22.5649 C.ar    1  UNL1        0.0043
      4 C           6.9015   -4.1397   24.0253 C.ar    1  UNL1        0.0152
      5 C           6.2936   -2.9516   24.7100 C.ar    1  UNL1        0.0043
      6 C           6.0218   -1.6968   23.9343 C.ar    1  UNL1        0.0369
      7 C           7.1733   -5.3945   24.8010 C.2     1  UNL1        0.0763
      8 N           6.5757   -5.5777   26.1645 N.2     1  UNL1       -0.1836
      9 N           6.8475   -6.8324   26.9402 N.am    1  UNL1       -0.2062
     10 C           7.7170   -7.9040   26.3523 C.2     1  UNL1        0.2410
     11 O           7.9889   -9.1588   27.1280 O.2     1  UNL1       -0.2734
     12 C           8.3148   -7.7209   24.9888 C.3     1  UNL1        0.0841
     13 C           8.9124   -7.5377   23.6253 C.3     1  UNL1        0.0160
     14 C           8.0429   -6.4661   24.2131 C.3     1  UNL1        0.0509
     15 H           6.4552   -6.9526   27.8351 H       1  UNL1        0.1772
     16 O           6.0859   -0.3754   21.6983 O.3     1  UNL1       -0.4754
     17 C           6.7335   -0.1647   20.3619 C.3     1  UNL1        0.2068
     18 C           5.9609    0.4750   19.2466 C.3     1  UNL1        0.0646
     19 C           4.8859   -0.2964   18.5401 C.3     1  UNL1        0.0759
     20 C           2.8217   -1.5038   20.7608 C.3     1  UNL1        0.0173
     21 C           3.7279   -2.3036   19.8726 C.3     1  UNL1        0.0576
     22 C           3.8444   -3.7990   19.8490 C.3     1  UNL1        0.0174
     23 C           4.8652   -4.1681   18.8138 C.3     1  UNL1        0.0187
     24 C           5.3796   -2.9010   18.1975 C.3     1  UNL1        0.0721
     25 N           4.6767   -1.7487   18.8518 N.3     1  UNL1       -0.2738
@<TRIPOS>BOND
     1    21    20    1
     2    21    22    1
     3    22    23    1
     4    23    24    1
     5    24    25    1
     6    25    19    1
     7    19    18    1
     8    18    17    1
     9    17    16    1
    10    16     1    1
    11     1     2   ar
    12     2     3   ar
    13     3     4   ar
    14     4     7    1
    15     7     8    2
    16     8     9    1
    17     9    10   am
    18    10    11    2
    19    10    12    1
    20    12    13    1
    21    13    14    1
    22     4     5   ar
    23     5     6   ar
    24    25    21    1
    25     6     1   ar
    26    14     7    1
    27    14    12    1
    28     9    15    1
@<TRIPOS>MOLECULE
*****
 25 28 0 0 0
SMALL
GASTEIGER

@<TRIPOS>ATOM
      1 C           0.7730    1.5001   19.1845 C.ar    1  UNL1        0.1386
      2 C           0.4582    0.3383   20.0795 C.ar    1  UNL1        0.0369
      3 C           1.4919   -0.7203   20.3258 C.ar    1  UNL1        0.0043
      4 C           2.8405   -0.6171   19.6771 C.ar    1  UNL1        0.0152
      5 C           3.1552    0.5447   18.7821 C.ar    1  UNL1        0.0043
      6 C           2.1215    1.6033   18.5358 C.ar    1  UNL1        0.0369
      7 C           3.8742   -1.6757   19.9234 C.2     1  UNL1        0.0763
      8 N           5.1896   -1.3095   20.5444 N.2     1  UNL1       -0.1836
      9 N           6.2233   -2.3681   20.7907 N.am    1  UNL1       -0.2062
     10 C           5.9417   -3.7930   20.4160 C.2     1  UNL1        0.2410
     11 O           6.9755   -4.8516   20.6623 O.2     1  UNL1       -0.2734
     12 C           4.6263   -4.1593   19.7949 C.3     1  UNL1        0.0841
     13 C           3.3110   -4.5255   19.1739 C.3     1  UNL1        0.0160
     14 C           3.5926   -3.1007   19.5486 C.3     1  UNL1        0.0509
     15 H           7.0866   -2.1278   21.1983 H       1  UNL1        0.1772
     16 O          -0.2608    2.5588   18.9382 O.3     1  UNL1       -0.4754
     17 C          -0.2726    3.3076   17.6386 C.3     1  UNL1        0.2068
     18 C          -1.5476    3.9169   17.1356 C.3     1  UNL1        0.0646
     19 C          -2.3991    4.7407   18.0554 C.3     1  UNL1        0.0759
     20 C          -2.7551    3.7570   21.1466 C.3     1  UNL1        0.0173
     21 C          -3.8048    3.6999   20.0768 C.3     1  UNL1        0.0576
     22 C          -5.2026    3.1805   20.2398 C.3     1  UNL1        0.0174
     23 C          -5.9029    3.3117   18.9198 C.3     1  UNL1        0.0187
     24 C          -4.9379    3.9121   17.9409 C.3     1  UNL1        0.0721
     25 N          -3.6413    4.1520   18.6558 N.3     1  UNL1       -0.2738
@<TRIPOS>BOND
     1    21    20    1
     2    21    22    1
     3    22    23    1
     4    23    24    1
     5    24    25    1
     6    25    19    1
     7    19    18    1
     8    18    17    1
     9    17    16    1
    10    16     1    1
    11     1     2   ar
    12     2     3   ar
    13     3     4   ar
    14     4     7    1
    15     7     8    2
    16     8     9    1
    17     9    10   am
    18    10    11    2
    19    10    12    1
    20    12    13    1
    21    13    14    1
    22     4     5   ar
    23     5     6   ar
    24    25    21    1
    25     6     1   ar
    26    14     7    1
    27    14    12    1
    28     9    15    1
@<TRIPOS>MOLECULE
*****
 25 28 0 0 0
SMALL
GASTEIGER

@<TRIPOS>ATOM
      1 C           6.0399   -1.6576   23.1386 C.ar    1  UNL1        0.1386
      2 C           6.0147   -1.7365   24.6364 C.ar    1  UNL1        0.0369
      3 C           6.3706   -3.0202   25.3259 C.ar    1  UNL1        0.0043
      4 C           6.7517   -4.2250   24.5177 C.ar    1  UNL1        0.0152
      5 C           6.7769   -4.1461   23.0200 C.ar    1  UNL1        0.0043
      6 C           6.4210   -2.8624   22.3305 C.ar    1  UNL1        0.0369
      7 C           7.1076   -5.5087   25.2072 C.2     1  UNL1        0.0763
      8 N           6.5730   -5.7966   26.5788 N.2     1  UNL1       -0.1836
      9 N           6.9289   -7.0803   27.2683 N.am    1  UNL1       -0.2062
     10 C           7.8195   -8.0761   26.5863 C.2     1  UNL1        0.2410
     11 O           8.1754   -9.3598   27.2759 O.2     1  UNL1       -0.2734
     12 C           8.3542   -7.7882   25.2147 C.3     1  UNL1        0.0841
     13 C           8.8888   -7.5003   23.8431 C.3     1  UNL1        0.0160
     14 C           7.9983   -6.5045   24.5251 C.3     1  UNL1        0.0509
     15 H           6.5780   -7.2692   28.1686 H       1  UNL1        0.1772
     16 O           5.6840   -0.3739   22.4491 O.3     1  UNL1       -0.4754
     17 C           4.2450    0.0202   22.2941 C.3     1  UNL1        0.2068
     18 C           3.2070   -1.0256   22.0135 C.3     1  UNL1        0.0646
     19 C           2.8296   -1.3468   20.5978 C.3     1  UNL1        0.0759
     20 C           5.1360   -0.3298   18.5252 C.3     1  UNL1        0.0173
     21 C           4.7769   -1.7573   18.8132 C.3     1  UNL1        0.0576
     22 C           5.4148   -2.9681   18.1991 C.3     1  UNL1        0.0174
     23 C           4.7490   -4.1839   18.7722 C.3     1  UNL1        0.0187
     24 C           3.6995   -3.7245   19.7405 C.3     1  UNL1        0.0721
     25 N           3.7167   -2.2249   19.7659 N.3     1  UNL1       -0.2738
@<TRIPOS>BOND
     1    21    20    1
     2    21    22    1
     3    22    23    1
     4    23    24    1
     5    24    25    1
     6    25    19    1
     7    19    18    1
     8    18    17    1
     9    17    16    1
    10    16     1    1
    11     1     2   ar
    12     2     3   ar
    13     3     4   ar
    14     4     7    1
    15     7     8    2
    16     8     9    1
    17     9    10   am
    18    10    11    2
    19    10    12    1
    20    12    13    1
    21    13    14    1
    22     4     5   ar
    23     5     6   ar
    24    25    21    1
    25     6     1   ar
    26    14     7    1
    27    14    12    1
    28     9    15    1
