@<TRIPOS>MOLECULE
*****
 37 39 0 0 0
SMALL
GASTEIGER

@<TRIPOS>ATOM
      1 C         -11.2793  -19.3858   21.3254 C.3     1  UNL1        0.1697
      2 O         -11.0369  -20.3268   22.4682 O.3     1  UNL1       -0.3793
      3 H         -10.3206  -20.9386   22.2370 H       1  UNL1        0.2106
      4 C         -12.3437  -18.3344   21.4324 C.3     1  UNL1        0.2358
      5 O         -12.1169  -17.1216   22.2854 O.3     1  UNL1       -0.4721
      6 C          -7.9245  -15.7711   23.2069 C.ar    1  UNL1       -0.0208
      7 C          -8.6922  -16.5743   24.2145 C.ar    1  UNL1       -0.0011
      8 C         -10.0897  -17.0245   23.9074 C.ar    1  UNL1        0.0373
      9 C         -10.7194  -16.6714   22.5926 C.ar    1  UNL1        0.1482
     10 C          -9.9516  -15.8682   21.5849 C.ar    1  UNL1        0.1020
     11 C          -8.5542  -15.4180   21.8921 C.ar    1  UNL1        0.0091
     12 C         -10.5814  -15.5152   20.2701 C.1     1  UNL1        0.1035
     13 N         -11.2112  -15.1622   18.9553 N.1     1  UNL1       -0.1907
     14 C          -6.5269  -15.3209   23.5141 C.3     1  UNL1        0.0380
     15 C          -5.7192  -16.0390   24.5541 C.3     1  UNL1        0.1142
     16 C          -5.6193  -15.4816   25.9432 C.2     1  UNL1        0.3173
     17 O          -5.0053  -14.1315   26.1671 O.2     1  UNL1       -0.2501
     18 O          -6.1333  -16.2743   27.1082 O.3     1  UNL1       -0.4485
     19 C          -8.3586  -14.9969   27.5158 C.3     1  UNL1        0.0513
     20 C          -7.6011  -16.2878   27.4169 C.3     1  UNL1        0.2086
     21 C         -10.4572  -19.4963   20.0756 C.3     1  UNL1        0.1020
     22 N          -9.1071  -18.8462   20.0061 N.3     1  UNL1       -0.2972
     23 H          -9.1214  -18.0668   20.6638 H       1  UNL1        0.1233
     24 C          -7.8737  -19.6448   20.3077 C.3     1  UNL1        0.0461
     25 C          -7.7799  -18.9912   21.6546 C.3     1  UNL1        0.0161
     26 C          -7.9675  -20.2984   18.9609 C.3     1  UNL1        0.0161
     27 C          -6.6403  -20.4434   20.6094 C.3     1  UNL1        0.0408
     28 C          -5.3361  -19.7446   20.8563 C.ar    1  UNL1       -0.0209
     29 C          -4.9137  -19.4186   22.2581 C.ar    1  UNL1       -0.0042
     30 C          -3.6096  -18.7199   22.5051 C.ar    1  UNL1       -0.0003
     31 C          -2.7279  -18.3471   21.3502 C.ar    1  UNL1       -0.0000
     32 C          -1.4238  -17.6484   21.5972 C.ar    1  UNL1       -0.0000
     33 C          -0.5422  -17.2757   20.4423 C.ar    1  UNL1       -0.0000
     34 C          -0.9647  -17.6017   19.0404 C.ar    1  UNL1       -0.0000
     35 C          -2.2688  -18.3005   18.7934 C.ar    1  UNL1       -0.0000
     36 C          -3.1504  -18.6732   19.9483 C.ar    1  UNL1       -0.0003
     37 C          -4.4545  -19.3719   19.7014 C.ar    1  UNL1       -0.0042
@<TRIPOS>BOND
     1    19    20    1
     2    20    18    1
     3    18    16    1
     4    16    17    2
     5    16    15    1
     6    15    14    1
     7    14     6    1
     8     6     7   ar
     9     7     8   ar
    10     8     9   ar
    11     9     5    1
    12     5     4    1
    13     4     1    1
    14     1     2    1
    15     1    21    1
    16    21    22    1
    17    22    24    1
    18    24    25    1
    19    24    26    1
    20    24    27    1
    21    27    28    1
    22    28    29   ar
    23    29    30   ar
    24    30    31   ar
    25    31    32   ar
    26    32    33   ar
    27    33    34   ar
    28    34    35   ar
    29    35    36   ar
    30    36    37   ar
    31     9    10   ar
    32    10    12    1
    33    12    13    3
    34    10    11   ar
    35    11     6   ar
    36    37    28   ar
    37    36    31   ar
    38     2     3    1
    39    22    23    1
@<TRIPOS>MOLECULE
*****
 37 39 0 0 0
SMALL
GASTEIGER

@<TRIPOS>ATOM
      1 C          -3.6056  -16.6051   23.1652 C.3     1  UNL1        0.1697
      2 O          -3.6116  -17.8059   24.0641 O.3     1  UNL1       -0.3793
      3 H          -2.8522  -18.3714   23.8533 H       1  UNL1        0.2106
      4 C          -4.6830  -15.5691   23.2904 C.3     1  UNL1        0.2358
      5 O          -5.8343  -15.7936   24.2253 O.3     1  UNL1       -0.4721
      6 C          -9.9967  -16.2926   22.5895 C.ar    1  UNL1       -0.0208
      7 C          -8.8316  -16.1746   21.6521 C.ar    1  UNL1       -0.0011
      8 C          -7.4442  -16.0083   22.1974 C.ar    1  UNL1        0.0373
      9 C          -7.2218  -15.9599   23.6800 C.ar    1  UNL1        0.1482
     10 C          -8.3869  -16.0779   24.6174 C.ar    1  UNL1        0.1020
     11 C          -9.7743  -16.2443   24.0721 C.ar    1  UNL1        0.0091
     12 C          -8.1645  -16.0296   26.1000 C.1     1  UNL1        0.1035
     13 N          -7.9421  -15.9812   27.5826 N.1     1  UNL1       -0.1907
     14 C         -11.3842  -16.4590   22.0442 C.3     1  UNL1        0.0380
     15 C         -12.5501  -16.5690   22.9814 C.3     1  UNL1        0.1142
     16 C         -12.9451  -17.9068   23.5333 C.2     1  UNL1        0.3173
     17 O         -14.3618  -18.1533   23.9604 O.2     1  UNL1       -0.2501
     18 O         -11.9235  -18.9979   23.6582 O.3     1  UNL1       -0.4485
     19 C          -9.8940  -19.9866   24.9442 C.3     1  UNL1        0.0513
     20 C         -11.1374  -19.1477   24.9269 C.3     1  UNL1        0.2086
     21 C          -2.5221  -16.4404   22.1410 C.3     1  UNL1        0.1020
     22 N          -1.9499  -17.6449   21.4541 N.3     1  UNL1       -0.2972
     23 H          -1.4026  -18.1493   22.1515 H       1  UNL1        0.1233
     24 C          -2.8634  -18.6471   20.8129 C.3     1  UNL1        0.0461
     25 C          -2.4039  -19.6900   21.7883 C.3     1  UNL1        0.0161
     26 C          -3.3229  -17.6043   19.8375 C.3     1  UNL1        0.0161
     27 C          -3.7769  -19.6494   20.1717 C.3     1  UNL1        0.0408
     28 C          -5.2340  -19.6714   20.5275 C.ar    1  UNL1       -0.0209
     29 C          -5.6538  -19.7754   21.9637 C.ar    1  UNL1       -0.0042
     30 C          -7.1108  -19.7974   22.3195 C.ar    1  UNL1       -0.0003
     31 C          -8.1481  -19.7154   21.2389 C.ar    1  UNL1       -0.0000
     32 C          -9.6051  -19.7374   21.5947 C.ar    1  UNL1       -0.0000
     33 C         -10.6422  -19.6554   20.5142 C.ar    1  UNL1       -0.0000
     34 C         -10.2223  -19.5514   19.0779 C.ar    1  UNL1       -0.0000
     35 C          -8.7653  -19.5294   18.7221 C.ar    1  UNL1       -0.0000
     36 C          -7.7282  -19.6114   19.8027 C.ar    1  UNL1       -0.0003
     37 C          -6.2711  -19.5894   19.4469 C.ar    1  UNL1       -0.0042
@<TRIPOS>BOND
     1    19    20    1
     2    20    18    1
     3    18    16    1
     4    16    17    2
     5    16    15    1
     6    15    14    1
     7    14     6    1
     8     6     7   ar
     9     7     8   ar
    10     8     9   ar
    11     9     5    1
    12     5     4    1
    13     4     1    1
    14     1     2    1
    15     1    21    1
    16    21    22    1
    17    22    24    1
    18    24    25    1
    19    24    26    1
    20    24    27    1
    21    27    28    1
    22    28    29   ar
    23    29    30   ar
    24    30    31   ar
    25    31    32   ar
    26    32    33   ar
    27    33    34   ar
    28    34    35   ar
    29    35    36   ar
    30    36    37   ar
    31     9    10   ar
    32    10    12    1
    33    12    13    3
    34    10    11   ar
    35    11     6   ar
    36    37    28   ar
    37    36    31   ar
    38     2     3    1
    39    22    23    1
@<TRIPOS>MOLECULE
*****
 37 39 0 0 0
SMALL
GASTEIGER

@<TRIPOS>ATOM
      1 C         -12.5325  -18.3441   23.7984 C.3     1  UNL1        0.1697
      2 O         -13.0436  -18.7646   25.1446 O.3     1  UNL1       -0.3793
      3 H         -12.8104  -19.6926   25.3035 H       1  UNL1        0.2106
      4 C         -12.7646  -16.9444   23.3117 C.3     1  UNL1        0.2358
      5 O         -11.8755  -16.3610   22.2539 O.3     1  UNL1       -0.4721
      6 C          -7.6084  -15.3146   23.2270 C.ar    1  UNL1       -0.0208
      7 C          -8.4847  -15.9386   24.2723 C.ar    1  UNL1       -0.0011
      8 C          -9.9070  -16.2874   23.9479 C.ar    1  UNL1        0.0373
      9 C         -10.4531  -16.0122   22.5783 C.ar    1  UNL1        0.1482
     10 C          -9.5768  -15.3881   21.5330 C.ar    1  UNL1        0.1020
     11 C          -8.1545  -15.0393   21.8573 C.ar    1  UNL1        0.0091
     12 C         -10.1229  -15.1129   20.1632 C.1     1  UNL1        0.1035
     13 N         -10.6691  -14.8377   18.7936 N.1     1  UNL1       -0.1907
     14 C          -6.1860  -14.9657   23.5514 C.3     1  UNL1        0.0380
     15 C          -5.2945  -15.9813   24.2024 C.3     1  UNL1        0.1142
     16 C          -5.1372  -15.9947   25.6941 C.2     1  UNL1        0.3173
     17 O          -4.1358  -16.9097   26.3344 O.2     1  UNL1       -0.2501
     18 O          -5.9813  -15.0932   26.5454 O.3     1  UNL1       -0.4485
     19 C          -8.3338  -15.1290   27.6476 C.3     1  UNL1        0.0513
     20 C          -6.9434  -15.6806   27.5350 C.3     1  UNL1        0.2086
     21 C         -11.7892  -19.3234   22.9390 C.3     1  UNL1        0.1020
     22 N         -11.7815  -19.1579   21.4481 N.3     1  UNL1       -0.2972
     23 H         -12.0451  -18.1911   21.2578 H       1  UNL1        0.1233
     24 C         -10.5272  -19.4259   20.6703 C.3     1  UNL1        0.0461
     25 C         -10.0858  -20.4035   21.7189 C.3     1  UNL1        0.0161
     26 C         -10.9686  -18.4483   19.6217 C.3     1  UNL1        0.0161
     27 C          -9.2729  -19.6939   19.8925 C.3     1  UNL1        0.0408
     28 C          -7.9334  -19.4902   20.5361 C.ar    1  UNL1       -0.0209
     29 C          -7.8278  -18.7261   21.8226 C.ar    1  UNL1       -0.0042
     30 C          -6.4884  -18.5224   22.4662 C.ar    1  UNL1       -0.0003
     31 C          -5.2543  -19.0829   21.8233 C.ar    1  UNL1       -0.0000
     32 C          -3.9149  -18.8792   22.4669 C.ar    1  UNL1       -0.0000
     33 C          -2.6809  -19.4396   21.8241 C.ar    1  UNL1       -0.0000
     34 C          -2.7865  -20.2037   20.5376 C.ar    1  UNL1       -0.0000
     35 C          -4.1260  -20.4074   19.8940 C.ar    1  UNL1       -0.0000
     36 C          -5.3599  -19.8470   20.5368 C.ar    1  UNL1       -0.0003
     37 C          -6.6995  -20.0506   19.8932 C.ar    1  UNL1       -0.0042
@<TRIPOS>BOND
     1    19    20    1
     2    20    18    1
     3    18    16    1
     4    16    17    2
     5    16    15    1
     6    15    14    1
     7    14     6    1
     8     6     7   ar
     9     7     8   ar
    10     8     9   ar
    11     9     5    1
    12     5     4    1
    13     4     1    1
    14     1     2    1
    15     1    21    1
    16    21    22    1
    17    22    24    1
    18    24    25    1
    19    24    26    1
    20    24    27    1
    21    27    28    1
    22    28    29   ar
    23    29    30   ar
    24    30    31   ar
    25    31    32   ar
    26    32    33   ar
    27    33    34   ar
    28    34    35   ar
    29    35    36   ar
    30    36    37   ar
    31     9    10   ar
    32    10    12    1
    33    12    13    3
    34    10    11   ar
    35    11     6   ar
    36    37    28   ar
    37    36    31   ar
    38     2     3    1
    39    22    23    1
@<TRIPOS>MOLECULE
*****
 37 39 0 0 0
SMALL
GASTEIGER

@<TRIPOS>ATOM
      1 C          -9.4625  -20.0382   18.9349 C.3     1  UNL1        0.1697
      2 O          -9.4188  -21.2159   18.0069 O.3     1  UNL1       -0.3793
      3 H          -8.4966  -21.4180   17.7842 H       1  UNL1        0.2106
      4 C         -10.7809  -19.5229   19.4311 C.3     1  UNL1        0.2358
      5 O         -11.2931  -19.9455   20.7761 O.3     1  UNL1       -0.4721
      6 C          -9.8010  -17.8998   24.4962 C.ar    1  UNL1       -0.0208
      7 C          -9.5368  -19.3614   24.2867 C.ar    1  UNL1       -0.0011
      8 C         -10.0341  -20.0433   23.0467 C.ar    1  UNL1        0.0373
      9 C         -10.7957  -19.2636   22.0162 C.ar    1  UNL1        0.1482
     10 C         -11.0599  -17.8019   22.2257 C.ar    1  UNL1        0.1020
     11 C         -10.5626  -17.1200   23.4657 C.ar    1  UNL1        0.0091
     12 C         -11.8215  -17.0222   21.1951 C.1     1  UNL1        0.1035
     13 N         -12.5831  -16.2425   20.1645 N.1     1  UNL1       -0.1907
     14 C          -9.3036  -17.2179   25.7362 C.3     1  UNL1        0.0380
     15 C          -8.4578  -15.9840   25.6257 C.3     1  UNL1        0.1142
     16 C          -7.8716  -15.3636   26.8593 C.2     1  UNL1        0.3173
     17 O          -8.7724  -14.8920   27.9621 O.2     1  UNL1       -0.2501
     18 O          -6.3848  -15.2147   26.9899 O.3     1  UNL1       -0.4485
     19 C          -5.2751  -15.2590   24.6411 C.3     1  UNL1        0.0513
     20 C          -5.4749  -15.8726   25.9953 C.3     1  UNL1        0.2086
     21 C          -8.1878  -19.3759   19.3667 C.3     1  UNL1        0.1020
     22 N          -8.1577  -18.5524   20.6201 N.3     1  UNL1       -0.2972
     23 H          -9.0227  -18.7502   21.1232 H       1  UNL1        0.1233
     24 C          -7.0369  -18.7222   21.6024 C.3     1  UNL1        0.0461
     25 C          -6.8305  -20.1287   21.1236 C.3     1  UNL1        0.0161
     26 C          -7.2433  -17.3158   22.0811 C.3     1  UNL1        0.0161
     27 C          -5.9160  -18.8921   22.5846 C.3     1  UNL1        0.0408
     28 C          -4.5114  -18.5474   22.1868 C.ar    1  UNL1       -0.0209
     29 C          -3.5185  -18.1263   23.2293 C.ar    1  UNL1       -0.0042
     30 C          -2.1139  -17.7816   22.8315 C.ar    1  UNL1       -0.0003
     31 C          -1.7022  -17.8580   21.3910 C.ar    1  UNL1       -0.0000
     32 C          -0.2976  -17.5133   20.9932 C.ar    1  UNL1       -0.0000
     33 C           0.1141  -17.5897   19.5529 C.ar    1  UNL1       -0.0000
     34 C          -0.8788  -18.0108   18.5104 C.ar    1  UNL1       -0.0000
     35 C          -2.2834  -18.3555   18.9082 C.ar    1  UNL1       -0.0000
     36 C          -2.6950  -18.2791   20.3485 C.ar    1  UNL1       -0.0003
     37 C          -4.0997  -18.6238   20.7464 C.ar    1  UNL1       -0.0042
@<TRIPOS>BOND
     1    19    20    1
     2    20    18    1
     3    18    16    1
     4    16    17    2
     5    16    15    1
     6    15    14    1
     7    14     6    1
     8     6     7   ar
     9     7     8   ar
    10     8     9   ar
    11     9     5    1
    12     5     4    1
    13     4     1    1
    14     1     2    1
    15     1    21    1
    16    21    22    1
    17    22    24    1
    18    24    25    1
    19    24    26    1
    20    24    27    1
    21    27    28    1
    22    28    29   ar
    23    29    30   ar
    24    30    31   ar
    25    31    32   ar
    26    32    33   ar
    27    33    34   ar
    28    34    35   ar
    29    35    36   ar
    30    36    37   ar
    31     9    10   ar
    32    10    12    1
    33    12    13    3
    34    10    11   ar
    35    11     6   ar
    36    37    28   ar
    37    36    31   ar
    38     2     3    1
    39    22    23    1
@<TRIPOS>MOLECULE
*****
 37 39 0 0 0
SMALL
GASTEIGER

@<TRIPOS>ATOM
      1 C          -3.0752  -18.2756   19.3288 C.3     1  UNL1        0.1697
      2 O          -1.7560  -18.8877   18.9612 O.3     1  UNL1       -0.3793
      3 H          -1.8715  -19.8391   18.8115 H       1  UNL1        0.2106
      4 C          -3.1669  -16.8056   19.6127 C.3     1  UNL1        0.2358
      5 O          -2.5380  -16.2404   20.8517 O.3     1  UNL1       -0.4721
      6 C          -4.7209  -16.4543   24.7810 C.ar    1  UNL1       -0.0208
      7 C          -4.7301  -15.1822   23.9862 C.ar    1  UNL1       -0.0011
      8 C          -4.0025  -15.1109   22.6765 C.ar    1  UNL1        0.0373
      9 C          -3.2657  -16.3117   22.1615 C.ar    1  UNL1        0.1482
     10 C          -3.2565  -17.5838   22.9563 C.ar    1  UNL1        0.1020
     11 C          -3.9841  -17.6551   24.2660 C.ar    1  UNL1        0.0091
     12 C          -2.5197  -18.7846   22.4412 C.1     1  UNL1        0.1035
     13 N          -1.7828  -19.9853   21.9262 N.1     1  UNL1       -0.1907
     14 C          -5.4485  -16.5256   26.0908 C.3     1  UNL1        0.0380
     15 C          -6.3108  -15.3807   26.5330 C.3     1  UNL1        0.1142
     16 C          -7.7888  -15.5754   26.6994 C.2     1  UNL1        0.3173
     17 O          -8.5413  -14.7712   27.7178 O.2     1  UNL1       -0.2501
     18 O          -8.5143  -16.5743   25.8474 O.3     1  UNL1       -0.4485
     19 C          -8.4606  -15.9153   23.3349 C.3     1  UNL1        0.0513
     20 C          -9.2275  -16.1244   24.6070 C.3     1  UNL1        0.2086
     21 C          -4.3028  -19.1336   19.4124 C.3     1  UNL1        0.1020
     22 N          -5.5471  -18.6014   20.0595 N.3     1  UNL1       -0.2972
     23 H          -6.1844  -18.3450   19.3056 H       1  UNL1        0.1233
     24 C          -6.3249  -19.4623   21.0102 C.3     1  UNL1        0.0461
     25 C          -6.4649  -18.3001   21.9481 C.3     1  UNL1        0.0161
     26 C          -6.1850  -20.6245   20.0722 C.3     1  UNL1        0.0161
     27 C          -7.1028  -20.3232   21.9609 C.3     1  UNL1        0.0408
     28 C          -8.4466  -19.8729   22.4525 C.ar    1  UNL1       -0.0209
     29 C          -8.8821  -20.2000   23.8501 C.ar    1  UNL1       -0.0042
     30 C         -10.2258  -19.7497   24.3417 C.ar    1  UNL1       -0.0003
     31 C         -11.1340  -18.9724   23.4357 C.ar    1  UNL1       -0.0000
     32 C         -12.4777  -18.5221   23.9273 C.ar    1  UNL1       -0.0000
     33 C         -13.3859  -17.7448   23.0213 C.ar    1  UNL1       -0.0000
     34 C         -12.9505  -17.4178   21.6237 C.ar    1  UNL1       -0.0000
     35 C         -11.6068  -17.8680   21.1320 C.ar    1  UNL1       -0.0000
     36 C         -10.6986  -18.6453   22.0381 C.ar    1  UNL1       -0.0003
     37 C          -9.3548  -19.0956   21.5465 C.ar    1  UNL1       -0.0042
@<TRIPOS>BOND
     1    19    20    1
     2    20    18    1
     3    18    16    1
     4    16    17    2
     5    16    15    1
     6    15    14    1
     7    14     6    1
     8     6     7   ar
     9     7     8   ar
    10     8     9   ar
    11     9     5    1
    12     5     4    1
    13     4     1    1
    14     1     2    1
    15     1    21    1
    16    21    22    1
    17    22    24    1
    18    24    25    1
    19    24    26    1
    20    24    27    1
    21    27    28    1
    22    28    29   ar
    23    29    30   ar
    24    30    31   ar
    25    31    32   ar
    26    32    33   ar
    27    33    34   ar
    28    34    35   ar
    29    35    36   ar
    30    36    37   ar
    31     9    10   ar
    32    10    12    1
    33    12    13    3
    34    10    11   ar
    35    11     6   ar
    36    37    28   ar
    37    36    31   ar
    38     2     3    1
    39    22    23    1
@<TRIPOS>MOLECULE
*****
 37 39 0 0 0
SMALL
GASTEIGER

@<TRIPOS>ATOM
      1 C          -3.4701  -16.4236   23.0415 C.3     1  UNL1        0.1697
      2 O          -3.7005  -17.5793   23.9697 O.3     1  UNL1       -0.3793
      3 H          -3.0227  -18.2563   23.8174 H       1  UNL1        0.2106
      4 C          -4.3882  -15.2380   23.0778 C.3     1  UNL1        0.2358
      5 O          -5.3638  -15.0791   24.2061 O.3     1  UNL1       -0.4721
      6 C          -9.5574  -16.6582   23.7937 C.ar    1  UNL1       -0.0208
      7 C          -8.6757  -16.5467   22.5853 C.ar    1  UNL1       -0.0011
      8 C          -7.2779  -16.0203   22.7227 C.ar    1  UNL1        0.0373
      9 C          -6.7617  -15.6055   24.0686 C.ar    1  UNL1        0.1482
     10 C          -7.6433  -15.7170   25.2770 C.ar    1  UNL1        0.1020
     11 C          -9.0412  -16.2434   25.1395 C.ar    1  UNL1        0.0091
     12 C          -7.1271  -15.3022   26.6229 C.1     1  UNL1        0.1035
     13 N          -6.6108  -14.8874   27.9688 N.1     1  UNL1       -0.1907
     14 C         -10.9553  -17.1846   23.6562 C.3     1  UNL1        0.0380
     15 C         -11.9462  -16.4642   22.7907 C.3     1  UNL1        0.1142
     16 C         -12.3262  -17.0303   21.4546 C.2     1  UNL1        0.3173
     17 O         -13.5409  -17.9011   21.3270 O.2     1  UNL1       -0.2501
     18 O         -11.4916  -16.7256   20.2461 O.3     1  UNL1       -0.4485
     19 C         -10.7232  -14.8606   18.6086 C.3     1  UNL1        0.0513
     20 C         -11.8093  -15.5305   19.3972 C.3     1  UNL1        0.2086
     21 C          -2.3217  -16.4536   22.0770 C.3     1  UNL1        0.1020
     22 N          -1.8300  -17.7638   21.5368 N.3     1  UNL1       -0.2972
     23 H          -1.4489  -18.2838   22.3272 H       1  UNL1        0.1233
     24 C          -2.7775  -18.6859   20.8283 C.3     1  UNL1        0.0461
     25 C          -2.4339  -19.7810   21.7940 C.3     1  UNL1        0.0161
     26 C          -3.1212  -17.5908   19.8626 C.3     1  UNL1        0.0161
     27 C          -3.7251  -19.6080   20.1197 C.3     1  UNL1        0.0408
     28 C          -5.1620  -19.6779   20.5445 C.ar    1  UNL1       -0.0209
     29 C          -5.5089  -19.8092   21.9980 C.ar    1  UNL1       -0.0042
     30 C          -6.9457  -19.8791   22.4228 C.ar    1  UNL1       -0.0003
     31 C          -8.0358  -19.8177   21.3941 C.ar    1  UNL1       -0.0000
     32 C          -9.4727  -19.8876   21.8190 C.ar    1  UNL1       -0.0000
     33 C         -10.5626  -19.8263   20.7903 C.ar    1  UNL1       -0.0000
     34 C         -10.2158  -19.6950   19.3369 C.ar    1  UNL1       -0.0000
     35 C          -8.7789  -19.6250   18.9121 C.ar    1  UNL1       -0.0000
     36 C          -7.6889  -19.6864   19.9407 C.ar    1  UNL1       -0.0003
     37 C          -6.2520  -19.6165   19.5159 C.ar    1  UNL1       -0.0042
@<TRIPOS>BOND
     1    19    20    1
     2    20    18    1
     3    18    16    1
     4    16    17    2
     5    16    15    1
     6    15    14    1
     7    14     6    1
     8     6     7   ar
     9     7     8   ar
    10     8     9   ar
    11     9     5    1
    12     5     4    1
    13     4     1    1
    14     1     2    1
    15     1    21    1
    16    21    22    1
    17    22    24    1
    18    24    25    1
    19    24    26    1
    20    24    27    1
    21    27    28    1
    22    28    29   ar
    23    29    30   ar
    24    30    31   ar
    25    31    32   ar
    26    32    33   ar
    27    33    34   ar
    28    34    35   ar
    29    35    36   ar
    30    36    37   ar
    31     9    10   ar
    32    10    12    1
    33    12    13    3
    34    10    11   ar
    35    11     6   ar
    36    37    28   ar
    37    36    31   ar
    38     2     3    1
    39    22    23    1
@<TRIPOS>MOLECULE
*****
 37 39 0 0 0
SMALL
GASTEIGER

@<TRIPOS>ATOM
      1 C         -13.2134  -18.0683   23.3228 C.3     1  UNL1        0.1697
      2 O         -14.4694  -18.0967   24.1425 O.3     1  UNL1       -0.3793
      3 H         -15.2047  -18.4162   23.5964 H       1  UNL1        0.2106
      4 C         -11.9256  -17.6090   23.9396 C.3     1  UNL1        0.2358
      5 O         -11.1147  -16.5377   23.2727 O.3     1  UNL1       -0.4721
      6 C          -6.8921  -15.7488   24.6132 C.ar    1  UNL1       -0.0208
      7 C          -7.8337  -16.5025   25.5050 C.ar    1  UNL1       -0.0011
      8 C          -9.2412  -16.7655   25.0582 C.ar    1  UNL1        0.0373
      9 C          -9.7071  -16.2747   23.7196 C.ar    1  UNL1        0.1482
     10 C          -8.7656  -15.5211   22.8277 C.ar    1  UNL1        0.1020
     11 C          -7.3580  -15.2581   23.2745 C.ar    1  UNL1        0.0091
     12 C          -9.2316  -15.0303   21.4890 C.1     1  UNL1        0.1035
     13 N          -9.6976  -14.5396   20.1504 N.1     1  UNL1       -0.1907
     14 C          -5.4845  -15.4859   25.0600 C.3     1  UNL1        0.0380
     15 C          -4.3446  -16.2207   24.4193 C.3     1  UNL1        0.1142
     16 C          -3.8448  -15.7991   23.0692 C.2     1  UNL1        0.3173
     17 O          -4.2046  -14.4487   22.5244 O.2     1  UNL1       -0.2501
     18 O          -2.9853  -16.7280   22.2640 O.3     1  UNL1       -0.4485
     19 C          -1.1663  -17.0338   20.4343 C.3     1  UNL1        0.0513
     20 C          -1.8228  -16.1880   21.4850 C.3     1  UNL1        0.2086
     21 C         -13.2454  -18.4993   21.8864 C.3     1  UNL1        0.1020
     22 N         -12.3057  -17.8779   20.8959 N.3     1  UNL1       -0.2972
     23 H         -11.8974  -17.0608   21.3499 H       1  UNL1        0.1233
     24 C         -11.1661  -18.6785   20.3389 C.3     1  UNL1        0.0461
     25 C         -11.5220  -19.8174   21.2479 C.3     1  UNL1        0.0161
     26 C         -10.8102  -17.5396   19.4299 C.3     1  UNL1        0.0161
     27 C         -10.0265  -19.4792   19.7819 C.3     1  UNL1        0.0408
     28 C          -8.6899  -19.4553   20.4624 C.ar    1  UNL1       -0.0209
     29 C          -8.5812  -18.9946   21.8858 C.ar    1  UNL1       -0.0042
     30 C          -7.2447  -18.9707   22.5663 C.ar    1  UNL1       -0.0003
     31 C          -6.0169  -19.4076   21.8235 C.ar    1  UNL1       -0.0000
     32 C          -4.6804  -19.3837   22.5041 C.ar    1  UNL1       -0.0000
     33 C          -3.4527  -19.8205   21.7613 C.ar    1  UNL1       -0.0000
     34 C          -3.5614  -20.2813   20.3380 C.ar    1  UNL1       -0.0000
     35 C          -4.8979  -20.3052   19.6574 C.ar    1  UNL1       -0.0000
     36 C          -6.1256  -19.8683   20.4002 C.ar    1  UNL1       -0.0003
     37 C          -7.4622  -19.8922   19.7197 C.ar    1  UNL1       -0.0042
@<TRIPOS>BOND
     1    19    20    1
     2    20    18    1
     3    18    16    1
     4    16    17    2
     5    16    15    1
     6    15    14    1
     7    14     6    1
     8     6     7   ar
     9     7     8   ar
    10     8     9   ar
    11     9     5    1
    12     5     4    1
    13     4     1    1
    14     1     2    1
    15     1    21    1
    16    21    22    1
    17    22    24    1
    18    24    25    1
    19    24    26    1
    20    24    27    1
    21    27    28    1
    22    28    29   ar
    23    29    30   ar
    24    30    31   ar
    25    31    32   ar
    26    32    33   ar
    27    33    34   ar
    28    34    35   ar
    29    35    36   ar
    30    36    37   ar
    31     9    10   ar
    32    10    12    1
    33    12    13    3
    34    10    11   ar
    35    11     6   ar
    36    37    28   ar
    37    36    31   ar
    38     2     3    1
    39    22    23    1
@<TRIPOS>MOLECULE
*****
 37 39 0 0 0
SMALL
GASTEIGER

@<TRIPOS>ATOM
      1 C           4.6845   -3.9532   19.4481 C.3     1  UNL1        0.1697
      2 O           4.5835   -5.4455   19.3346 O.3     1  UNL1       -0.3793
      3 H           5.1140   -5.7492   18.5815 H       1  UNL1        0.2106
      4 C           3.9505   -3.2326   20.5398 C.3     1  UNL1        0.2358
      5 O           3.4056   -1.8566   20.2957 O.3     1  UNL1       -0.4721
      6 C           1.8660    0.5973   23.7392 C.ar    1  UNL1       -0.0208
      7 C           2.8907   -0.4716   23.9790 C.ar    1  UNL1       -0.0011
      8 C           3.4039   -1.2895   22.8312 C.ar    1  UNL1        0.0373
      9 C           2.8924   -1.0386   21.4436 C.ar    1  UNL1        0.1482
     10 C           1.8677    0.0303   21.2039 C.ar    1  UNL1        0.1020
     11 C           1.3545    0.8482   22.3517 C.ar    1  UNL1        0.0091
     12 C           1.3562    0.2812   19.8162 C.1     1  UNL1        0.1035
     13 N           0.8448    0.5321   18.4286 N.1     1  UNL1       -0.1907
     14 C           1.3527    1.4152   24.8872 C.3     1  UNL1        0.0380
     15 C          -0.1235    1.5252   25.1289 C.3     1  UNL1        0.1142
     16 C          -0.6321    2.1696   26.3844 C.2     1  UNL1        0.3173
     17 O          -1.5374    3.3627   26.3013 O.2     1  UNL1       -0.2501
     18 O          -0.2353    1.6209   27.7228 O.3     1  UNL1       -0.4485
     19 C          -1.6175   -0.0740   29.1253 C.3     1  UNL1        0.0513
     20 C          -0.5749    0.2051   28.0835 C.3     1  UNL1        0.2086
     21 C           5.5196   -3.1815   18.4697 C.3     1  UNL1        0.1020
     22 N           4.8594   -2.2955   17.4551 N.3     1  UNL1       -0.2972
     23 H           3.8532   -2.4230   17.5632 H       1  UNL1        0.1233
     24 C           5.1129   -0.8172   17.4723 C.3     1  UNL1        0.0461
     25 C           6.5240   -1.0643   17.9171 C.3     1  UNL1        0.0161
     26 C           3.7019   -0.5701   17.0275 C.3     1  UNL1        0.0161
     27 C           5.3664    0.6611   17.4894 C.3     1  UNL1        0.0408
     28 C           4.8708    1.4938   18.6345 C.ar    1  UNL1       -0.0209
     29 C           3.8459    2.5628   18.3960 C.ar    1  UNL1       -0.0042
     30 C           3.3503    3.3954   19.5410 C.ar    1  UNL1       -0.0003
     31 C           3.8796    3.1592   20.9245 C.ar    1  UNL1       -0.0000
     32 C           3.3840    3.9919   22.0694 C.ar    1  UNL1       -0.0000
     33 C           3.9134    3.7557   23.4529 C.ar    1  UNL1       -0.0000
     34 C           4.9384    2.6867   23.6913 C.ar    1  UNL1       -0.0000
     35 C           5.4339    1.8541   22.5464 C.ar    1  UNL1       -0.0000
     36 C           4.9046    2.0903   21.1630 C.ar    1  UNL1       -0.0003
     37 C           5.4002    1.2576   20.0179 C.ar    1  UNL1       -0.0042
@<TRIPOS>BOND
     1    19    20    1
     2    20    18    1
     3    18    16    1
     4    16    17    2
     5    16    15    1
     6    15    14    1
     7    14     6    1
     8     6     7   ar
     9     7     8   ar
    10     8     9   ar
    11     9     5    1
    12     5     4    1
    13     4     1    1
    14     1     2    1
    15     1    21    1
    16    21    22    1
    17    22    24    1
    18    24    25    1
    19    24    26    1
    20    24    27    1
    21    27    28    1
    22    28    29   ar
    23    29    30   ar
    24    30    31   ar
    25    31    32   ar
    26    32    33   ar
    27    33    34   ar
    28    34    35   ar
    29    35    36   ar
    30    36    37   ar
    31     9    10   ar
    32    10    12    1
    33    12    13    3
    34    10    11   ar
    35    11     6   ar
    36    37    28   ar
    37    36    31   ar
    38     2     3    1
    39    22    23    1
@<TRIPOS>MOLECULE
*****
 37 39 0 0 0
SMALL
GASTEIGER

@<TRIPOS>ATOM
      1 C         -10.7407  -18.8506   19.5912 C.3     1  UNL1        0.1697
      2 O         -11.0760  -19.7355   18.4272 O.3     1  UNL1       -0.3793
      3 H         -10.4872  -20.5063   18.4270 H       1  UNL1        0.2106
      4 C         -11.5120  -17.5841   19.8171 C.3     1  UNL1        0.2358
      5 O         -11.5835  -16.9843   21.1901 O.3     1  UNL1       -0.4721
      6 C          -7.8541  -15.4076   23.1536 C.ar    1  UNL1       -0.0208
      7 C          -8.2270  -14.9493   21.7749 C.ar    1  UNL1       -0.0011
      8 C          -9.4701  -15.4748   21.1204 C.ar    1  UNL1        0.0373
      9 C         -10.3403  -16.4587   21.8446 C.ar    1  UNL1        0.1482
     10 C          -9.9675  -16.9170   23.2234 C.ar    1  UNL1        0.1020
     11 C          -8.7244  -16.3914   23.8779 C.ar    1  UNL1        0.0091
     12 C         -10.8379  -17.9009   23.9476 C.1     1  UNL1        0.1035
     13 N         -11.7082  -18.8848   24.6718 N.1     1  UNL1       -0.1907
     14 C          -6.6110  -14.8819   23.8081 C.3     1  UNL1        0.0380
     15 C          -5.8107  -15.7666   24.7175 C.3     1  UNL1        0.1142
     16 C          -5.5750  -15.3606   26.1422 C.2     1  UNL1        0.3173
     17 O          -4.8681  -14.0734   26.4481 O.2     1  UNL1       -0.2501
     18 O          -6.0462  -16.2417   27.2609 O.3     1  UNL1       -0.4485
     19 C          -8.3963  -15.1360   27.3294 C.3     1  UNL1        0.0513
     20 C          -7.5070  -16.3147   27.5937 C.3     1  UNL1        0.2086
     21 C          -9.6340  -19.2322   20.5291 C.3     1  UNL1        0.1020
     22 N          -8.3767  -19.8506   19.9934 N.3     1  UNL1       -0.2972
     23 H          -8.0505  -19.2475   19.2383 H       1  UNL1        0.1233
     24 C          -7.2058  -20.0772   20.9032 C.3     1  UNL1        0.0461
     25 C          -6.6126  -21.0253   19.9035 C.3     1  UNL1        0.0161
     26 C          -7.7990  -19.1292   21.9028 C.3     1  UNL1        0.0161
     27 C          -6.0349  -20.3038   21.8129 C.3     1  UNL1        0.0408
     28 C          -4.8283  -19.4178   21.7172 C.ar    1  UNL1       -0.0209
     29 C          -4.4367  -18.5558   22.8806 C.ar    1  UNL1       -0.0042
     30 C          -3.2302  -17.6697   22.7850 C.ar    1  UNL1       -0.0003
     31 C          -2.4152  -17.6457   21.5259 C.ar    1  UNL1       -0.0000
     32 C          -1.2086  -16.7597   21.4303 C.ar    1  UNL1       -0.0000
     33 C          -0.3937  -16.7357   20.1712 C.ar    1  UNL1       -0.0000
     34 C          -0.7853  -17.5977   19.0078 C.ar    1  UNL1       -0.0000
     35 C          -1.9919  -18.4837   19.1034 C.ar    1  UNL1       -0.0000
     36 C          -2.8068  -18.5077   20.3625 C.ar    1  UNL1       -0.0003
     37 C          -4.0134  -19.3938   20.4582 C.ar    1  UNL1       -0.0042
@<TRIPOS>BOND
     1    19    20    1
     2    20    18    1
     3    18    16    1
     4    16    17    2
     5    16    15    1
     6    15    14    1
     7    14     6    1
     8     6     7   ar
     9     7     8   ar
    10     8     9   ar
    11     9     5    1
    12     5     4    1
    13     4     1    1
    14     1     2    1
    15     1    21    1
    16    21    22    1
    17    22    24    1
    18    24    25    1
    19    24    26    1
    20    24    27    1
    21    27    28    1
    22    28    29   ar
    23    29    30   ar
    24    30    31   ar
    25    31    32   ar
    26    32    33   ar
    27    33    34   ar
    28    34    35   ar
    29    35    36   ar
    30    36    37   ar
    31     9    10   ar
    32    10    12    1
    33    12    13    3
    34    10    11   ar
    35    11     6   ar
    36    37    28   ar
    37    36    31   ar
    38     2     3    1
    39    22    23    1
