@<TRIPOS>MOLECULE
*****
 12 13 0 0 0
SMALL
GASTEIGER

@<TRIPOS>ATOM
      1 F         -14.2939  -17.6362   24.4224 F       1  UNL1       -0.1832
      2 C         -13.1437  -18.0096   23.5349 C.ar    1  UNL1        0.2223
      3 C         -11.9346  -18.6803   24.1165 C.ar    1  UNL1        0.0497
      4 C         -10.7844  -19.0536   23.2290 C.ar    1  UNL1        0.0055
      5 C         -10.8432  -18.7562   21.7600 C.ar    1  UNL1        0.0198
      6 C         -12.0522  -18.0854   21.1785 C.ar    1  UNL1        0.1013
      7 N         -13.2025  -17.7121   22.0659 N.ar    1  UNL1       -0.2165
      8 C          -9.6929  -19.1295   20.8726 C.ar    1  UNL1        0.0085
      9 C          -9.7919  -19.5974   19.4509 C.ar    1  UNL1        0.0075
     10 C          -8.4019  -19.8575   18.9506 C.ar    1  UNL1        0.0355
     11 S          -7.4438  -19.5503   20.0632 S.2     1  UNL1       -0.0859
     12 C          -8.2418  -19.1003   21.2510 C.ar    1  UNL1        0.0355
@<TRIPOS>BOND
     1     1     2    1
     2     2     3   ar
     3     3     4   ar
     4     4     5   ar
     5     5     8    1
     6     8     9   ar
     7     9    10   ar
     8    10    11   ar
     9    11    12   ar
    10     5     6   ar
    11     6     7   ar
    12     7     2   ar
    13    12     8   ar
@<TRIPOS>MOLECULE
*****
 12 13 0 0 0
SMALL
GASTEIGER

@<TRIPOS>ATOM
      1 F          -4.8005  -14.8474   25.8511 F       1  UNL1       -0.1832
      2 C          -6.1088  -15.4008   25.3693 C.ar    1  UNL1        0.2223
      3 C          -7.2416  -15.5949   26.3331 C.ar    1  UNL1        0.0497
      4 C          -8.5499  -16.1482   25.8513 C.ar    1  UNL1        0.0055
      5 C          -8.7254  -16.5074   24.4055 C.ar    1  UNL1        0.0198
      6 C          -7.5926  -16.3133   23.4417 C.ar    1  UNL1        0.1013
      7 N          -6.2843  -15.7599   23.9235 N.ar    1  UNL1       -0.2165
      8 C         -10.0337  -17.0607   23.9237 C.ar    1  UNL1        0.0085
      9 C         -10.6725  -18.3386   24.3808 C.ar    1  UNL1        0.0075
     10 C         -11.9665  -18.5010   23.6398 C.ar    1  UNL1        0.0355
     11 S         -12.1275  -17.3235   22.7246 S.2     1  UNL1       -0.0859
     12 C         -10.9329  -16.4334   22.9001 C.ar    1  UNL1        0.0355
@<TRIPOS>BOND
     1     1     2    1
     2     2     3   ar
     3     3     4   ar
     4     4     5   ar
     5     5     8    1
     6     8     9   ar
     7     9    10   ar
     8    10    11   ar
     9    11    12   ar
    10     5     6   ar
    11     6     7   ar
    12     7     2   ar
    13    12     8   ar
@<TRIPOS>MOLECULE
*****
 12 13 0 0 0
SMALL
GASTEIGER

@<TRIPOS>ATOM
      1 F         -11.6428  -17.8614   20.6672 F       1  UNL1       -0.1832
      2 C         -10.6964  -17.4088   21.7394 C.ar    1  UNL1        0.2223
      3 C         -10.9575  -17.7699   23.1716 C.ar    1  UNL1        0.0497
      4 C         -10.0111  -17.3174   24.2438 C.ar    1  UNL1        0.0055
      5 C          -8.8036  -16.5037   23.8836 C.ar    1  UNL1        0.0198
      6 C          -8.5425  -16.1425   22.4514 C.ar    1  UNL1        0.1013
      7 N          -9.4889  -16.5951   21.3793 N.ar    1  UNL1       -0.2165
      8 C          -7.8572  -16.0511   24.9558 C.ar    1  UNL1        0.0085
      9 C          -8.1572  -15.9787   26.4237 C.ar    1  UNL1        0.0075
     10 C          -6.9300  -15.4743   27.1234 C.ar    1  UNL1        0.0355
     11 S          -5.8715  -15.2349   26.0879 S.2     1  UNL1       -0.0859
     12 C          -6.4445  -15.5914   24.7483 C.ar    1  UNL1        0.0355
@<TRIPOS>BOND
     1     1     2    1
     2     2     3   ar
     3     3     4   ar
     4     4     5   ar
     5     5     8    1
     6     8     9   ar
     7     9    10   ar
     8    10    11   ar
     9    11    12   ar
    10     5     6   ar
    11     6     7   ar
    12     7     2   ar
    13    12     8   ar
@<TRIPOS>MOLECULE
*****
 12 13 0 0 0
SMALL
GASTEIGER

@<TRIPOS>ATOM
      1 F          -7.7053  -16.2791   27.9165 F       1  UNL1       -0.1832
      2 C          -8.4522  -16.5740   26.6496 C.ar    1  UNL1        0.2223
      3 C          -8.5486  -15.5312   25.5758 C.ar    1  UNL1        0.0497
      4 C          -9.2955  -15.8260   24.3088 C.ar    1  UNL1        0.0055
      5 C          -9.9460  -17.1637   24.1157 C.ar    1  UNL1        0.0198
      6 C          -9.8496  -18.2066   25.1895 C.ar    1  UNL1        0.1013
      7 N          -9.1027  -17.9117   26.4565 N.ar    1  UNL1       -0.2165
      8 C         -10.6930  -17.4586   22.8487 C.ar    1  UNL1        0.0085
      9 C         -12.1843  -17.4890   22.6912 C.ar    1  UNL1        0.0075
     10 C         -12.4928  -17.8241   21.2619 C.ar    1  UNL1        0.0355
     11 S         -11.1920  -18.0008   20.5362 S.2     1  UNL1       -0.0859
     12 C         -10.0796  -17.7749   21.5169 C.ar    1  UNL1        0.0355
@<TRIPOS>BOND
     1     1     2    1
     2     2     3   ar
     3     3     4   ar
     4     4     5   ar
     5     5     8    1
     6     8     9   ar
     7     9    10   ar
     8    10    11   ar
     9    11    12   ar
    10     5     6   ar
    11     6     7   ar
    12     7     2   ar
    13    12     8   ar
@<TRIPOS>MOLECULE
*****
 12 13 0 0 0
SMALL
GASTEIGER

@<TRIPOS>ATOM
      1 F         -12.9713  -17.4377   21.2183 F       1  UNL1       -0.1832
      2 C         -11.5355  -17.8719   21.2129 C.ar    1  UNL1        0.2223
      3 C         -11.0287  -18.7735   20.1265 C.ar    1  UNL1        0.0497
      4 C          -9.5930  -19.2078   20.1211 C.ar    1  UNL1        0.0055
      5 C          -8.6640  -18.7403   21.2021 C.ar    1  UNL1        0.0198
      6 C          -9.1708  -17.8387   22.2884 C.ar    1  UNL1        0.1013
      7 N         -10.6065  -17.4045   22.2938 N.ar    1  UNL1       -0.2165
      8 C          -7.2282  -19.1746   21.1967 C.ar    1  UNL1        0.0085
      9 C          -6.6060  -20.1512   20.2432 C.ar    1  UNL1        0.0075
     10 C          -5.1558  -20.2886   20.6010 C.ar    1  UNL1        0.0355
     11 S          -4.8817  -19.3969   21.7757 S.2     1  UNL1       -0.0859
     12 C          -6.1625  -18.7084   22.1438 C.ar    1  UNL1        0.0355
@<TRIPOS>BOND
     1     1     2    1
     2     2     3   ar
     3     3     4   ar
     4     4     5   ar
     5     5     8    1
     6     8     9   ar
     7     9    10   ar
     8    10    11   ar
     9    11    12   ar
    10     5     6   ar
    11     6     7   ar
    12     7     2   ar
    13    12     8   ar
@<TRIPOS>MOLECULE
*****
 12 13 0 0 0
SMALL
GASTEIGER

@<TRIPOS>ATOM
      1 F         -12.1934  -18.3265   24.2159 F       1  UNL1       -0.1832
      2 C         -10.8450  -18.5993   23.6180 C.ar    1  UNL1        0.2223
      3 C         -10.1802  -19.9253   23.8407 C.ar    1  UNL1        0.0497
      4 C          -8.8318  -20.1980   23.2429 C.ar    1  UNL1        0.0055
      5 C          -8.1482  -19.1447   22.4224 C.ar    1  UNL1        0.0198
      6 C          -8.8130  -17.8187   22.1998 C.ar    1  UNL1        0.1013
      7 N         -10.1614  -17.5460   22.7976 N.ar    1  UNL1       -0.2165
      8 C          -6.7998  -19.4175   21.8246 C.ar    1  UNL1        0.0085
      9 C          -6.5140  -20.3423   20.6787 C.ar    1  UNL1        0.0075
     10 C          -5.0380  -20.3097   20.4136 C.ar    1  UNL1        0.0355
     11 S          -4.4115  -19.3647   21.3957 S.2     1  UNL1       -0.0859
     12 C          -5.5003  -18.8134   22.2678 C.ar    1  UNL1        0.0355
@<TRIPOS>BOND
     1     1     2    1
     2     2     3   ar
     3     3     4   ar
     4     4     5   ar
     5     5     8    1
     6     8     9   ar
     7     9    10   ar
     8    10    11   ar
     9    11    12   ar
    10     5     6   ar
    11     6     7   ar
    12     7     2   ar
    13    12     8   ar
@<TRIPOS>MOLECULE
*****
 12 13 0 0 0
SMALL
GASTEIGER

@<TRIPOS>ATOM
      1 F         -10.0304  -20.0386   18.5688 F       1  UNL1       -0.1832
      2 C          -9.6462  -19.1849   19.7408 C.ar    1  UNL1        0.2223
      3 C         -10.6882  -18.3719   20.4502 C.ar    1  UNL1        0.0497
      4 C         -10.3039  -17.5182   21.6222 C.ar    1  UNL1        0.0055
      5 C          -8.8777  -17.4775   22.0848 C.ar    1  UNL1        0.0198
      6 C          -7.8357  -18.2906   21.3755 C.ar    1  UNL1        0.1013
      7 N          -8.2199  -19.1442   20.2035 N.ar    1  UNL1       -0.2165
      8 C          -8.4935  -16.6239   23.2568 C.ar    1  UNL1        0.0085
      9 C          -9.2267  -16.5371   24.5625 C.ar    1  UNL1        0.0075
     10 C          -8.4950  -15.5667   25.4416 C.ar    1  UNL1        0.0355
     11 S          -7.3094  -15.0536   24.6792 S.2     1  UNL1       -0.0859
     12 C          -7.3085  -15.7070   23.3290 C.ar    1  UNL1        0.0355
@<TRIPOS>BOND
     1     1     2    1
     2     2     3   ar
     3     3     4   ar
     4     4     5   ar
     5     5     8    1
     6     8     9   ar
     7     9    10   ar
     8    10    11   ar
     9    11    12   ar
    10     5     6   ar
    11     6     7   ar
    12     7     2   ar
    13    12     8   ar
@<TRIPOS>MOLECULE
*****
 12 13 0 0 0
SMALL
GASTEIGER

@<TRIPOS>ATOM
      1 F          -9.0421   -7.9615   18.7032 F       1  UNL1       -0.1832
      2 C         -10.0276   -6.8382   18.8341 C.ar    1  UNL1        0.2223
      3 C          -9.5451   -5.4187   18.8790 C.ar    1  UNL1        0.0497
      4 C         -10.5305   -4.2954   19.0099 C.ar    1  UNL1        0.0055
      5 C         -11.9984   -4.5916   19.0959 C.ar    1  UNL1        0.0198
      6 C         -12.4809   -6.0111   19.0509 C.ar    1  UNL1        0.1013
      7 N         -11.4955   -7.1344   18.9201 N.ar    1  UNL1       -0.2165
      8 C         -12.9838   -3.4683   19.2268 C.ar    1  UNL1        0.0085
      9 C         -13.9663   -3.2831   20.3450 C.ar    1  UNL1        0.0075
     10 C         -14.7495   -2.0333   20.0717 C.ar    1  UNL1        0.0355
     11 S         -14.2510   -1.4460   18.7846 S.2     1  UNL1       -0.0859
     12 C         -13.1598   -2.3329   18.2624 C.ar    1  UNL1        0.0355
@<TRIPOS>BOND
     1     1     2    1
     2     2     3   ar
     3     3     4   ar
     4     4     5   ar
     5     5     8    1
     6     8     9   ar
     7     9    10   ar
     8    10    11   ar
     9    11    12   ar
    10     5     6   ar
    11     6     7   ar
    12     7     2   ar
    13    12     8   ar
@<TRIPOS>MOLECULE
*****
 12 13 0 0 0
SMALL
GASTEIGER

@<TRIPOS>ATOM
      1 F          -9.2491   -8.0491   19.1306 F       1  UNL1       -0.1832
      2 C          -9.9719   -6.7402   19.0106 C.ar    1  UNL1        0.2223
      3 C         -11.4402   -6.7196   18.7049 C.ar    1  UNL1        0.0497
      4 C         -12.1631   -5.4108   18.5850 C.ar    1  UNL1        0.0055
      5 C         -11.4176   -4.1225   18.7708 C.ar    1  UNL1        0.0198
      6 C          -9.9493   -4.1431   19.0766 C.ar    1  UNL1        0.1013
      7 N          -9.2264   -5.4520   19.1965 N.ar    1  UNL1       -0.2165
      8 C         -12.1405   -2.8137   18.6509 C.ar    1  UNL1        0.0085
      9 C         -11.5056   -1.4549   18.6255 C.ar    1  UNL1        0.0075
     10 C         -12.5978   -0.4352   18.4943 C.ar    1  UNL1        0.0355
     11 S         -13.9078   -1.1638   18.4385 S.2     1  UNL1       -0.0859
     12 C         -13.6251   -2.6337   18.5353 C.ar    1  UNL1        0.0355
@<TRIPOS>BOND
     1     1     2    1
     2     2     3   ar
     3     3     4   ar
     4     4     5   ar
     5     5     8    1
     6     8     9   ar
     7     9    10   ar
     8    10    11   ar
     9    11    12   ar
    10     5     6   ar
    11     6     7   ar
    12     7     2   ar
    13    12     8   ar
