@<TRIPOS>MOLECULE
*****
 35 38 0 0 0
SMALL
GASTEIGER

@<TRIPOS>ATOM
      1 N          -5.1814  -16.9986   23.7144 N.am    1  UNL1       -0.2791
      2 C          -4.1707  -16.1043   23.0595 C.2     1  UNL1        0.2408
      3 O          -4.5101  -14.6714   22.7745 O.2     1  UNL1       -0.2733
      4 H          -4.9586  -17.9391   23.9015 H       1  UNL1        0.1550
      5 C          -9.0775  -16.2507   23.6107 C.ar    1  UNL1        0.0186
      6 C          -9.2319  -15.3823   24.8239 C.ar    1  UNL1        0.0747
      7 N          -8.0361  -15.0526   25.6673 N.ar    1  UNL1       -0.3189
      8 C          -6.6859  -15.5913   25.2975 C.ar    1  UNL1        0.2712
      9 O          -5.4901  -15.2616   26.1409 O.2     1  UNL1       -0.2658
     10 C          -6.5315  -16.4598   24.0843 C.ar    1  UNL1        0.1071
     11 C          -7.7274  -16.7895   23.2408 C.ar    1  UNL1        0.0210
     12 H          -8.1374  -14.4825   26.4636 H       1  UNL1        0.1690
     13 C         -11.7529  -15.7097   19.1892 C.3     1  UNL1        0.0521
     14 C         -11.6110  -16.3099   20.5565 C.ar    1  UNL1        0.0594
     15 C         -10.4152  -15.9802   21.3999 C.ar    1  UNL1        0.0148
     16 C         -10.2734  -16.5804   22.7673 C.ar    1  UNL1        0.0042
     17 C         -11.3273  -17.5103   23.2912 C.ar    1  UNL1        0.0207
     18 C         -12.5231  -17.8400   22.4478 C.ar    1  UNL1        0.0984
     19 N         -12.6649  -17.2398   21.0805 N.ar    1  UNL1       -0.2481
     20 C          -2.8205  -16.6431   22.6897 C.3     1  UNL1        0.1365
     21 N          -2.2885  -17.8675   23.3737 N.3     1  UNL1       -0.2860
     22 H          -2.8268  -17.9825   24.2324 H       1  UNL1        0.1240
     23 C          -2.3116  -19.1908   22.6678 C.3     1  UNL1        0.1160
     24 C          -3.5131  -19.5910   21.8639 C.ar    1  UNL1        0.0820
     25 C          -3.5031  -20.0714   20.4429 C.ar    1  UNL1        0.0530
     26 S          -4.9194  -20.3585   20.0406 S.2     1  UNL1       -0.0643
     27 C          -5.8048  -20.0554   21.2129 C.ar    1  UNL1        0.1341
     28 N          -4.9356  -19.5811   22.3398 N.ar    1  UNL1       -0.2392
     29 C          -2.0024  -15.9575   21.6359 C.3     1  UNL1        0.0514
     30 C          -1.6835  -16.6679   20.3537 C.ar    1  UNL1       -0.0203
     31 C          -0.3491  -17.3288   20.1743 C.ar    1  UNL1       -0.0042
     32 C          -0.0303  -18.0391   18.8922 C.ar    1  UNL1       -0.0003
     33 C          -1.0460  -18.0885   17.7895 C.ar    1  UNL1       -0.0000
     34 C          -2.3805  -17.4275   17.9690 C.ar    1  UNL1       -0.0003
     35 C          -2.6993  -16.7172   19.2510 C.ar    1  UNL1       -0.0042
@<TRIPOS>BOND
     1    13    14    1
     2    14    15   ar
     3    15    16   ar
     4    16     5    1
     5     5     6   ar
     6     6     7   ar
     7     7     8   ar
     8     8     9    2
     9     8    10   ar
    10    10     1    1
    11     1     2   am
    12     2     3    2
    13     2    20    1
    14    20    29    1
    15    29    30    1
    16    30    31   ar
    17    31    32   ar
    18    32    33   ar
    19    33    34   ar
    20    34    35   ar
    21    20    21    1
    22    21    23    1
    23    23    24    1
    24    24    25   ar
    25    25    26   ar
    26    26    27   ar
    27    27    28   ar
    28    10    11   ar
    29    16    17   ar
    30    17    18   ar
    31    18    19   ar
    32    19    14   ar
    33    11     5   ar
    34    35    30   ar
    35    28    24   ar
    36     7    12    1
    37     1     4    1
    38    21    22    1
@<TRIPOS>MOLECULE
*****
 35 38 0 0 0
SMALL
GASTEIGER

@<TRIPOS>ATOM
      1 N          -5.5734  -19.1092   22.4936 N.am    1  UNL1       -0.2791
      2 C          -5.2025  -17.7471   23.0007 C.2     1  UNL1        0.2408
      3 O          -5.9912  -16.5461   22.5700 O.2     1  UNL1       -0.2733
      4 H          -5.0557  -19.8975   22.7763 H       1  UNL1        0.1550
      5 C          -9.1870  -18.7270   20.8981 C.ar    1  UNL1        0.0186
      6 C          -9.0522  -19.5925   19.6804 C.ar    1  UNL1        0.0747
      7 N          -7.7579  -20.2969   19.4005 N.ar    1  UNL1       -0.3189
      8 C          -6.5982  -20.1358   20.3382 C.ar    1  UNL1        0.2712
      9 O          -5.3038  -20.8402   20.0583 O.2     1  UNL1       -0.2658
     10 C          -6.7330  -19.2703   21.5559 C.ar    1  UNL1        0.1071
     11 C          -8.0274  -18.5659   21.8358 C.ar    1  UNL1        0.0210
     12 H          -7.6694  -20.8650   18.6013 H       1  UNL1        0.1690
     13 C         -13.3904  -18.0525   23.8774 C.3     1  UNL1        0.0521
     14 C         -12.5831  -17.6853   22.6677 C.ar    1  UNL1        0.0594
     15 C         -11.2887  -18.3897   22.3877 C.ar    1  UNL1        0.0148
     16 C         -10.4814  -18.0225   21.1780 C.ar    1  UNL1        0.0042
     17 C         -10.9685  -16.9510   20.2482 C.ar    1  UNL1        0.0207
     18 C         -12.2629  -16.2466   20.5281 C.ar    1  UNL1        0.0984
     19 N         -13.0702  -16.6138   21.7379 N.ar    1  UNL1       -0.2481
     20 C          -4.0429  -17.5860   23.9384 C.3     1  UNL1        0.1365
     21 N          -4.2684  -17.0675   25.3279 N.3     1  UNL1       -0.2860
     22 H          -3.3565  -17.0417   25.7841 H       1  UNL1        0.1240
     23 C          -4.8934  -15.7195   25.5331 C.3     1  UNL1        0.1160
     24 C          -6.3243  -15.6151   25.9708 C.ar    1  UNL1        0.0820
     25 C          -6.8373  -15.8231   27.3650 C.ar    1  UNL1        0.0530
     26 S          -8.3235  -15.6209   27.3470 S.2     1  UNL1       -0.0643
     27 C          -8.7291  -15.2879   25.9418 C.ar    1  UNL1        0.1341
     28 N          -7.4935  -15.2843   25.0912 N.ar    1  UNL1       -0.2392
     29 C          -2.6579  -17.9434   23.4868 C.3     1  UNL1        0.0514
     30 C          -2.3335  -17.9843   22.0229 C.ar    1  UNL1       -0.0203
     31 C          -1.9601  -16.7231   21.3019 C.ar    1  UNL1       -0.0042
     32 C          -1.6357  -16.7640   19.8380 C.ar    1  UNL1       -0.0003
     33 C          -1.6848  -18.0662   19.0950 C.ar    1  UNL1       -0.0000
     34 C          -2.0583  -19.3274   19.8160 C.ar    1  UNL1       -0.0003
     35 C          -2.3826  -19.2864   21.2799 C.ar    1  UNL1       -0.0042
@<TRIPOS>BOND
     1    13    14    1
     2    14    15   ar
     3    15    16   ar
     4    16     5    1
     5     5     6   ar
     6     6     7   ar
     7     7     8   ar
     8     8     9    2
     9     8    10   ar
    10    10     1    1
    11     1     2   am
    12     2     3    2
    13     2    20    1
    14    20    29    1
    15    29    30    1
    16    30    31   ar
    17    31    32   ar
    18    32    33   ar
    19    33    34   ar
    20    34    35   ar
    21    20    21    1
    22    21    23    1
    23    23    24    1
    24    24    25   ar
    25    25    26   ar
    26    26    27   ar
    27    27    28   ar
    28    10    11   ar
    29    16    17   ar
    30    17    18   ar
    31    18    19   ar
    32    19    14   ar
    33    11     5   ar
    34    35    30   ar
    35    28    24   ar
    36     7    12    1
    37     1     4    1
    38    21    22    1
@<TRIPOS>MOLECULE
*****
 35 38 0 0 0
SMALL
GASTEIGER

@<TRIPOS>ATOM
      1 N          -6.2977  -18.5748   21.2295 N.am    1  UNL1       -0.2791
      2 C          -5.5426  -19.5690   22.0611 C.2     1  UNL1        0.2408
      3 O          -6.2093  -20.8384   22.5017 O.2     1  UNL1       -0.2733
      4 H          -5.8601  -17.7417   20.9403 H       1  UNL1        0.1550
      5 C         -10.2639  -18.4471   21.1759 C.ar    1  UNL1        0.0186
      6 C         -10.5631  -19.4003   20.0570 C.ar    1  UNL1        0.0747
      7 N          -9.4405  -20.0783   19.3289 N.ar    1  UNL1       -0.3189
      8 C          -8.0187  -19.8032   19.7198 C.ar    1  UNL1        0.2712
      9 O          -6.8961  -20.4812   18.9917 O.2     1  UNL1       -0.2658
     10 C          -7.7195  -18.8500   20.8387 C.ar    1  UNL1        0.1071
     11 C          -8.8421  -18.1720   21.5667 C.ar    1  UNL1        0.0210
     12 H          -9.6369  -20.7039   18.5946 H       1  UNL1        0.1690
     13 C         -13.9909  -18.5489   24.7951 C.3     1  UNL1        0.0521
     14 C         -13.2500  -17.8200   23.7135 C.ar    1  UNL1        0.0594
     15 C         -12.1274  -18.4979   22.9855 C.ar    1  UNL1        0.0148
     16 C         -11.3865  -17.7691   21.9039 C.ar    1  UNL1        0.0042
     17 C         -11.7683  -16.3622   21.5504 C.ar    1  UNL1        0.0207
     18 C         -12.8909  -15.6843   22.2784 C.ar    1  UNL1        0.0984
     19 N         -13.6317  -16.4131   23.3600 N.ar    1  UNL1       -0.2481
     20 C          -4.1208  -19.2939   22.4519 C.3     1  UNL1        0.1365
     21 N          -3.8235  -18.4018   23.6206 N.3     1  UNL1       -0.2860
     22 H          -2.8583  -18.5864   23.8939 H       1  UNL1        0.1240
     23 C          -3.9573  -16.9143   23.4819 C.3     1  UNL1        0.1160
     24 C          -5.2117  -16.2285   23.9360 C.ar    1  UNL1        0.0820
     25 C          -5.4604  -15.6588   25.3012 C.ar    1  UNL1        0.0530
     26 S          -6.8401  -15.0703   25.3136 S.2     1  UNL1       -0.0643
     27 C          -7.4441  -15.2762   23.9560 C.ar    1  UNL1        0.1341
     28 N          -6.4377  -15.9921   23.1046 N.ar    1  UNL1       -0.2392
     29 C          -2.9964  -19.9108   21.6741 C.3     1  UNL1        0.0514
     30 C          -2.2380  -19.0902   20.6733 C.ar    1  UNL1       -0.0203
     31 C          -0.8852  -18.5441   21.0220 C.ar    1  UNL1       -0.0042
     32 C          -0.1269  -17.7235   20.0212 C.ar    1  UNL1       -0.0003
     33 C          -0.7214  -17.4491   18.6717 C.ar    1  UNL1       -0.0000
     34 C          -2.0742  -17.9952   18.3230 C.ar    1  UNL1       -0.0003
     35 C          -2.8325  -18.8157   19.3238 C.ar    1  UNL1       -0.0042
@<TRIPOS>BOND
     1    13    14    1
     2    14    15   ar
     3    15    16   ar
     4    16     5    1
     5     5     6   ar
     6     6     7   ar
     7     7     8   ar
     8     8     9    2
     9     8    10   ar
    10    10     1    1
    11     1     2   am
    12     2     3    2
    13     2    20    1
    14    20    29    1
    15    29    30    1
    16    30    31   ar
    17    31    32   ar
    18    32    33   ar
    19    33    34   ar
    20    34    35   ar
    21    20    21    1
    22    21    23    1
    23    23    24    1
    24    24    25   ar
    25    25    26   ar
    26    26    27   ar
    27    27    28   ar
    28    10    11   ar
    29    16    17   ar
    30    17    18   ar
    31    18    19   ar
    32    19    14   ar
    33    11     5   ar
    34    35    30   ar
    35    28    24   ar
    36     7    12    1
    37     1     4    1
    38    21    22    1
@<TRIPOS>MOLECULE
*****
 35 38 0 0 0
SMALL
GASTEIGER

@<TRIPOS>ATOM
      1 N          -8.6048  -18.8122   22.7722 N.am    1  UNL1       -0.2791
      2 C          -9.1379  -17.4105   22.8040 C.2     1  UNL1        0.2408
      3 O          -8.7664  -16.4421   21.7204 O.2     1  UNL1       -0.2733
      4 H          -8.8486  -19.4478   23.4834 H       1  UNL1        0.1550
      5 C          -5.3291  -19.3701   20.6024 C.ar    1  UNL1        0.0186
      6 C          -5.8911  -20.1122   19.4262 C.ar    1  UNL1        0.0747
      7 N          -7.3577  -20.4209   19.3653 N.ar    1  UNL1       -0.3189
      8 C          -8.2623  -19.9876   20.4807 C.ar    1  UNL1        0.2712
      9 O          -9.7289  -20.2964   20.4198 O.2     1  UNL1       -0.2658
     10 C          -7.7003  -19.2455   21.6569 C.ar    1  UNL1        0.1071
     11 C          -6.2336  -18.9367   21.7177 C.ar    1  UNL1        0.0210
     12 H          -7.7265  -20.9080   18.5933 H       1  UNL1        0.1690
     13 C          -0.9600  -17.8019   18.2674 C.3     1  UNL1        0.0521
     14 C          -1.6779  -18.2772   19.4957 C.ar    1  UNL1        0.0594
     15 C          -3.1445  -18.5860   19.4349 C.ar    1  UNL1        0.0148
     16 C          -3.8624  -19.0613   20.6632 C.ar    1  UNL1        0.0042
     17 C          -3.1137  -19.2278   21.9522 C.ar    1  UNL1        0.0207
     18 C          -1.6471  -18.9191   22.0130 C.ar    1  UNL1        0.0984
     19 N          -0.9292  -18.4438   20.7847 N.ar    1  UNL1       -0.2481
     20 C         -10.0424  -16.9772   23.9193 C.3     1  UNL1        0.1365
     21 N         -11.2915  -17.7529   24.2164 N.3     1  UNL1       -0.2860
     22 H         -11.7043  -17.3378   25.0516 H       1  UNL1        0.1240
     23 C         -12.3828  -17.8387   23.1909 C.3     1  UNL1        0.1160
     24 C         -12.1252  -17.3920   21.7824 C.ar    1  UNL1        0.0820
     25 C         -12.2750  -15.9941   21.2594 C.ar    1  UNL1        0.0530
     26 S         -11.9150  -16.0028   19.8033 S.2     1  UNL1       -0.0643
     27 C         -11.5426  -17.4061   19.4263 C.ar    1  UNL1        0.1341
     28 N         -11.6725  -18.2647   20.6495 N.ar    1  UNL1       -0.2392
     29 C          -9.6980  -15.7681   24.7376 C.3     1  UNL1        0.0514
     30 C          -8.3302  -15.6342   25.3388 C.ar    1  UNL1       -0.0203
     31 C          -8.1259  -15.8908   26.8024 C.ar    1  UNL1       -0.0042
     32 C          -6.7583  -15.7568   27.4036 C.ar    1  UNL1       -0.0003
     33 C          -5.5949  -15.3663   26.5410 C.ar    1  UNL1       -0.0000
     34 C          -5.7992  -15.1096   25.0774 C.ar    1  UNL1       -0.0003
     35 C          -7.1669  -15.2436   24.4762 C.ar    1  UNL1       -0.0042
@<TRIPOS>BOND
     1    13    14    1
     2    14    15   ar
     3    15    16   ar
     4    16     5    1
     5     5     6   ar
     6     6     7   ar
     7     7     8   ar
     8     8     9    2
     9     8    10   ar
    10    10     1    1
    11     1     2   am
    12     2     3    2
    13     2    20    1
    14    20    29    1
    15    29    30    1
    16    30    31   ar
    17    31    32   ar
    18    32    33   ar
    19    33    34   ar
    20    34    35   ar
    21    20    21    1
    22    21    23    1
    23    23    24    1
    24    24    25   ar
    25    25    26   ar
    26    26    27   ar
    27    27    28   ar
    28    10    11   ar
    29    16    17   ar
    30    17    18   ar
    31    18    19   ar
    32    19    14   ar
    33    11     5   ar
    34    35    30   ar
    35    28    24   ar
    36     7    12    1
    37     1     4    1
    38    21    22    1
@<TRIPOS>MOLECULE
*****
 35 38 0 0 0
SMALL
GASTEIGER

@<TRIPOS>ATOM
      1 N          -8.7069  -17.9415   22.4873 N.am    1  UNL1       -0.2791
      2 C          -9.0195  -16.4793   22.3682 C.2     1  UNL1        0.2408
      3 O          -8.3187  -15.6440   21.3380 O.2     1  UNL1       -0.2733
      4 H          -9.1669  -18.4897   23.1634 H       1  UNL1        0.1550
      5 C          -5.2168  -18.9609   20.8968 C.ar    1  UNL1        0.0186
      6 C          -5.6667  -19.8225   19.7543 C.ar    1  UNL1        0.0747
      7 N          -7.1300  -20.0570   19.5228 N.ar    1  UNL1       -0.3189
      8 C          -8.1435  -19.4300   20.4338 C.ar    1  UNL1        0.2712
      9 O          -9.6068  -19.6646   20.2023 O.2     1  UNL1       -0.2658
     10 C          -7.6936  -18.5685   21.5763 C.ar    1  UNL1        0.1071
     11 C          -6.2301  -18.3340   21.8078 C.ar    1  UNL1        0.0210
     12 H          -7.4253  -20.6225   18.7729 H       1  UNL1        0.1690
     13 C          -0.4390  -18.1434   19.0247 C.3     1  UNL1        0.0521
     14 C          -1.3645  -18.3176   20.1922 C.ar    1  UNL1        0.0594
     15 C          -2.8279  -18.5522   19.9608 C.ar    1  UNL1        0.0148
     16 C          -3.7534  -18.7264   21.1283 C.ar    1  UNL1        0.0042
     17 C          -3.2156  -18.6661   22.5272 C.ar    1  UNL1        0.0207
     18 C          -1.7522  -18.4316   22.7587 C.ar    1  UNL1        0.0984
     19 N          -0.8267  -18.2573   21.5912 N.ar    1  UNL1       -0.2481
     20 C         -10.0329  -15.8523   23.2791 C.3     1  UNL1        0.1365
     21 N         -11.4937  -15.9410   22.9501 N.3     1  UNL1       -0.2860
     22 H         -11.5752  -15.8294   21.9395 H       1  UNL1        0.1240
     23 C         -12.2712  -17.1710   23.3140 C.3     1  UNL1        0.1160
     24 C         -11.5494  -18.4411   23.6543 C.ar    1  UNL1        0.0820
     25 C         -10.9669  -18.7933   24.9910 C.ar    1  UNL1        0.0530
     26 S         -10.3408  -20.1518   24.8805 S.2     1  UNL1       -0.0643
     27 C         -10.5363  -20.6394   23.4754 C.ar    1  UNL1        0.1341
     28 N         -11.2832  -19.5821   22.7176 N.ar    1  UNL1       -0.2392
     29 C          -9.5855  -15.1367   24.5192 C.3     1  UNL1        0.0514
     30 C          -8.1920  -15.3348   25.0380 C.ar    1  UNL1       -0.0203
     31 C          -7.0172  -15.1355   24.1270 C.ar    1  UNL1       -0.0042
     32 C          -5.6238  -15.3335   24.6458 C.ar    1  UNL1       -0.0003
     33 C          -5.4053  -15.7309   26.0756 C.ar    1  UNL1       -0.0000
     34 C          -6.5801  -15.9303   26.9866 C.ar    1  UNL1       -0.0003
     35 C          -7.9735  -15.7322   26.4678 C.ar    1  UNL1       -0.0042
@<TRIPOS>BOND
     1    13    14    1
     2    14    15   ar
     3    15    16   ar
     4    16     5    1
     5     5     6   ar
     6     6     7   ar
     7     7     8   ar
     8     8     9    2
     9     8    10   ar
    10    10     1    1
    11     1     2   am
    12     2     3    2
    13     2    20    1
    14    20    29    1
    15    29    30    1
    16    30    31   ar
    17    31    32   ar
    18    32    33   ar
    19    33    34   ar
    20    34    35   ar
    21    20    21    1
    22    21    23    1
    23    23    24    1
    24    24    25   ar
    25    25    26   ar
    26    26    27   ar
    27    27    28   ar
    28    10    11   ar
    29    16    17   ar
    30    17    18   ar
    31    18    19   ar
    32    19    14   ar
    33    11     5   ar
    34    35    30   ar
    35    28    24   ar
    36     7    12    1
    37     1     4    1
    38    21    22    1
@<TRIPOS>MOLECULE
*****
 35 38 0 0 0
SMALL
GASTEIGER

@<TRIPOS>ATOM
      1 N          -5.7391  -17.7377   22.3184 N.am    1  UNL1       -0.2791
      2 C          -5.6830  -19.2235   22.1202 C.2     1  UNL1        0.2408
      3 O          -6.7875  -20.0923   22.6447 O.2     1  UNL1       -0.2733
      4 H          -5.0141  -17.1675   21.9742 H       1  UNL1        0.1550
      5 C          -9.4636  -16.8377   23.3517 C.ar    1  UNL1        0.0186
      6 C          -9.2212  -15.8868   24.4862 C.ar    1  UNL1        0.0747
      7 N          -7.8180  -15.5529   24.8981 N.ar    1  UNL1       -0.3189
      8 C          -6.6573  -16.1699   24.1755 C.ar    1  UNL1        0.2712
      9 O          -5.2542  -15.8360   24.5874 O.2     1  UNL1       -0.2658
     10 C          -6.8997  -17.1207   23.0410 C.ar    1  UNL1        0.1071
     11 C          -8.3030  -17.4546   22.6291 C.ar    1  UNL1        0.0210
     12 H          -7.6589  -14.9288   25.6427 H       1  UNL1        0.1690
     13 C         -14.2688  -18.3828   24.5859 C.3     1  UNL1        0.0521
     14 C         -13.2694  -17.9441   23.5569 C.ar    1  UNL1        0.0594
     15 C         -11.8662  -17.6102   23.9688 C.ar    1  UNL1        0.0148
     16 C         -10.8668  -17.1715   22.9398 C.ar    1  UNL1        0.0042
     17 C         -11.2706  -17.0667   21.4990 C.ar    1  UNL1        0.0207
     18 C         -12.6738  -17.4006   21.0872 C.ar    1  UNL1        0.0984
     19 N         -13.6731  -17.8393   22.1161 N.ar    1  UNL1       -0.2481
     20 C          -4.5223  -19.8405   21.3977 C.3     1  UNL1        0.1365
     21 N          -4.7517  -20.6152   20.1338 N.3     1  UNL1       -0.2860
     22 H          -3.9007  -21.1491   19.9572 H       1  UNL1        0.1240
     23 C          -5.8956  -21.5812   20.0434 C.3     1  UNL1        0.1160
     24 C          -7.1552  -21.1875   19.3304 C.ar    1  UNL1        0.0820
     25 C          -7.9111  -19.9056   19.5189 C.ar    1  UNL1        0.0530
     26 S          -9.1031  -19.9322   18.6088 S.2     1  UNL1       -0.0643
     27 C          -9.0840  -21.2306   17.8578 C.ar    1  UNL1        0.1341
     28 N          -7.8801  -22.0064   18.3038 N.ar    1  UNL1       -0.2392
     29 C          -3.1323  -19.6828   21.9389 C.3     1  UNL1        0.0514
     30 C          -2.2357  -18.6070   21.4013 C.ar    1  UNL1       -0.0203
     31 C          -1.2460  -18.9263   20.3203 C.ar    1  UNL1       -0.0042
     32 C          -0.3495  -17.8505   19.7827 C.ar    1  UNL1       -0.0003
     33 C          -0.4426  -16.4556   20.3262 C.ar    1  UNL1       -0.0000
     34 C          -1.4323  -16.1363   21.4072 C.ar    1  UNL1       -0.0003
     35 C          -2.3288  -17.2120   21.9447 C.ar    1  UNL1       -0.0042
@<TRIPOS>BOND
     1    13    14    1
     2    14    15   ar
     3    15    16   ar
     4    16     5    1
     5     5     6   ar
     6     6     7   ar
     7     7     8   ar
     8     8     9    2
     9     8    10   ar
    10    10     1    1
    11     1     2   am
    12     2     3    2
    13     2    20    1
    14    20    29    1
    15    29    30    1
    16    30    31   ar
    17    31    32   ar
    18    32    33   ar
    19    33    34   ar
    20    34    35   ar
    21    20    21    1
    22    21    23    1
    23    23    24    1
    24    24    25   ar
    25    25    26   ar
    26    26    27   ar
    27    27    28   ar
    28    10    11   ar
    29    16    17   ar
    30    17    18   ar
    31    18    19   ar
    32    19    14   ar
    33    11     5   ar
    34    35    30   ar
    35    28    24   ar
    36     7    12    1
    37     1     4    1
    38    21    22    1
@<TRIPOS>MOLECULE
*****
 35 38 0 0 0
SMALL
GASTEIGER

@<TRIPOS>ATOM
      1 N          -5.7948  -18.7638   22.2274 N.am    1  UNL1       -0.2791
      2 C          -5.6393  -17.3725   22.7660 C.2     1  UNL1        0.2408
      3 O          -6.6472  -16.3171   22.4193 O.2     1  UNL1       -0.2733
      4 H          -5.1333  -19.4565   22.4550 H       1  UNL1        0.1550
      5 C          -9.4425  -18.7555   20.6640 C.ar    1  UNL1        0.0186
      6 C          -9.2851  -19.7716   19.5719 C.ar    1  UNL1        0.0747
      7 N          -7.9644  -20.4519   19.3650 N.ar    1  UNL1       -0.3189
      8 C          -6.8009  -20.1159   20.2502 C.ar    1  UNL1        0.2712
      9 O          -5.4801  -20.7962   20.0433 O.2     1  UNL1       -0.2658
     10 C          -6.9582  -19.0998   21.3423 C.ar    1  UNL1        0.1071
     11 C          -8.2791  -18.4195   21.5492 C.ar    1  UNL1        0.0210
     12 H          -7.8611  -21.1188   18.6482 H       1  UNL1        0.1690
     13 C         -13.6904  -17.9578   23.5483 C.3     1  UNL1        0.0521
     14 C         -12.8872  -17.6764   22.3130 C.ar    1  UNL1        0.0594
     15 C         -11.5665  -18.3566   22.1061 C.ar    1  UNL1        0.0148
     16 C         -10.7633  -18.0752   20.8709 C.ar    1  UNL1        0.0042
     17 C         -11.2810  -17.1137   19.8426 C.ar    1  UNL1        0.0207
     18 C         -12.6017  -16.4335   20.0495 C.ar    1  UNL1        0.0984
     19 N         -13.4049  -16.7149   21.2847 N.ar    1  UNL1       -0.2481
     20 C          -4.4759  -17.0366   23.6511 C.3     1  UNL1        0.1365
     21 N          -3.2032  -17.8238   23.5482 N.3     1  UNL1       -0.2860
     22 H          -3.0887  -18.3157   24.4344 H       1  UNL1        0.1240
     23 C          -3.0388  -18.8450   22.4619 C.3     1  UNL1        0.1160
     24 C          -2.3352  -18.4790   21.1888 C.ar    1  UNL1        0.0820
     25 C          -2.9907  -18.1889   19.8710 C.ar    1  UNL1        0.0530
     26 S          -1.9131  -17.8694   18.8776 S.2     1  UNL1       -0.0643
     27 C          -0.5916  -17.9621   19.5813 C.ar    1  UNL1        0.1341
     28 N          -0.8525  -18.3389   21.0097 N.ar    1  UNL1       -0.2392
     29 C          -4.5851  -15.9134   24.6393 C.3     1  UNL1        0.0514
     30 C          -5.8168  -15.7749   25.4843 C.ar    1  UNL1       -0.0203
     31 C          -5.7668  -16.1150   26.9443 C.ar    1  UNL1       -0.0042
     32 C          -6.9984  -15.9766   27.7892 C.ar    1  UNL1       -0.0003
     33 C          -8.2800  -15.4979   27.1741 C.ar    1  UNL1       -0.0000
     34 C          -8.3300  -15.1578   25.7141 C.ar    1  UNL1       -0.0003
     35 C          -7.0984  -15.2963   24.8692 C.ar    1  UNL1       -0.0042
@<TRIPOS>BOND
     1    13    14    1
     2    14    15   ar
     3    15    16   ar
     4    16     5    1
     5     5     6   ar
     6     6     7   ar
     7     7     8   ar
     8     8     9    2
     9     8    10   ar
    10    10     1    1
    11     1     2   am
    12     2     3    2
    13     2    20    1
    14    20    29    1
    15    29    30    1
    16    30    31   ar
    17    31    32   ar
    18    32    33   ar
    19    33    34   ar
    20    34    35   ar
    21    20    21    1
    22    21    23    1
    23    23    24    1
    24    24    25   ar
    25    25    26   ar
    26    26    27   ar
    27    27    28   ar
    28    10    11   ar
    29    16    17   ar
    30    17    18   ar
    31    18    19   ar
    32    19    14   ar
    33    11     5   ar
    34    35    30   ar
    35    28    24   ar
    36     7    12    1
    37     1     4    1
    38    21    22    1
@<TRIPOS>MOLECULE
*****
 35 38 0 0 0
SMALL
GASTEIGER

@<TRIPOS>ATOM
      1 N           6.4227   -2.9751   22.2939 N.am    1  UNL1       -0.2791
      2 C           5.0962   -3.2345   21.6435 C.2     1  UNL1        0.2408
      3 O           4.7072   -4.6327   21.2648 O.2     1  UNL1       -0.2733
      4 H           6.6780   -2.0573   22.5425 H       1  UNL1        0.1550
      5 C           8.3016   -5.9168   24.1824 C.ar    1  UNL1        0.0186
      6 C           9.2354   -6.3918   23.1090 C.ar    1  UNL1        0.0747
      7 N           9.2317   -5.7280   21.7639 N.ar    1  UNL1       -0.3189
      8 C           8.2941   -4.5890   21.4922 C.ar    1  UNL1        0.2712
      9 O           8.2904   -3.9252   20.1471 O.2     1  UNL1       -0.2658
     10 C           7.3603   -4.1140   22.5656 C.ar    1  UNL1        0.1071
     11 C           7.3640   -4.7779   23.9107 C.ar    1  UNL1        0.0210
     12 H           9.8447   -6.0398   21.0594 H       1  UNL1        0.1690
     13 C           7.2062   -5.8017   29.2605 C.3     1  UNL1        0.0521
     14 C           7.7576   -6.5231   28.0665 C.ar    1  UNL1        0.0594
     15 C           7.7539   -5.8593   26.7215 C.ar    1  UNL1        0.0148
     16 C           8.3053   -6.5807   25.5275 C.ar    1  UNL1        0.0042
     17 C           8.8604   -7.9659   25.6786 C.ar    1  UNL1        0.0207
     18 C           8.8641   -8.6297   27.0237 C.ar    1  UNL1        0.0984
     19 N           8.3127   -7.9083   28.2177 N.ar    1  UNL1       -0.2481
     20 C           4.1586   -2.0956   21.3719 C.3     1  UNL1        0.1365
     21 N           4.1542   -0.8964   22.2731 N.3     1  UNL1       -0.2860
     22 H           3.7815   -0.1194   21.7274 H       1  UNL1        0.1240
     23 C           3.3859   -0.9289   23.5609 C.3     1  UNL1        0.1160
     24 C           4.0895   -1.2502   24.8461 C.ar    1  UNL1        0.0820
     25 C           3.5777   -0.9643   26.2268 C.ar    1  UNL1        0.0530
     26 S           4.6003   -1.4512   27.2103 S.2     1  UNL1       -0.0643
     27 C           5.7441   -2.0381   26.4374 C.ar    1  UNL1        0.1341
     28 N           5.4284   -1.9138   24.9762 N.ar    1  UNL1       -0.2392
     29 C           3.2254   -2.1558   20.1990 C.3     1  UNL1        0.0514
     30 C           2.4841   -0.9255   19.7665 C.ar    1  UNL1       -0.0203
     31 C           3.1070    0.0174   18.7801 C.ar    1  UNL1       -0.0042
     32 C           2.3657    1.2476   18.3476 C.ar    1  UNL1       -0.0003
     33 C           1.0017    1.5349   18.9015 C.ar    1  UNL1       -0.0000
     34 C           0.3788    0.5920   19.8879 C.ar    1  UNL1       -0.0003
     35 C           1.1201   -0.6382   20.3204 C.ar    1  UNL1       -0.0042
@<TRIPOS>BOND
     1    13    14    1
     2    14    15   ar
     3    15    16   ar
     4    16     5    1
     5     5     6   ar
     6     6     7   ar
     7     7     8   ar
     8     8     9    2
     9     8    10   ar
    10    10     1    1
    11     1     2   am
    12     2     3    2
    13     2    20    1
    14    20    29    1
    15    29    30    1
    16    30    31   ar
    17    31    32   ar
    18    32    33   ar
    19    33    34   ar
    20    34    35   ar
    21    20    21    1
    22    21    23    1
    23    23    24    1
    24    24    25   ar
    25    25    26   ar
    26    26    27   ar
    27    27    28   ar
    28    10    11   ar
    29    16    17   ar
    30    17    18   ar
    31    18    19   ar
    32    19    14   ar
    33    11     5   ar
    34    35    30   ar
    35    28    24   ar
    36     7    12    1
    37     1     4    1
    38    21    22    1
@<TRIPOS>MOLECULE
*****
 35 38 0 0 0
SMALL
GASTEIGER

@<TRIPOS>ATOM
      1 N          -0.8417    1.7192   20.8486 N.am    1  UNL1       -0.2791
      2 C          -0.7460    3.0371   21.5584 C.2     1  UNL1        0.2408
      3 O           0.5282    3.8268   21.5052 O.2     1  UNL1       -0.2733
      4 H          -1.6779    1.2009   20.8835 H       1  UNL1        0.1550
      5 C           2.2863   -0.5105   19.8512 C.ar    1  UNL1        0.0186
      6 C           2.6937    0.1344   18.5597 C.ar    1  UNL1        0.0747
      7 N           1.9228    1.3074   18.0310 N.ar    1  UNL1       -0.3189
      8 C           0.7443    1.8357   18.7940 C.ar    1  UNL1        0.2712
      9 O          -0.0267    3.0088   18.2654 O.2     1  UNL1       -0.2658
     10 C           0.3368    1.1909   20.0856 C.ar    1  UNL1        0.1071
     11 C           1.1078    0.0178   20.6142 C.ar    1  UNL1        0.0210
     12 H           2.1902    1.7306   17.1833 H       1  UNL1        0.1690
     13 C           4.4288   -5.1871   19.1171 C.3     1  UNL1        0.0521
     14 C           4.1286   -4.0219   20.0127 C.ar    1  UNL1        0.0594
     15 C           3.3576   -2.8488   19.4842 C.ar    1  UNL1        0.0148
     16 C           3.0573   -1.6836   20.3798 C.ar    1  UNL1        0.0042
     17 C           3.5280   -1.6915   21.8040 C.ar    1  UNL1        0.0207
     18 C           4.2990   -2.8646   22.3325 C.ar    1  UNL1        0.0984
     19 N           4.5993   -4.0298   21.4369 N.ar    1  UNL1       -0.2481
     20 C          -1.9244    3.5654   22.3214 C.3     1  UNL1        0.1365
     21 N          -3.2867    3.5632   21.6934 N.3     1  UNL1       -0.2860
     22 H          -3.1942    3.0964   20.7912 H       1  UNL1        0.1240
     23 C          -4.4379    2.9127   22.4015 C.3     1  UNL1        0.1160
     24 C          -5.4916    3.7580   23.0534 C.ar    1  UNL1        0.0820
     25 C          -5.4168    4.3567   24.4268 C.ar    1  UNL1        0.0530
     26 S          -6.6841    5.1217   24.6687 S.2     1  UNL1       -0.0643
     27 C          -7.5423    4.9960   23.4448 C.ar    1  UNL1        0.1341
     28 N          -6.8053    4.1531   22.4465 N.ar    1  UNL1       -0.2392
     29 C          -1.7407    4.0959   23.7123 C.3     1  UNL1        0.0514
     30 C          -1.3149    3.1741   24.8165 C.ar    1  UNL1       -0.0203
     31 C          -1.9781    3.2558   26.1593 C.ar    1  UNL1       -0.0042
     32 C          -1.5524    2.3340   27.2634 C.ar    1  UNL1       -0.0003
     33 C          -0.4634    1.3305   27.0245 C.ar    1  UNL1       -0.0000
     34 C           0.1999    1.2488   25.6816 C.ar    1  UNL1       -0.0003
     35 C          -0.2259    2.1706   24.5776 C.ar    1  UNL1       -0.0042
@<TRIPOS>BOND
     1    13    14    1
     2    14    15   ar
     3    15    16   ar
     4    16     5    1
     5     5     6   ar
     6     6     7   ar
     7     7     8   ar
     8     8     9    2
     9     8    10   ar
    10    10     1    1
    11     1     2   am
    12     2     3    2
    13     2    20    1
    14    20    29    1
    15    29    30    1
    16    30    31   ar
    17    31    32   ar
    18    32    33   ar
    19    33    34   ar
    20    34    35   ar
    21    20    21    1
    22    21    23    1
    23    23    24    1
    24    24    25   ar
    25    25    26   ar
    26    26    27   ar
    27    27    28   ar
    28    10    11   ar
    29    16    17   ar
    30    17    18   ar
    31    18    19   ar
    32    19    14   ar
    33    11     5   ar
    34    35    30   ar
    35    28    24   ar
    36     7    12    1
    37     1     4    1
    38    21    22    1
