@<TRIPOS>MOLECULE
*****
 22 25 0 0 0
SMALL
GASTEIGER

@<TRIPOS>ATOM
      1 O          -9.1084  -21.2230   24.5283 O.2     1  UNL1       -0.2638
      2 C          -9.4079  -20.1738   23.4989 C.2     1  UNL1        0.3160
      3 N         -10.8119  -19.6766   23.3212 N.am    1  UNL1       -0.1720
      4 C         -11.1113  -18.6273   22.2918 C.ar    1  UNL1        0.0775
      5 C         -12.5153  -18.1302   22.1141 C.ar    1  UNL1        0.0176
      6 C         -12.8147  -17.0810   21.0848 C.ar    1  UNL1        0.0127
      7 C         -11.7101  -16.5290   20.2332 C.ar    1  UNL1        0.0579
      8 CL        -12.0096  -15.4797   19.2039 Cl      1  UNL1       -0.0822
      9 C         -10.3061  -17.0262   20.4109 C.ar    1  UNL1        0.0165
     10 C         -10.0067  -18.0753   21.4402 C.ar    1  UNL1        0.0631
     11 C          -8.6027  -18.5726   21.6180 C.2     1  UNL1        0.2419
     12 N          -7.3179  -18.2182   20.9299 N.2     1  UNL1       -0.0302
     13 C          -6.2243  -19.0485   21.5340 C.2     1  UNL1        0.3765
     14 N          -6.8334  -19.9159   22.5954 N.2     1  UNL1       -0.0256
     15 C          -8.3033  -19.6218   22.6473 C.2     1  UNL1        0.2907
     16 C          -4.7759  -19.0168   21.1449 C.ar    1  UNL1        0.0989
     17 C          -4.3530  -19.4979   19.7886 C.ar    1  UNL1        0.0085
     18 C          -2.9047  -19.4663   19.3996 C.ar    1  UNL1        0.0003
     19 C          -1.8793  -18.9535   20.3669 C.ar    1  UNL1        0.0009
     20 C          -2.3023  -18.4723   21.7232 C.ar    1  UNL1        0.0116
     21 C          -3.7506  -18.5040   22.1122 C.ar    1  UNL1        0.0651
     22 CL         -4.1736  -18.0229   23.4685 Cl      1  UNL1       -0.0820
@<TRIPOS>BOND
     1     1     2    2
     2     2     3    1
     3     3     4    2
     4     4     5   ar
     5     5     6   ar
     6     6     7   ar
     7     7     8    1
     8     7     9   ar
     9     9    10   ar
    10    10    11    2
    11    11    12    1
    12    12    13    2
    13    13    16    1
    14    16    17   ar
    15    17    18   ar
    16    18    19   ar
    17    19    20   ar
    18    20    21   ar
    19    21    22    1
    20    13    14    1
    21    14    15    2
    22    15     2    1
    23    10     4   ar
    24    15    11    1
    25    21    16   ar
@<TRIPOS>MOLECULE
*****
 22 25 0 0 0
SMALL
GASTEIGER

@<TRIPOS>ATOM
      1 O          -5.3687  -14.7816   24.9798 O.2     1  UNL1       -0.2638
      2 C          -5.3339  -15.9592   24.0513 C.2     1  UNL1        0.3160
      3 N          -4.0222  -16.4581   23.5216 N.am    1  UNL1       -0.1720
      4 C          -3.9873  -17.6357   22.5931 C.ar    1  UNL1        0.0775
      5 C          -2.6757  -18.1346   22.0634 C.ar    1  UNL1        0.0176
      6 C          -2.6409  -19.3122   21.1350 C.ar    1  UNL1        0.0127
      7 C          -3.9177  -19.9909   20.7363 C.ar    1  UNL1        0.0579
      8 CL         -3.8829  -21.1686   19.8078 Cl      1  UNL1       -0.0822
      9 C          -5.2294  -19.4921   21.2660 C.ar    1  UNL1        0.0165
     10 C          -5.2642  -18.3145   22.1944 C.ar    1  UNL1        0.0631
     11 C          -6.5759  -17.8156   22.7242 C.2     1  UNL1        0.2419
     12 N          -7.9864  -18.2783   22.5092 N.2     1  UNL1       -0.0302
     13 C          -8.8931  -17.3866   23.3048 C.2     1  UNL1        0.3765
     14 N          -8.0428  -16.3728   24.0115 N.2     1  UNL1       -0.0256
     15 C          -6.6107  -16.6380   23.6526 C.2     1  UNL1        0.2907
     16 C         -10.3876  -17.4904   23.3804 C.ar    1  UNL1        0.0989
     17 C         -11.2457  -16.5671   22.5674 C.ar    1  UNL1        0.0085
     18 C         -12.7401  -16.6710   22.6431 C.ar    1  UNL1        0.0003
     19 C         -13.3765  -17.6982   23.5318 C.ar    1  UNL1        0.0009
     20 C         -12.5184  -18.6216   24.3448 C.ar    1  UNL1        0.0116
     21 C         -11.0240  -18.5177   24.2691 C.ar    1  UNL1        0.0651
     22 CL        -10.1658  -19.4411   25.0822 Cl      1  UNL1       -0.0820
@<TRIPOS>BOND
     1     1     2    2
     2     2     3    1
     3     3     4    2
     4     4     5   ar
     5     5     6   ar
     6     6     7   ar
     7     7     8    1
     8     7     9   ar
     9     9    10   ar
    10    10    11    2
    11    11    12    1
    12    12    13    2
    13    13    16    1
    14    16    17   ar
    15    17    18   ar
    16    18    19   ar
    17    19    20   ar
    18    20    21   ar
    19    21    22    1
    20    13    14    1
    21    14    15    2
    22    15     2    1
    23    10     4   ar
    24    15    11    1
    25    21    16   ar
@<TRIPOS>MOLECULE
*****
 22 25 0 0 0
SMALL
GASTEIGER

@<TRIPOS>ATOM
      1 O          -9.5415  -19.4978   25.6236 O.2     1  UNL1       -0.2638
      2 C          -9.7711  -18.7879   24.3222 C.2     1  UNL1        0.3160
      3 N         -11.1138  -18.1916   24.0199 N.am    1  UNL1       -0.1720
      4 C         -11.3433  -17.4817   22.7185 C.ar    1  UNL1        0.0775
      5 C         -12.6860  -16.8854   22.4162 C.ar    1  UNL1        0.0176
      6 C         -12.9155  -16.1755   21.1149 C.ar    1  UNL1        0.0127
      7 C         -11.8023  -16.0620   20.1160 C.ar    1  UNL1        0.0579
      8 CL        -12.0318  -15.3521   18.8146 Cl      1  UNL1       -0.0822
      9 C         -10.4596  -16.6583   20.4183 C.ar    1  UNL1        0.0165
     10 C         -10.2301  -17.3681   21.7196 C.ar    1  UNL1        0.0631
     11 C          -8.8873  -17.9645   22.0220 C.2     1  UNL1        0.2419
     12 N          -7.6097  -18.0102   21.2374 N.2     1  UNL1       -0.0302
     13 C          -6.5906  -18.7484   22.0539 C.2     1  UNL1        0.3765
     14 N          -7.2384  -19.1588   23.3430 N.2     1  UNL1       -0.0256
     15 C          -8.6578  -18.6744   23.3233 C.2     1  UNL1        0.2907
     16 C          -5.1726  -19.0271   21.6517 C.ar    1  UNL1        0.0989
     17 C          -4.0512  -18.2408   22.2632 C.ar    1  UNL1        0.0085
     18 C          -2.6333  -18.5195   21.8610 C.ar    1  UNL1        0.0003
     19 C          -2.3368  -19.5847   20.8473 C.ar    1  UNL1        0.0009
     20 C          -3.4582  -20.3711   20.2358 C.ar    1  UNL1        0.0116
     21 C          -4.8761  -20.0923   20.6380 C.ar    1  UNL1        0.0651
     22 CL         -5.9976  -20.8787   20.0265 Cl      1  UNL1       -0.0820
@<TRIPOS>BOND
     1     1     2    2
     2     2     3    1
     3     3     4    2
     4     4     5   ar
     5     5     6   ar
     6     6     7   ar
     7     7     8    1
     8     7     9   ar
     9     9    10   ar
    10    10    11    2
    11    11    12    1
    12    12    13    2
    13    13    16    1
    14    16    17   ar
    15    17    18   ar
    16    18    19   ar
    17    19    20   ar
    18    20    21   ar
    19    21    22    1
    20    13    14    1
    21    14    15    2
    22    15     2    1
    23    10     4   ar
    24    15    11    1
    25    21    16   ar
@<TRIPOS>MOLECULE
*****
 22 25 0 0 0
SMALL
GASTEIGER

@<TRIPOS>ATOM
      1 O          -9.1618  -20.3745   18.0627 O.2     1  UNL1       -0.2638
      2 C          -9.0390  -19.8887   19.4766 C.2     1  UNL1        0.3160
      3 N         -10.2528  -19.8240   20.3555 N.am    1  UNL1       -0.1720
      4 C         -10.1300  -19.3382   21.7694 C.ar    1  UNL1        0.0775
      5 C         -11.3438  -19.2735   22.6482 C.ar    1  UNL1        0.0176
      6 C         -11.2210  -18.7877   24.0620 C.ar    1  UNL1        0.0127
      7 C          -9.8844  -18.3667   24.5970 C.ar    1  UNL1        0.0579
      8 CL         -9.7616  -17.8809   26.0109 Cl      1  UNL1       -0.0822
      9 C          -8.6706  -18.4314   23.7181 C.ar    1  UNL1        0.0165
     10 C          -8.7934  -18.9172   22.3043 C.ar    1  UNL1        0.0631
     11 C          -7.5796  -18.9819   21.4254 C.2     1  UNL1        0.2419
     12 N          -6.1412  -18.6361   21.6735 N.2     1  UNL1       -0.0302
     13 C          -5.3751  -18.9082   20.4129 C.2     1  UNL1        0.3765
     14 N          -6.3399  -19.4221   19.3858 N.2     1  UNL1       -0.0256
     15 C          -7.7024  -19.4677   20.0116 C.2     1  UNL1        0.2907
     16 C          -3.9025  -18.7025   20.2144 C.ar    1  UNL1        0.0989
     17 C          -3.3916  -18.1380   18.9220 C.ar    1  UNL1        0.0085
     18 C          -1.9192  -17.9323   18.7235 C.ar    1  UNL1        0.0003
     19 C          -0.9576  -18.2911   19.8174 C.ar    1  UNL1        0.0009
     20 C          -1.4684  -18.8555   21.1098 C.ar    1  UNL1        0.0116
     21 C          -2.9409  -19.0613   21.3083 C.ar    1  UNL1        0.0651
     22 CL         -3.4519  -19.6258   22.6007 Cl      1  UNL1       -0.0820
@<TRIPOS>BOND
     1     1     2    2
     2     2     3    1
     3     3     4    2
     4     4     5   ar
     5     5     6   ar
     6     6     7   ar
     7     7     8    1
     8     7     9   ar
     9     9    10   ar
    10    10    11    2
    11    11    12    1
    12    12    13    2
    13    13    16    1
    14    16    17   ar
    15    17    18   ar
    16    18    19   ar
    17    19    20   ar
    18    20    21   ar
    19    21    22    1
    20    13    14    1
    21    14    15    2
    22    15     2    1
    23    10     4   ar
    24    15    11    1
    25    21    16   ar
@<TRIPOS>MOLECULE
*****
 22 25 0 0 0
SMALL
GASTEIGER

@<TRIPOS>ATOM
      1 O         -12.5051  -16.1730   21.4451 O.2     1  UNL1       -0.2638
      2 C         -11.3142  -17.0590   21.2285 C.2     1  UNL1        0.3160
      3 N         -11.2835  -18.0025   20.0629 N.am    1  UNL1       -0.1720
      4 C         -10.0926  -18.8886   19.8463 C.ar    1  UNL1        0.0775
      5 C         -10.0619  -19.8321   18.6807 C.ar    1  UNL1        0.0176
      6 C          -8.8711  -20.7181   18.4641 C.ar    1  UNL1        0.0127
      7 C          -7.7110  -20.6605   19.4133 C.ar    1  UNL1        0.0579
      8 CL         -6.5201  -21.5465   19.1967 Cl      1  UNL1       -0.0822
      9 C          -7.7417  -19.7170   20.5789 C.ar    1  UNL1        0.0165
     10 C          -8.9325  -18.8310   20.7954 C.ar    1  UNL1        0.0631
     11 C          -8.9633  -17.8874   21.9611 C.2     1  UNL1        0.2419
     12 N          -7.9751  -17.6115   23.0553 N.2     1  UNL1       -0.0302
     13 C          -8.5553  -16.5550   23.9482 C.2     1  UNL1        0.3765
     14 N          -9.9020  -16.1779   23.4057 N.2     1  UNL1       -0.0256
     15 C         -10.1541  -17.0014   22.1776 C.2     1  UNL1        0.2907
     16 C          -7.9032  -15.9769   25.1692 C.ar    1  UNL1        0.0989
     17 C          -8.6770  -15.8609   26.4489 C.ar    1  UNL1        0.0085
     18 C          -8.0249  -15.2829   27.6698 C.ar    1  UNL1        0.0003
     19 C          -6.5990  -14.8210   27.6110 C.ar    1  UNL1        0.0009
     20 C          -5.8252  -14.9370   26.3312 C.ar    1  UNL1        0.0116
     21 C          -6.4773  -15.5150   25.1103 C.ar    1  UNL1        0.0651
     22 CL         -5.7035  -15.6310   23.8305 Cl      1  UNL1       -0.0820
@<TRIPOS>BOND
     1     1     2    2
     2     2     3    1
     3     3     4    2
     4     4     5   ar
     5     5     6   ar
     6     6     7   ar
     7     7     8    1
     8     7     9   ar
     9     9    10   ar
    10    10    11    2
    11    11    12    1
    12    12    13    2
    13    13    16    1
    14    16    17   ar
    15    17    18   ar
    16    18    19   ar
    17    19    20   ar
    18    20    21   ar
    19    21    22    1
    20    13    14    1
    21    14    15    2
    22    15     2    1
    23    10     4   ar
    24    15    11    1
    25    21    16   ar
@<TRIPOS>MOLECULE
*****
 22 25 0 0 0
SMALL
GASTEIGER

@<TRIPOS>ATOM
      1 O         -15.3205   -2.3628   19.5985 O.2     1  UNL1       -0.2638
      2 C         -14.4203   -3.5476   19.4085 C.2     1  UNL1        0.3160
      3 N         -12.9338   -3.3576   19.3448 N.am    1  UNL1       -0.1720
      4 C         -12.0337   -4.5424   19.1548 C.ar    1  UNL1        0.0775
      5 C         -10.5472   -4.3524   19.0912 C.ar    1  UNL1        0.0176
      6 C          -9.6471   -5.5371   18.9012 C.ar    1  UNL1        0.0127
      7 C         -10.2335   -6.9120   18.7749 C.ar    1  UNL1        0.0579
      8 CL         -9.3334   -8.0968   18.5849 Cl      1  UNL1       -0.0822
      9 C         -11.7200   -7.1020   18.8386 C.ar    1  UNL1        0.0165
     10 C         -12.6201   -5.9172   19.0285 C.ar    1  UNL1        0.0631
     11 C         -14.1067   -6.1072   19.0922 C.2     1  UNL1        0.2419
     12 N         -14.9668   -7.3326   18.9991 N.2     1  UNL1       -0.0302
     13 C         -16.3985   -6.9052   19.1316 C.2     1  UNL1        0.3765
     14 N         -16.4232   -5.4156   19.3065 N.2     1  UNL1       -0.0256
     15 C         -15.0068   -4.9225   19.2822 C.2     1  UNL1        0.2907
     16 C         -17.5954   -7.8087   19.0954 C.ar    1  UNL1        0.0989
     17 C         -18.3909   -8.0500   20.3440 C.ar    1  UNL1        0.0085
     18 C         -19.5876   -8.9535   20.3078 C.ar    1  UNL1        0.0003
     19 C         -19.9889   -9.6156   19.0231 C.ar    1  UNL1        0.0009
     20 C         -19.1934   -9.3743   17.7745 C.ar    1  UNL1        0.0116
     21 C         -17.9966   -8.4708   17.8107 C.ar    1  UNL1        0.0651
     22 CL        -17.2011   -8.2294   16.5621 Cl      1  UNL1       -0.0820
@<TRIPOS>BOND
     1     1     2    2
     2     2     3    1
     3     3     4    2
     4     4     5   ar
     5     5     6   ar
     6     6     7   ar
     7     7     8    1
     8     7     9   ar
     9     9    10   ar
    10    10    11    2
    11    11    12    1
    12    12    13    2
    13    13    16    1
    14    16    17   ar
    15    17    18   ar
    16    18    19   ar
    17    19    20   ar
    18    20    21   ar
    19    21    22    1
    20    13    14    1
    21    14    15    2
    22    15     2    1
    23    10     4   ar
    24    15    11    1
    25    21    16   ar
@<TRIPOS>MOLECULE
*****
 22 25 0 0 0
SMALL
GASTEIGER

@<TRIPOS>ATOM
      1 O          -7.3345  -21.7814   18.7844 O.2     1  UNL1       -0.2638
      2 C          -6.6175  -20.8796   19.7451 C.2     1  UNL1        0.3160
      3 N          -5.1208  -20.9181   19.8353 N.am    1  UNL1       -0.1720
      4 C          -4.4038  -20.0163   20.7960 C.ar    1  UNL1        0.0775
      5 C          -2.9071  -20.0547   20.8862 C.ar    1  UNL1        0.0176
      6 C          -2.1902  -19.1530   21.8468 C.ar    1  UNL1        0.0127
      7 C          -2.9701  -18.2128   22.7173 C.ar    1  UNL1        0.0579
      8 CL         -2.2532  -17.3110   23.6780 Cl      1  UNL1       -0.0822
      9 C          -4.4669  -18.1743   22.6272 C.ar    1  UNL1        0.0165
     10 C          -5.1837  -19.0761   21.6665 C.ar    1  UNL1        0.0631
     11 C          -6.6806  -19.0376   21.5763 C.2     1  UNL1        0.2419
     12 N          -7.7091  -18.2216   22.3016 N.2     1  UNL1       -0.0302
     13 C          -9.0617  -18.6190   21.7892 C.2     1  UNL1        0.3765
     14 N          -8.8691  -19.6806   20.7472 N.2     1  UNL1       -0.0256
     15 C          -7.3974  -19.9394   20.6156 C.2     1  UNL1        0.2907
     16 C         -10.3762  -18.0539   22.2398 C.ar    1  UNL1        0.0989
     17 C         -10.8519  -16.7383   21.6987 C.ar    1  UNL1        0.0085
     18 C         -12.1664  -16.1733   22.1493 C.ar    1  UNL1        0.0003
     19 C         -13.0050  -16.9240   23.1409 C.ar    1  UNL1        0.0009
     20 C         -12.5292  -18.2396   23.6819 C.ar    1  UNL1        0.0116
     21 C         -11.2148  -18.8046   23.2313 C.ar    1  UNL1        0.0651
     22 CL        -10.7390  -20.1202   23.7724 Cl      1  UNL1       -0.0820
@<TRIPOS>BOND
     1     1     2    2
     2     2     3    1
     3     3     4    2
     4     4     5   ar
     5     5     6   ar
     6     6     7   ar
     7     7     8    1
     8     7     9   ar
     9     9    10   ar
    10    10    11    2
    11    11    12    1
    12    12    13    2
    13    13    16    1
    14    16    17   ar
    15    17    18   ar
    16    18    19   ar
    17    19    20   ar
    18    20    21   ar
    19    21    22    1
    20    13    14    1
    21    14    15    2
    22    15     2    1
    23    10     4   ar
    24    15    11    1
    25    21    16   ar
@<TRIPOS>MOLECULE
*****
 22 25 0 0 0
SMALL
GASTEIGER

@<TRIPOS>ATOM
      1 O          -6.0745  -14.7931   25.5625 O.2     1  UNL1       -0.2638
      2 C          -6.7376  -15.8325   24.7080 C.2     1  UNL1        0.3160
      3 N          -8.1918  -16.1456   24.9007 N.am    1  UNL1       -0.1720
      4 C          -8.8549  -17.1850   24.0462 C.ar    1  UNL1        0.0775
      5 C         -10.3091  -17.4980   24.2389 C.ar    1  UNL1        0.0176
      6 C         -10.9721  -18.5374   23.3845 C.ar    1  UNL1        0.0127
      7 C         -10.1809  -19.2637   22.3373 C.ar    1  UNL1        0.0579
      8 CL        -10.8439  -20.3031   21.4829 Cl      1  UNL1       -0.0822
      9 C          -8.7266  -18.9506   22.1447 C.ar    1  UNL1        0.0165
     10 C          -8.0637  -17.9112   22.9991 C.ar    1  UNL1        0.0631
     11 C          -6.6094  -17.5981   22.8064 C.2     1  UNL1        0.2419
     12 N          -5.5813  -18.1462   21.8616 N.2     1  UNL1       -0.0302
     13 C          -4.2829  -17.4455   22.1322 C.2     1  UNL1        0.3765
     14 N          -4.5085  -16.4645   23.2441 N.2     1  UNL1       -0.0256
     15 C          -5.9464  -16.5588   23.6609 C.2     1  UNL1        0.2907
     16 C          -2.9864  -17.6841   21.4163 C.ar    1  UNL1        0.0989
     17 C          -2.0058  -16.5619   21.2467 C.ar    1  UNL1        0.0085
     18 C          -0.7094  -16.8005   20.5309 C.ar    1  UNL1        0.0003
     19 C          -0.3937  -18.1614   19.9847 C.ar    1  UNL1        0.0009
     20 C          -1.3744  -19.2836   20.1543 C.ar    1  UNL1        0.0116
     21 C          -2.6707  -19.0450   20.8701 C.ar    1  UNL1        0.0651
     22 CL         -3.6515  -20.1673   21.0397 Cl      1  UNL1       -0.0820
@<TRIPOS>BOND
     1     1     2    2
     2     2     3    1
     3     3     4    2
     4     4     5   ar
     5     5     6   ar
     6     6     7   ar
     7     7     8    1
     8     7     9   ar
     9     9    10   ar
    10    10    11    2
    11    11    12    1
    12    12    13    2
    13    13    16    1
    14    16    17   ar
    15    17    18   ar
    16    18    19   ar
    17    19    20   ar
    18    20    21   ar
    19    21    22    1
    20    13    14    1
    21    14    15    2
    22    15     2    1
    23    10     4   ar
    24    15    11    1
    25    21    16   ar
@<TRIPOS>MOLECULE
*****
 22 25 0 0 0
SMALL
GASTEIGER

@<TRIPOS>ATOM
      1 O          -8.8030  -21.1523   18.1625 O.2     1  UNL1       -0.2638
      2 C          -9.1123  -20.0901   19.1755 C.2     1  UNL1        0.3160
      3 N         -10.5215  -19.6061   19.3484 N.am    1  UNL1       -0.1720
      4 C         -10.8308  -18.5439   20.3614 C.ar    1  UNL1        0.0775
      5 C         -12.2399  -18.0600   20.5343 C.ar    1  UNL1        0.0176
      6 C         -12.5492  -16.9978   21.5473 C.ar    1  UNL1        0.0127
      7 C         -11.4492  -16.4196   22.3874 C.ar    1  UNL1        0.0579
      8 CL        -11.7585  -15.3574   23.4004 Cl      1  UNL1       -0.0822
      9 C         -10.0400  -16.9036   22.2145 C.ar    1  UNL1        0.0165
     10 C          -9.7308  -17.9657   21.2015 C.ar    1  UNL1        0.0631
     11 C          -8.3215  -18.4497   21.0286 C.2     1  UNL1        0.2419
     12 N          -7.0394  -18.0697   21.7081 N.2     1  UNL1       -0.0302
     13 C          -5.9377  -18.8971   21.1149 C.2     1  UNL1        0.3765
     14 N          -6.5390  -19.7884   20.0690 N.2     1  UNL1       -0.0256
     15 C          -8.0123  -19.5119   20.0157 C.2     1  UNL1        0.2907
     16 C          -4.4890  -18.8427   21.5002 C.ar    1  UNL1        0.0989
     17 C          -4.0379  -17.9206   22.5939 C.ar    1  UNL1        0.0085
     18 C          -2.5893  -17.8662   22.9791 C.ar    1  UNL1        0.0003
     19 C          -1.5917  -18.7339   22.2706 C.ar    1  UNL1        0.0009
     20 C          -2.0428  -19.6560   21.1769 C.ar    1  UNL1        0.0116
     21 C          -3.4914  -19.7104   20.7917 C.ar    1  UNL1        0.0651
     22 CL         -3.9426  -20.6325   19.6979 Cl      1  UNL1       -0.0820
@<TRIPOS>BOND
     1     1     2    2
     2     2     3    1
     3     3     4    2
     4     4     5   ar
     5     5     6   ar
     6     6     7   ar
     7     7     8    1
     8     7     9   ar
     9     9    10   ar
    10    10    11    2
    11    11    12    1
    12    12    13    2
    13    13    16    1
    14    16    17   ar
    15    17    18   ar
    16    18    19   ar
    17    19    20   ar
    18    20    21   ar
    19    21    22    1
    20    13    14    1
    21    14    15    2
    22    15     2    1
    23    10     4   ar
    24    15    11    1
    25    21    16   ar
