@<TRIPOS>MOLECULE
*****
 33 37 0 0 0
SMALL
GASTEIGER

@<TRIPOS>ATOM
      1 N          -3.3840  -19.3740   20.6756 N.3     1  UNL1       -0.2726
      2 C          -2.1305  -18.9327   19.9800 C.3     1  UNL1        0.0721
      3 C          -1.7232  -17.6084   20.5548 C.3     1  UNL1        0.0190
      4 C          -2.7250  -17.2313   21.6056 C.3     1  UNL1        0.0201
      5 C          -2.0800  -15.9290   21.9770 C.3     1  UNL1        0.0061
      6 C          -3.3335  -16.3703   22.6726 C.3     1  UNL1        0.0237
      7 C          -3.7514  -18.3225   21.6803 C.3     1  UNL1        0.0724
      8 C          -4.4086  -16.1280   23.6901 C.ar    1  UNL1       -0.0225
      9 C          -5.6345  -15.3492   23.3151 C.ar    1  UNL1       -0.0043
     10 C          -6.7096  -15.1069   24.3327 C.ar    1  UNL1        0.0035
     11 C          -6.5588  -15.6435   25.7253 C.ar    1  UNL1        0.0714
     12 C          -5.3329  -16.4224   26.1003 C.ar    1  UNL1        0.0035
     13 C          -4.2579  -16.6646   25.0827 C.ar    1  UNL1       -0.0043
     14 C          -7.6339  -15.4013   26.7428 C.3     1  UNL1        0.4186
     15 F          -8.7091  -15.1590   27.7604 F       1  UNL1       -0.1659
     16 F          -6.6741  -15.7529   27.8406 F       1  UNL1       -0.1659
     17 F          -8.5937  -15.0496   25.6450 F       1  UNL1       -0.1659
     18 C          -4.1379  -20.6439   20.4126 C.3     1  UNL1        0.0730
     19 C          -5.5213  -20.8227   20.9640 C.3     1  UNL1        0.0294
     20 C          -6.7139  -20.6295   20.0749 C.3     1  UNL1        0.0666
     21 S          -7.4090  -19.3010   20.0306 S.3     1  UNL1       -0.0756
     22 C         -10.0344  -18.3675   22.7328 C.ar    1  UNL1        0.2029
     23 N          -8.7789  -17.8246   23.3485 N.ar    1  UNL1       -0.1250
     24 N          -7.6426  -18.1082   22.4113 N.ar    1  UNL1       -0.1220
     25 C          -8.1958  -18.8264   21.2162 C.ar    1  UNL1        0.1933
     26 N          -9.6740  -18.9866   21.4148 N.ar    1  UNL1       -0.2860
     27 C         -10.6248  -19.6496   20.4628 C.3     1  UNL1        0.1341
     28 C         -12.6064  -16.8118   21.4622 C.3     1  UNL1        0.0556
     29 C         -12.5910  -17.5875   22.7460 C.ar    1  UNL1        0.1001
     30 N         -13.7552  -17.7844   23.6711 N.ar    1  UNL1       -0.2085
     31 C         -13.2925  -18.6211   24.8269 C.ar    1  UNL1        0.2849
     32 O         -11.8423  -18.9414   24.6161 O.2     1  UNL1       -0.4283
     33 C         -11.4088  -18.3026   23.3300 C.ar    1  UNL1        0.1964
@<TRIPOS>BOND
     1    28    29    1
     2    29    30   ar
     3    30    31   ar
     4    31    32   ar
     5    32    33   ar
     6    33    22    1
     7    22    23   ar
     8    23    24   ar
     9    24    25   ar
    10    25    21    1
    11    21    20    1
    12    20    19    1
    13    19    18    1
    14    18     1    1
    15     1     2    1
    16     2     3    1
    17     4     3    1
    18     4     5    1
    19     5     6    1
    20     6     8    1
    21     8     9   ar
    22     9    10   ar
    23    10    11   ar
    24    11    14    1
    25    14    15    1
    26    14    16    1
    27    14    17    1
    28    11    12   ar
    29    12    13   ar
    30     4     7    1
    31    25    26   ar
    32    26    27    1
    33    33    29   ar
    34    26    22   ar
    35     7     1    1
    36     6     4    1
    37    13     8   ar
@<TRIPOS>MOLECULE
*****
 33 37 0 0 0
SMALL
GASTEIGER

@<TRIPOS>ATOM
      1 N          -8.6774  -16.0882   23.5928 N.3     1  UNL1       -0.2726
      2 C          -9.0271  -15.5161   24.9345 C.3     1  UNL1        0.0721
      3 C          -7.7543  -15.3355   25.7074 C.3     1  UNL1        0.0190
      4 C          -6.6180  -15.7960   24.8433 C.3     1  UNL1        0.0201
      5 C          -5.5354  -15.5065   25.8404 C.3     1  UNL1        0.0061
      6 C          -5.1857  -16.0786   24.4986 C.3     1  UNL1        0.0237
      7 C          -7.1885  -16.2612   23.5363 C.3     1  UNL1        0.0724
      8 C          -4.1569  -16.5721   23.5249 C.ar    1  UNL1       -0.0225
      9 C          -3.3882  -15.5945   22.6862 C.ar    1  UNL1       -0.0043
     10 C          -2.3594  -16.0879   21.7125 C.ar    1  UNL1        0.0035
     11 C          -2.0993  -17.5590   21.5776 C.ar    1  UNL1        0.0714
     12 C          -2.8680  -18.5367   22.4163 C.ar    1  UNL1        0.0035
     13 C          -3.8968  -18.0432   23.3899 C.ar    1  UNL1       -0.0043
     14 C          -1.0706  -18.0525   20.6039 C.3     1  UNL1        0.4186
     15 F          -0.0417  -18.5459   19.6302 F       1  UNL1       -0.1659
     16 F          -1.5498  -19.4588   20.8102 F       1  UNL1       -0.1659
     17 F          -0.5913  -16.6462   20.3976 F       1  UNL1       -0.1659
     18 C          -9.6465  -16.4278   22.4993 C.3     1  UNL1        0.0730
     19 C         -11.0825  -16.7079   22.8301 C.3     1  UNL1        0.0294
     20 C         -11.8392  -17.7515   22.0629 C.3     1  UNL1        0.0666
     21 S         -11.3369  -19.1643   22.0229 S.3     1  UNL1       -0.0756
     22 C          -7.5329  -19.6554   21.4280 C.ar    1  UNL1        0.2029
     23 N          -7.6563  -20.0624   22.8664 N.ar    1  UNL1       -0.1250
     24 N          -9.0963  -19.9279   23.2644 N.ar    1  UNL1       -0.1220
     25 C          -9.8629  -19.4379   22.0718 C.ar    1  UNL1        0.1933
     26 N          -8.8967  -19.2694   20.9369 N.ar    1  UNL1       -0.2860
     27 C          -9.2350  -18.7978   19.5537 C.3     1  UNL1        0.1341
     28 C          -5.7473  -22.2593   20.6028 C.3     1  UNL1        0.0556
     29 C          -5.4471  -20.8344   20.2428 C.ar    1  UNL1        0.1001
     30 N          -4.2735  -20.3561   19.4404 N.ar    1  UNL1       -0.2085
     31 C          -4.3690  -18.8637   19.3237 C.ar    1  UNL1        0.2849
     32 O          -5.6016  -18.4196   20.0540 O.2     1  UNL1       -0.4283
     33 C          -6.2679  -19.6375   20.6221 C.ar    1  UNL1        0.1964
@<TRIPOS>BOND
     1    28    29    1
     2    29    30   ar
     3    30    31   ar
     4    31    32   ar
     5    32    33   ar
     6    33    22    1
     7    22    23   ar
     8    23    24   ar
     9    24    25   ar
    10    25    21    1
    11    21    20    1
    12    20    19    1
    13    19    18    1
    14    18     1    1
    15     1     2    1
    16     2     3    1
    17     4     3    1
    18     4     5    1
    19     5     6    1
    20     6     8    1
    21     8     9   ar
    22     9    10   ar
    23    10    11   ar
    24    11    14    1
    25    14    15    1
    26    14    16    1
    27    14    17    1
    28    11    12   ar
    29    12    13   ar
    30     4     7    1
    31    25    26   ar
    32    26    27    1
    33    33    29   ar
    34    26    22   ar
    35     7     1    1
    36     6     4    1
    37    13     8   ar
@<TRIPOS>MOLECULE
*****
 33 37 0 0 0
SMALL
GASTEIGER

@<TRIPOS>ATOM
      1 N          -2.9581  -19.4654   21.0225 N.3     1  UNL1       -0.2726
      2 C          -1.8020  -18.9310   20.2301 C.3     1  UNL1        0.0721
      3 C          -1.5681  -17.5107   20.6519 C.3     1  UNL1        0.0190
      4 C          -2.5795  -17.1673   21.7050 C.3     1  UNL1        0.0201
      5 C          -2.1137  -15.7571   21.9159 C.3     1  UNL1        0.0061
      6 C          -3.2698  -16.2915   22.7084 C.3     1  UNL1        0.0237
      7 C          -3.4386  -18.3754   21.9341 C.3     1  UNL1        0.0724
      8 C          -4.3357  -16.0945   23.7451 C.ar    1  UNL1       -0.0225
      9 C          -4.1787  -16.7027   25.1073 C.ar    1  UNL1       -0.0043
     10 C          -5.2446  -16.5057   26.1440 C.ar    1  UNL1        0.0035
     11 C          -6.4676  -15.7004   25.8187 C.ar    1  UNL1        0.0714
     12 C          -6.6246  -15.0921   24.4565 C.ar    1  UNL1        0.0035
     13 C          -5.5586  -15.2892   23.4198 C.ar    1  UNL1       -0.0043
     14 C          -7.5335  -15.5034   26.8555 C.3     1  UNL1        0.4186
     15 F          -8.5995  -15.3063   27.8923 F       1  UNL1       -0.1659
     16 F          -6.5614  -14.7465   27.7111 F       1  UNL1       -0.1659
     17 F          -8.5056  -16.2602   25.9998 F       1  UNL1       -0.1659
     18 C          -3.5327  -20.8472   20.9212 C.3     1  UNL1        0.0730
     19 C          -4.6670  -21.1205   19.9786 C.3     1  UNL1        0.0294
     20 C          -5.9334  -20.3226   20.0775 C.3     1  UNL1        0.0666
     21 S          -6.6387  -20.1954   21.3951 S.3     1  UNL1       -0.0756
     22 C          -9.5312  -17.6079   21.3284 C.ar    1  UNL1        0.2029
     23 N          -8.7864  -17.1785   22.5576 N.ar    1  UNL1       -0.1250
     24 N          -7.6123  -18.0955   22.7322 N.ar    1  UNL1       -0.1220
     25 C          -7.6313  -19.0917   21.6109 C.ar    1  UNL1        0.1933
     26 N          -8.8173  -18.7904   20.7433 N.ar    1  UNL1       -0.2860
     27 C          -9.2188  -19.5398   19.5075 C.3     1  UNL1        0.1341
     28 C         -12.5495  -17.9400   22.5239 C.3     1  UNL1        0.0556
     29 C         -12.1593  -17.1201   21.3300 C.ar    1  UNL1        0.1001
     30 N         -13.0880  -16.3088   20.4759 N.ar    1  UNL1       -0.2085
     31 C         -12.2746  -15.6547   19.3986 C.ar    1  UNL1        0.2849
     32 O         -10.8432  -16.0618   19.5868 O.2     1  UNL1       -0.4283
     33 C         -10.7720  -16.9674   20.7804 C.ar    1  UNL1        0.1964
@<TRIPOS>BOND
     1    28    29    1
     2    29    30   ar
     3    30    31   ar
     4    31    32   ar
     5    32    33   ar
     6    33    22    1
     7    22    23   ar
     8    23    24   ar
     9    24    25   ar
    10    25    21    1
    11    21    20    1
    12    20    19    1
    13    19    18    1
    14    18     1    1
    15     1     2    1
    16     2     3    1
    17     4     3    1
    18     4     5    1
    19     5     6    1
    20     6     8    1
    21     8     9   ar
    22     9    10   ar
    23    10    11   ar
    24    11    14    1
    25    14    15    1
    26    14    16    1
    27    14    17    1
    28    11    12   ar
    29    12    13   ar
    30     4     7    1
    31    25    26   ar
    32    26    27    1
    33    33    29   ar
    34    26    22   ar
    35     7     1    1
    36     6     4    1
    37    13     8   ar
@<TRIPOS>MOLECULE
*****
 33 37 0 0 0
SMALL
GASTEIGER

@<TRIPOS>ATOM
      1 N          -5.0924  -16.2169   24.5709 N.3     1  UNL1       -0.2726
      2 C          -4.6282  -15.5457   25.8295 C.3     1  UNL1        0.0721
      3 C          -5.8390  -15.2052   26.6468 C.3     1  UNL1        0.0190
      4 C          -7.0515  -15.6660   25.8934 C.3     1  UNL1        0.0201
      5 C          -8.0525  -15.2091   26.9128 C.3     1  UNL1        0.0061
      6 C          -8.5167  -15.8804   25.6542 C.3     1  UNL1        0.0237
      7 C          -6.5900  -16.2912   24.6104 C.3     1  UNL1        0.0724
      8 C          -9.6306  -16.3917   24.7895 C.ar    1  UNL1       -0.0225
      9 C         -10.2582  -15.4930   23.7655 C.ar    1  UNL1       -0.0043
     10 C         -11.3721  -16.0043   22.9008 C.ar    1  UNL1        0.0035
     11 C         -11.8584  -17.4143   23.0601 C.ar    1  UNL1        0.0714
     12 C         -11.2308  -18.3130   24.0840 C.ar    1  UNL1        0.0035
     13 C         -10.1169  -17.8017   24.9488 C.ar    1  UNL1       -0.0043
     14 C         -12.9723  -17.9256   22.1953 C.3     1  UNL1        0.4186
     15 F         -14.0863  -18.4369   21.3305 F       1  UNL1       -0.1659
     16 F         -13.8320  -18.1084   23.4109 F       1  UNL1       -0.1659
     17 F         -12.1126  -17.7428   20.9798 F       1  UNL1       -0.1659
     18 C          -4.2133  -16.7247   23.4666 C.3     1  UNL1        0.0730
     19 C          -3.2288  -17.8237   23.7370 C.3     1  UNL1        0.0294
     20 C          -2.1782  -18.1566   22.7194 C.3     1  UNL1        0.0666
     21 S          -2.4637  -19.1695   21.6505 S.3     1  UNL1       -0.0756
     22 C          -5.9336  -19.1225   19.9116 C.ar    1  UNL1        0.2029
     23 N          -5.0931  -18.3996   18.9011 N.ar    1  UNL1       -0.1250
     24 N          -3.6910  -18.3292   19.4295 N.ar    1  UNL1       -0.1220
     25 C          -3.6649  -19.0086   20.7665 C.ar    1  UNL1        0.1933
     26 N          -5.0508  -19.4989   21.0645 N.ar    1  UNL1       -0.2860
     27 C          -5.4790  -20.2361   22.2987 C.3     1  UNL1        0.1341
     28 C          -8.2982  -17.9022   21.8008 C.3     1  UNL1        0.0556
     29 C          -8.4862  -18.8563   20.6587 C.ar    1  UNL1        0.1001
     30 N          -9.7941  -19.4171   20.1846 N.ar    1  UNL1       -0.2085
     31 C          -9.5156  -20.3246   19.0232 C.ar    1  UNL1        0.2849
     32 O          -8.0355  -20.3247   18.7795 O.2     1  UNL1       -0.4283
     33 C          -7.3993  -19.4173   19.7904 C.ar    1  UNL1        0.1964
@<TRIPOS>BOND
     1    28    29    1
     2    29    30   ar
     3    30    31   ar
     4    31    32   ar
     5    32    33   ar
     6    33    22    1
     7    22    23   ar
     8    23    24   ar
     9    24    25   ar
    10    25    21    1
    11    21    20    1
    12    20    19    1
    13    19    18    1
    14    18     1    1
    15     1     2    1
    16     2     3    1
    17     4     3    1
    18     4     5    1
    19     5     6    1
    20     6     8    1
    21     8     9   ar
    22     9    10   ar
    23    10    11   ar
    24    11    14    1
    25    14    15    1
    26    14    16    1
    27    14    17    1
    28    11    12   ar
    29    12    13   ar
    30     4     7    1
    31    25    26   ar
    32    26    27    1
    33    33    29   ar
    34    26    22   ar
    35     7     1    1
    36     6     4    1
    37    13     8   ar
@<TRIPOS>MOLECULE
*****
 33 37 0 0 0
SMALL
GASTEIGER

@<TRIPOS>ATOM
      1 N         -10.8034   -3.6218   16.6297 N.3     1  UNL1       -0.2726
      2 C          -9.3431   -3.9174   16.8029 C.3     1  UNL1        0.0721
      3 C          -9.2162   -5.2719   17.4348 C.3     1  UNL1        0.0190
      4 C         -10.5980   -5.8134   17.6521 C.3     1  UNL1        0.0201
      5 C         -10.1632   -7.1114   18.2654 C.3     1  UNL1        0.0061
      6 C         -11.6235   -6.8158   18.0922 C.3     1  UNL1        0.0237
      7 C         -11.5790   -4.7936   17.1545 C.3     1  UNL1        0.0724
      8 C         -13.0587   -7.2238   18.2462 C.ar    1  UNL1       -0.0225
      9 C         -13.6446   -8.2632   17.3372 C.ar    1  UNL1       -0.0043
     10 C         -15.0798   -8.6712   17.4913 C.ar    1  UNL1        0.0035
     11 C         -15.9291   -8.0398   18.5543 C.ar    1  UNL1        0.0714
     12 C         -15.3431   -7.0004   19.4633 C.ar    1  UNL1        0.0035
     13 C         -13.9079   -6.5924   19.3093 C.ar    1  UNL1       -0.0043
     14 C         -17.3642   -8.4479   18.7084 C.3     1  UNL1        0.4186
     15 F         -18.7995   -8.8559   18.8624 F       1  UNL1       -0.1659
     16 F         -17.5278   -7.4533   19.8192 F       1  UNL1       -0.1659
     17 F         -17.2007   -9.4424   17.5975 F       1  UNL1       -0.1659
     18 C         -11.3859   -2.3736   16.0358 C.3     1  UNL1        0.0730
     19 C         -10.8725   -1.0301   16.4617 C.3     1  UNL1        0.0294
     20 C         -11.8361    0.0723   16.7877 C.3     1  UNL1        0.0666
     21 S         -12.5067    0.1101   18.1289 S.3     1  UNL1       -0.0756
     22 C         -15.0397   -2.6909   19.0257 C.ar    1  UNL1        0.2029
     23 N         -13.8122   -3.1696   19.7427 N.ar    1  UNL1       -0.1250
     24 N         -12.7139   -2.1787   19.4940 N.ar    1  UNL1       -0.1220
     25 C         -13.2626   -1.0874   18.6233 C.ar    1  UNL1        0.1933
     26 N         -14.7000   -1.4040   18.3338 N.ar    1  UNL1       -0.2860
     27 C         -15.6338   -0.5786   17.4991 C.3     1  UNL1        0.1341
     28 C         -16.1571   -4.6357   16.6553 C.3     1  UNL1        0.0556
     29 C         -16.8863   -4.2722   17.9147 C.ar    1  UNL1        0.1001
     30 N         -18.2572   -4.7388   18.3057 N.ar    1  UNL1       -0.2085
     31 C         -18.5909   -4.1333   19.6369 C.ar    1  UNL1        0.2849
     32 O         -17.4262   -3.2925   20.0686 O.2     1  UNL1       -0.4283
     33 C         -16.3727   -3.3783   19.0043 C.ar    1  UNL1        0.1964
@<TRIPOS>BOND
     1    28    29    1
     2    29    30   ar
     3    30    31   ar
     4    31    32   ar
     5    32    33   ar
     6    33    22    1
     7    22    23   ar
     8    23    24   ar
     9    24    25   ar
    10    25    21    1
    11    21    20    1
    12    20    19    1
    13    19    18    1
    14    18     1    1
    15     1     2    1
    16     2     3    1
    17     4     3    1
    18     4     5    1
    19     5     6    1
    20     6     8    1
    21     8     9   ar
    22     9    10   ar
    23    10    11   ar
    24    11    14    1
    25    14    15    1
    26    14    16    1
    27    14    17    1
    28    11    12   ar
    29    12    13   ar
    30     4     7    1
    31    25    26   ar
    32    26    27    1
    33    33    29   ar
    34    26    22   ar
    35     7     1    1
    36     6     4    1
    37    13     8   ar
@<TRIPOS>MOLECULE
*****
 33 37 0 0 0
SMALL
GASTEIGER

@<TRIPOS>ATOM
      1 N         -10.6241   -3.9638   16.7548 N.3     1  UNL1       -0.2726
      2 C          -9.2093   -4.3160   17.1072 C.3     1  UNL1        0.0721
      3 C          -9.2305   -5.6009   17.8809 C.3     1  UNL1        0.0190
      4 C         -10.6584   -6.0428   18.0067 C.3     1  UNL1        0.0201
      5 C         -10.3684   -7.2898   18.7883 C.3     1  UNL1        0.0061
      6 C         -11.7832   -6.9375   18.4359 C.3     1  UNL1        0.0237
      7 C         -11.5197   -5.0310   17.3107 C.3     1  UNL1        0.0724
      8 C         -13.2495   -7.2508   18.4802 C.ar    1  UNL1       -0.0225
      9 C         -14.1581   -6.4624   19.3763 C.ar    1  UNL1       -0.0043
     10 C         -15.6243   -6.7756   19.4205 C.ar    1  UNL1        0.0035
     11 C         -16.1820   -7.8772   18.5688 C.ar    1  UNL1        0.0714
     12 C         -15.2733   -8.6656   17.6727 C.ar    1  UNL1        0.0035
     13 C         -13.8071   -8.3524   17.6284 C.ar    1  UNL1       -0.0043
     14 C         -17.6482   -8.1904   18.6131 C.3     1  UNL1        0.4186
     15 F         -19.1145   -8.5037   18.6573 F       1  UNL1       -0.1659
     16 F         -17.6367   -8.0335   20.1048 F       1  UNL1       -0.1659
     17 F         -17.6597   -8.3474   17.1213 F       1  UNL1       -0.1659
     18 C         -11.0658   -2.7564   15.9821 C.3     1  UNL1        0.0730
     19 C         -10.4114   -1.4290   16.2263 C.3     1  UNL1        0.0294
     20 C         -10.8277   -0.5920   17.3995 C.3     1  UNL1        0.0666
     21 S         -11.6655   -1.1922   18.4894 S.3     1  UNL1       -0.0756
     22 C         -15.5177   -1.3357   18.9424 C.ar    1  UNL1        0.2029
     23 N         -15.3910   -0.3010   17.8637 N.ar    1  UNL1       -0.1250
     24 N         -13.9325   -0.1214   17.5627 N.ar    1  UNL1       -0.1220
     25 C         -13.1578   -1.0450   18.4554 C.ar    1  UNL1        0.1933
     26 N         -14.1375   -1.7954   19.3081 N.ar    1  UNL1       -0.2860
     27 C         -13.7968   -2.8249   20.3445 C.3     1  UNL1        0.1341
     28 C         -17.7742    0.5118   20.4070 C.3     1  UNL1        0.0556
     29 C         -17.8367   -0.9755   20.2221 C.ar    1  UNL1        0.1001
     30 N         -18.9474   -1.8747   20.6779 N.ar    1  UNL1       -0.2085
     31 C         -18.5967   -3.2796   20.2865 C.ar    1  UNL1        0.2849
     32 O         -17.2692   -3.2487   19.5887 O.2     1  UNL1       -0.4283
     33 C         -16.7996   -1.8246   19.5489 C.ar    1  UNL1        0.1964
@<TRIPOS>BOND
     1    28    29    1
     2    29    30   ar
     3    30    31   ar
     4    31    32   ar
     5    32    33   ar
     6    33    22    1
     7    22    23   ar
     8    23    24   ar
     9    24    25   ar
    10    25    21    1
    11    21    20    1
    12    20    19    1
    13    19    18    1
    14    18     1    1
    15     1     2    1
    16     2     3    1
    17     4     3    1
    18     4     5    1
    19     5     6    1
    20     6     8    1
    21     8     9   ar
    22     9    10   ar
    23    10    11   ar
    24    11    14    1
    25    14    15    1
    26    14    16    1
    27    14    17    1
    28    11    12   ar
    29    12    13   ar
    30     4     7    1
    31    25    26   ar
    32    26    27    1
    33    33    29   ar
    34    26    22   ar
    35     7     1    1
    36     6     4    1
    37    13     8   ar
@<TRIPOS>MOLECULE
*****
 33 37 0 0 0
SMALL
GASTEIGER

@<TRIPOS>ATOM
      1 N          -7.6100  -15.8829   24.5877 N.3     1  UNL1       -0.2726
      2 C          -8.2553  -15.9175   25.9413 C.3     1  UNL1        0.0721
      3 C          -9.2810  -17.0120   25.9380 C.3     1  UNL1        0.0190
      4 C          -9.2697  -17.6538   24.5823 C.3     1  UNL1        0.0201
      5 C         -10.3447  -18.6580   24.8752 C.3     1  UNL1        0.0061
      6 C          -9.6995  -18.6234   23.5215 C.3     1  UNL1        0.0237
      7 C          -8.2369  -16.9560   23.7477 C.3     1  UNL1        0.0724
      8 C          -9.5750  -19.1632   22.1276 C.ar    1  UNL1       -0.0225
      9 C          -8.2183  -19.3791   21.5252 C.ar    1  UNL1       -0.0043
     10 C          -8.0939  -19.9189   20.1313 C.ar    1  UNL1        0.0035
     11 C          -9.3261  -20.2429   19.3397 C.ar    1  UNL1        0.0714
     12 C         -10.6828  -20.0270   19.9421 C.ar    1  UNL1        0.0035
     13 C         -10.8073  -19.4871   21.3360 C.ar    1  UNL1       -0.0043
     14 C          -9.2017  -20.7827   17.9458 C.3     1  UNL1        0.4186
     15 F          -9.0772  -21.3225   16.5518 F       1  UNL1       -0.1659
     16 F         -10.4465  -20.0456   17.5492 F       1  UNL1       -0.1659
     17 F          -7.9569  -21.5197   18.3423 F       1  UNL1       -0.1659
     18 C          -6.5278  -14.9407   24.1506 C.3     1  UNL1        0.0730
     19 C          -5.0924  -15.3735   24.1977 C.3     1  UNL1        0.0294
     20 C          -4.6600  -16.4337   25.1668 C.3     1  UNL1        0.0666
     21 S          -3.7087  -17.5074   24.7286 S.3     1  UNL1       -0.0756
     22 C          -3.2646  -18.1418   20.9252 C.ar    1  UNL1        0.2029
     23 N          -4.1817  -19.2675   21.3017 N.ar    1  UNL1       -0.1250
     24 N          -4.4597  -19.1668   22.7723 N.ar    1  UNL1       -0.1220
     25 C          -3.7144  -17.9789   23.3047 C.ar    1  UNL1        0.1933
     26 N          -2.9757  -17.3454   22.1632 N.ar    1  UNL1       -0.2860
     27 C          -2.1018  -16.1290   22.2452 C.3     1  UNL1        0.1341
     28 C          -0.1749  -18.5369   19.9518 C.3     1  UNL1        0.0556
     29 C          -1.3100  -18.0433   19.1045 C.ar    1  UNL1        0.1001
     30 N          -1.2242  -17.6445   17.6610 N.ar    1  UNL1       -0.2085
     31 C          -2.5913  -17.2165   17.2163 C.ar    1  UNL1        0.2849
     32 O          -3.5220  -17.3506   18.3850 O.2     1  UNL1       -0.4283
     33 C          -2.7301  -17.8616   19.5519 C.ar    1  UNL1        0.1964
@<TRIPOS>BOND
     1    28    29    1
     2    29    30   ar
     3    30    31   ar
     4    31    32   ar
     5    32    33   ar
     6    33    22    1
     7    22    23   ar
     8    23    24   ar
     9    24    25   ar
    10    25    21    1
    11    21    20    1
    12    20    19    1
    13    19    18    1
    14    18     1    1
    15     1     2    1
    16     2     3    1
    17     4     3    1
    18     4     5    1
    19     5     6    1
    20     6     8    1
    21     8     9   ar
    22     9    10   ar
    23    10    11   ar
    24    11    14    1
    25    14    15    1
    26    14    16    1
    27    14    17    1
    28    11    12   ar
    29    12    13   ar
    30     4     7    1
    31    25    26   ar
    32    26    27    1
    33    33    29   ar
    34    26    22   ar
    35     7     1    1
    36     6     4    1
    37    13     8   ar
@<TRIPOS>MOLECULE
*****
 33 37 0 0 0
SMALL
GASTEIGER

@<TRIPOS>ATOM
      1 N          -2.2257    4.0556   18.0814 N.3     1  UNL1       -0.2726
      2 C          -2.9768    3.7889   16.8107 C.3     1  UNL1        0.0721
      3 C          -4.4272    3.6235   17.1556 C.3     1  UNL1        0.0190
      4 C          -4.5725    3.7880   18.6395 C.3     1  UNL1        0.0201
      5 C          -6.0575    3.5792   18.6758 C.3     1  UNL1        0.0061
      6 C          -5.3064    3.8459   19.9465 C.3     1  UNL1        0.0237
      7 C          -3.2119    4.0551   19.2116 C.3     1  UNL1        0.0724
      8 C          -5.2964    4.0332   21.4347 C.ar    1  UNL1       -0.0225
      9 C          -5.7894    5.3177   22.0322 C.ar    1  UNL1       -0.0043
     10 C          -5.7794    5.5051   23.5204 C.ar    1  UNL1        0.0035
     11 C          -5.2763    4.4080   24.4111 C.ar    1  UNL1        0.0714
     12 C          -4.7833    3.1235   23.8135 C.ar    1  UNL1        0.0035
     13 C          -4.7933    2.9361   22.3253 C.ar    1  UNL1       -0.0043
     14 C          -5.2663    4.5953   25.8993 C.3     1  UNL1        0.4186
     15 F          -5.2564    4.7827   27.3875 F       1  UNL1       -0.1659
     16 F          -4.2413    3.5080   26.0293 F       1  UNL1       -0.1659
     17 F          -6.2914    5.6827   25.7693 F       1  UNL1       -0.1659
     18 C          -0.7479    4.2829   18.2009 C.3     1  UNL1        0.0730
     19 C           0.1977    3.1205   18.1322 C.3     1  UNL1        0.0294
     20 C           0.7659    2.5403   19.3934 C.3     1  UNL1        0.0666
     21 S           0.7574    1.0555   19.6063 S.3     1  UNL1       -0.0756
     22 C           3.8065   -1.3069   19.1735 C.ar    1  UNL1        0.2029
     23 N           3.6414   -0.7876   17.7759 N.ar    1  UNL1       -0.1250
     24 N           2.4791    0.1605   17.7680 N.ar    1  UNL1       -0.1220
     25 C           1.9258    0.2273   19.1606 C.ar    1  UNL1        0.1933
     26 N           2.7462   -0.6796   20.0293 N.ar    1  UNL1       -0.2860
     27 C           2.5420   -0.9175   21.4962 C.3     1  UNL1        0.1341
     28 C           3.4812   -4.5521   19.2851 C.3     1  UNL1        0.0556
     29 C           4.6993   -3.7738   19.6857 C.ar    1  UNL1        0.1001
     30 N           5.9818   -4.3505   20.2078 N.ar    1  UNL1       -0.2085
     31 C           6.9239   -3.2153   20.4793 C.ar    1  UNL1        0.2849
     32 O           6.2237   -1.9370   20.1248 O.2     1  UNL1       -0.4283
     33 C           4.8488   -2.2822   19.6344 C.ar    1  UNL1        0.1964
@<TRIPOS>BOND
     1    28    29    1
     2    29    30   ar
     3    30    31   ar
     4    31    32   ar
     5    32    33   ar
     6    33    22    1
     7    22    23   ar
     8    23    24   ar
     9    24    25   ar
    10    25    21    1
    11    21    20    1
    12    20    19    1
    13    19    18    1
    14    18     1    1
    15     1     2    1
    16     2     3    1
    17     4     3    1
    18     4     5    1
    19     5     6    1
    20     6     8    1
    21     8     9   ar
    22     9    10   ar
    23    10    11   ar
    24    11    14    1
    25    14    15    1
    26    14    16    1
    27    14    17    1
    28    11    12   ar
    29    12    13   ar
    30     4     7    1
    31    25    26   ar
    32    26    27    1
    33    33    29   ar
    34    26    22   ar
    35     7     1    1
    36     6     4    1
    37    13     8   ar
@<TRIPOS>MOLECULE
*****
 33 37 0 0 0
SMALL
GASTEIGER

@<TRIPOS>ATOM
      1 N           7.9714   -5.0731   22.8709 N.3     1  UNL1       -0.2726
      2 C           8.5943   -6.1778   22.0698 C.3     1  UNL1        0.0721
      3 C           9.0223   -7.2557   23.0212 C.3     1  UNL1        0.0190
      4 C           8.6640   -6.8171   24.4102 C.3     1  UNL1        0.0201
      5 C           9.1899   -8.0401   25.1013 C.3     1  UNL1        0.0061
      6 C           8.5670   -6.9355   25.9024 C.3     1  UNL1        0.0237
      7 C           8.0145   -5.4682   24.3173 C.3     1  UNL1        0.0724
      8 C           8.1514   -6.3660   27.2263 C.ar    1  UNL1       -0.0225
      9 C           9.1435   -6.2735   28.3477 C.ar    1  UNL1       -0.0043
     10 C           8.7279   -5.7040   29.6716 C.ar    1  UNL1        0.0035
     11 C           7.3203   -5.2270   29.8743 C.ar    1  UNL1        0.0714
     12 C           6.3282   -5.3194   28.7529 C.ar    1  UNL1        0.0035
     13 C           6.7438   -5.8889   27.4290 C.ar    1  UNL1       -0.0043
     14 C           6.9047   -4.6575   31.1983 C.3     1  UNL1        0.4186
     15 F           6.4891   -4.0880   32.5223 F       1  UNL1       -0.1659
     16 F           7.0928   -3.2699   30.6605 F       1  UNL1       -0.1659
     17 F           6.7165   -6.0450   31.7360 F       1  UNL1       -0.1659
     18 C           7.4049   -3.7973   22.3220 C.3     1  UNL1        0.0730
     19 C           6.1395   -3.8237   21.5170 C.3     1  UNL1        0.0294
     20 C           6.1803   -3.5346   20.0456 C.3     1  UNL1        0.0666
     21 S           4.9130   -3.5473   19.2434 S.3     1  UNL1       -0.0756
     22 C           3.2632   -0.2237   18.1041 C.ar    1  UNL1        0.2029
     23 N           4.1694   -0.5103   16.9436 N.ar    1  UNL1       -0.1250
     24 N           4.8977   -1.7902   17.2291 N.ar    1  UNL1       -0.1220
     25 C           4.4416   -2.2946   18.5661 C.ar    1  UNL1        0.1933
     26 N           3.4315   -1.3266   19.1069 N.ar    1  UNL1       -0.2860
     27 C           2.7153   -1.4412   20.4199 C.3     1  UNL1        0.1341
     28 C           4.1878    2.8827   18.4846 C.3     1  UNL1        0.0556
     29 C           2.7742    2.3860   18.4132 C.ar    1  UNL1        0.1001
     30 N           1.5375    3.2298   18.5041 N.ar    1  UNL1       -0.2085
     31 C           0.3481    2.3235   18.3854 C.ar    1  UNL1        0.2849
     32 O           0.8498    0.9195   18.2211 O.2     1  UNL1       -0.4283
     33 C           2.3492    0.9581   18.2383 C.ar    1  UNL1        0.1964
@<TRIPOS>BOND
     1    28    29    1
     2    29    30   ar
     3    30    31   ar
     4    31    32   ar
     5    32    33   ar
     6    33    22    1
     7    22    23   ar
     8    23    24   ar
     9    24    25   ar
    10    25    21    1
    11    21    20    1
    12    20    19    1
    13    19    18    1
    14    18     1    1
    15     1     2    1
    16     2     3    1
    17     4     3    1
    18     4     5    1
    19     5     6    1
    20     6     8    1
    21     8     9   ar
    22     9    10   ar
    23    10    11   ar
    24    11    14    1
    25    14    15    1
    26    14    16    1
    27    14    17    1
    28    11    12   ar
    29    12    13   ar
    30     4     7    1
    31    25    26   ar
    32    26    27    1
    33    33    29   ar
    34    26    22   ar
    35     7     1    1
    36     6     4    1
    37    13     8   ar
