@<TRIPOS>MOLECULE
*****
 31 33 0 0 0
SMALL
GASTEIGER

@<TRIPOS>ATOM
      1 C          -8.8022  -18.4194   20.8650 C.ar    1  UNL1        0.1377
      2 C          -9.5549  -17.2243   21.3701 C.ar    1  UNL1        0.1397
      3 N          -8.9230  -16.3112   22.3785 N.ar    1  UNL1       -0.2027
      4 C          -7.5384  -16.5931   22.8817 C.ar    1  UNL1        0.2367
      5 N          -6.7857  -17.7882   22.3766 N.ar    1  UNL1       -0.1828
      6 C          -7.4176  -18.7013   21.3682 C.ar    1  UNL1        0.2339
      7 C          -9.2158  -20.9299   17.8193 C.3     1  UNL1        0.1109
      8 N          -8.5838  -20.0168   18.8277 N.am    1  UNL1       -0.2990
      9 C          -9.4341  -19.3326   19.8566 C.2     1  UNL1        0.2532
     10 O         -10.9164  -19.5615   19.8772 O.2     1  UNL1       -0.2699
     11 H          -7.6110  -19.8665   18.8141 H       1  UNL1        0.1498
     12 N         -10.9396  -16.9424   20.8669 N.pl3   1  UNL1       -0.3178
     13 H         -11.1000  -16.8342   19.9016 H       1  UNL1        0.1482
     14 C         -12.0798  -16.8252   21.8344 C.3     1  UNL1        0.0882
     15 C         -12.4978  -18.0138   22.6485 C.3     1  UNL1        0.0212
     16 C         -11.4826  -18.7600   23.4623 C.3     1  UNL1        0.0017
     17 C         -10.9602  -20.1362   23.1739 C.3     1  UNL1        0.0001
     18 C          -9.9662  -20.4877   24.2408 C.3     1  UNL1        0.0000
     19 C          -9.8742  -19.3288   25.1887 C.3     1  UNL1        0.0000
     20 C         -10.8114  -18.2610   24.7076 C.3     1  UNL1        0.0001
     21 C          -6.9064  -15.6799   23.8901 C.1     1  UNL1        0.1401
     22 N          -6.2745  -14.7668   24.8984 N.1     1  UNL1       -0.1876
     23 O          -6.6648  -19.8964   20.8630 O.3     1  UNL1       -0.4600
     24 C          -5.3734  -20.2985   21.5116 C.3     1  UNL1        0.2071
     25 C          -4.0951  -19.6159   21.1242 C.3     1  UNL1        0.0466
     26 C          -3.1400  -19.1544   22.1847 C.3     1  UNL1        0.0211
     27 C          -1.8618  -18.4718   21.7974 C.3     1  UNL1        0.0723
     28 N          -1.5386  -18.2507   20.3494 N.3     1  UNL1       -0.2715
     29 C          -0.2603  -17.5681   19.9620 C.3     1  UNL1        0.0896
     30 C          -2.4937  -18.7121   19.2888 C.3     1  UNL1        0.0723
     31 C          -3.7720  -19.3947   19.6762 C.3     1  UNL1        0.0211
@<TRIPOS>BOND
     1     7     8    1
     2     8     9   am
     3     9    10    2
     4     9     1    1
     5     1     2   ar
     6     2    12    1
     7    12    14    1
     8    14    15    1
     9    15    16    1
    10    16    17    1
    11    17    18    1
    12    18    19    1
    13    19    20    1
    14     2     3   ar
    15     3     4   ar
    16     4    21    1
    17    21    22    3
    18     4     5   ar
    19     5     6   ar
    20     6    23    1
    21    23    24    1
    22    24    25    1
    23    25    26    1
    24    26    27    1
    25    27    28    1
    26    28    29    1
    27    28    30    1
    28    30    31    1
    29     6     1   ar
    30    31    25    1
    31    20    16    1
    32     8    11    1
    33    12    13    1
@<TRIPOS>MOLECULE
*****
 31 33 0 0 0
SMALL
GASTEIGER

@<TRIPOS>ATOM
      1 C          -8.6125  -17.5624   21.6913 C.ar    1  UNL1        0.1377
      2 C          -9.8397  -17.5436   20.8290 C.ar    1  UNL1        0.1397
      3 N          -9.9793  -18.5233   19.7017 N.ar    1  UNL1       -0.2027
      4 C          -8.8918  -19.5218   19.4368 C.ar    1  UNL1        0.2367
      5 N          -7.6647  -19.5407   20.2992 N.ar    1  UNL1       -0.1828
      6 C          -7.5250  -18.5610   21.4264 C.ar    1  UNL1        0.2339
      7 C          -6.9820  -15.0587   24.3033 C.3     1  UNL1        0.1109
      8 N          -7.1217  -16.0384   23.1760 N.am    1  UNL1       -0.2990
      9 C          -8.4729  -16.5827   22.8186 C.2     1  UNL1        0.2532
     10 O          -9.6844  -16.1474   23.5884 O.2     1  UNL1       -0.2699
     11 H          -6.3264  -16.3241   22.6708 H       1  UNL1        0.1498
     12 N         -10.9273  -16.5450   21.0939 N.pl3   1  UNL1       -0.3178
     13 H         -10.7019  -15.5965   21.2307 H       1  UNL1        0.1482
     14 C         -12.3581  -16.9917   21.1503 C.3     1  UNL1        0.0882
     15 C         -12.8441  -17.8068   22.3119 C.3     1  UNL1        0.0212
     16 C         -11.8916  -18.6959   23.0550 C.3     1  UNL1        0.0017
     17 C         -11.4580  -18.5270   24.4810 C.3     1  UNL1        0.0001
     18 C         -10.5039  -19.6367   24.8100 C.3     1  UNL1        0.0000
     19 C         -10.3478  -20.4915   23.5872 C.3     1  UNL1        0.0000
     20 C         -11.2054  -19.9100   22.5026 C.3     1  UNL1        0.0001
     21 C          -9.0315  -20.5015   18.3096 C.1     1  UNL1        0.1401
     22 N          -9.1711  -21.4812   17.1823 N.1     1  UNL1       -0.1876
     23 O          -6.2978  -18.5799   22.2888 O.3     1  UNL1       -0.4600
     24 C          -5.2090  -19.5765   22.0221 C.3     1  UNL1        0.2071
     25 C          -3.9069  -19.1244   21.4301 C.3     1  UNL1        0.0466
     26 C          -2.8025  -18.6453   22.3249 C.3     1  UNL1        0.0211
     27 C          -1.5004  -18.1933   21.7330 C.3     1  UNL1        0.0723
     28 N          -1.3029  -18.2203   20.2464 N.3     1  UNL1       -0.2715
     29 C          -0.0008  -17.7682   19.6544 C.3     1  UNL1        0.0896
     30 C          -2.4073  -18.6994   19.3516 C.3     1  UNL1        0.0723
     31 C          -3.7094  -19.1515   19.9435 C.3     1  UNL1        0.0211
@<TRIPOS>BOND
     1     7     8    1
     2     8     9   am
     3     9    10    2
     4     9     1    1
     5     1     2   ar
     6     2    12    1
     7    12    14    1
     8    14    15    1
     9    15    16    1
    10    16    17    1
    11    17    18    1
    12    18    19    1
    13    19    20    1
    14     2     3   ar
    15     3     4   ar
    16     4    21    1
    17    21    22    3
    18     4     5   ar
    19     5     6   ar
    20     6    23    1
    21    23    24    1
    22    24    25    1
    23    25    26    1
    24    26    27    1
    25    27    28    1
    26    28    29    1
    27    28    30    1
    28    30    31    1
    29     6     1   ar
    30    31    25    1
    31    20    16    1
    32     8    11    1
    33    12    13    1
@<TRIPOS>MOLECULE
*****
 31 33 0 0 0
SMALL
GASTEIGER

@<TRIPOS>ATOM
      1 C          -7.9849  -16.9107   24.0153 C.ar    1  UNL1        0.1377
      2 C          -9.1527  -17.8076   23.7296 C.ar    1  UNL1        0.1397
      3 N          -9.1474  -18.6803   22.5096 N.ar    1  UNL1       -0.2027
      4 C          -7.9743  -18.6560   21.5752 C.ar    1  UNL1        0.2367
      5 N          -6.8064  -17.7591   21.8608 N.ar    1  UNL1       -0.1828
      6 C          -6.8117  -16.8864   23.0809 C.ar    1  UNL1        0.2339
      7 C          -6.8459  -15.2147   27.4177 C.3     1  UNL1        0.1109
      8 N          -6.8407  -16.0874   26.1977 N.am    1  UNL1       -0.2990
      9 C          -7.9901  -16.0381   25.2353 C.2     1  UNL1        0.2532
     10 O          -9.1449  -15.1161   25.4929 O.2     1  UNL1       -0.2699
     11 H          -6.0827  -16.6925   26.0286 H       1  UNL1        0.1498
     12 N         -10.3259  -17.8319   24.6641 N.pl3   1  UNL1       -0.3178
     13 H         -10.2975  -17.3180   25.5033 H       1  UNL1        0.1482
     14 C         -11.5423  -18.6392   24.3198 C.3     1  UNL1        0.0882
     15 C         -12.6009  -18.0582   23.4299 C.3     1  UNL1        0.0212
     16 C         -12.2393  -17.5557   22.0636 C.3     1  UNL1        0.0017
     17 C         -11.8412  -18.4009   20.8901 C.3     1  UNL1        0.0001
     18 C         -11.5682  -17.4872   19.7322 C.3     1  UNL1        0.0000
     19 C         -11.7976  -16.0773   20.1901 C.3     1  UNL1        0.0000
     20 C         -12.2123  -16.1196   21.6310 C.3     1  UNL1        0.0001
     21 C          -7.9690  -19.5286   20.3552 C.1     1  UNL1        0.1401
     22 N          -7.9637  -20.4013   19.1352 N.1     1  UNL1       -0.1876
     23 O          -5.6438  -15.9895   23.3665 O.3     1  UNL1       -0.4600
     24 C          -4.3317  -16.5790   23.7915 C.3     1  UNL1        0.2071
     25 C          -3.3446  -17.0353   22.7582 C.3     1  UNL1        0.0466
     26 C          -2.4734  -16.0339   22.0595 C.3     1  UNL1        0.0211
     27 C          -1.4863  -16.4901   21.0263 C.3     1  UNL1        0.0723
     28 N          -1.3705  -17.9477   20.6918 N.3     1  UNL1       -0.2715
     29 C          -0.3834  -18.4040   19.6585 C.3     1  UNL1        0.0896
     30 C          -2.2417  -18.9491   21.3905 C.3     1  UNL1        0.0723
     31 C          -3.2288  -18.4929   22.4237 C.3     1  UNL1        0.0211
@<TRIPOS>BOND
     1     7     8    1
     2     8     9   am
     3     9    10    2
     4     9     1    1
     5     1     2   ar
     6     2    12    1
     7    12    14    1
     8    14    15    1
     9    15    16    1
    10    16    17    1
    11    17    18    1
    12    18    19    1
    13    19    20    1
    14     2     3   ar
    15     3     4   ar
    16     4    21    1
    17    21    22    3
    18     4     5   ar
    19     5     6   ar
    20     6    23    1
    21    23    24    1
    22    24    25    1
    23    25    26    1
    24    26    27    1
    25    27    28    1
    26    28    29    1
    27    28    30    1
    28    30    31    1
    29     6     1   ar
    30    31    25    1
    31    20    16    1
    32     8    11    1
    33    12    13    1
@<TRIPOS>MOLECULE
*****
 31 33 0 0 0
SMALL
GASTEIGER

@<TRIPOS>ATOM
      1 C          -9.0572  -18.7042   22.3445 C.ar    1  UNL1        0.1377
      2 C         -10.3126  -19.3566   21.8463 C.ar    1  UNL1        0.1397
      3 N         -10.3439  -19.9787   20.4818 N.ar    1  UNL1       -0.2027
      4 C          -9.1198  -19.9485   19.6155 C.ar    1  UNL1        0.2367
      5 N          -7.8644  -19.2962   20.1137 N.ar    1  UNL1       -0.1828
      6 C          -7.8331  -18.6740   21.4782 C.ar    1  UNL1        0.2339
      7 C          -8.4012  -16.0953   25.2623 C.3     1  UNL1        0.1109
      8 N          -8.4325  -16.7175   23.8977 N.am    1  UNL1       -0.2990
      9 C          -9.0259  -18.0821   23.7091 C.2     1  UNL1        0.2532
     10 O          -9.5880  -18.8245   24.8849 O.2     1  UNL1       -0.2699
     11 H          -8.0636  -16.2301   23.1259 H       1  UNL1        0.1498
     12 N         -11.5369  -19.3868   22.7126 N.pl3   1  UNL1       -0.3178
     13 H         -11.7790  -20.2107   23.1941 H       1  UNL1        0.1482
     14 C         -12.3921  -18.1618   22.8454 C.3     1  UNL1        0.0882
     15 C         -12.9352  -17.4897   21.6192 C.3     1  UNL1        0.0212
     16 C         -12.0624  -16.5676   20.8205 C.3     1  UNL1        0.0017
     17 C         -12.2538  -16.2011   19.3787 C.3     1  UNL1        0.0001
     18 C         -11.1547  -15.2571   18.9905 C.3     1  UNL1        0.0000
     19 C         -10.2839  -15.0401   20.1925 C.3     1  UNL1        0.0000
     20 C         -10.8449  -15.8501   21.3235 C.3     1  UNL1        0.0001
     21 C          -9.1511  -20.5707   18.2509 C.1     1  UNL1        0.1401
     22 N          -9.1824  -21.1928   16.8864 N.1     1  UNL1       -0.1876
     23 O          -6.5775  -18.0216   21.9764 O.3     1  UNL1       -0.4600
     24 C          -5.3930  -18.8624   22.3505 C.3     1  UNL1        0.2071
     25 C          -4.0514  -18.5815   21.7410 C.3     1  UNL1        0.0466
     26 C          -3.6522  -19.2568   20.4625 C.3     1  UNL1        0.0211
     27 C          -2.3108  -18.9760   19.8531 C.3     1  UNL1        0.0723
     28 N          -1.3684  -18.0198   20.5222 N.3     1  UNL1       -0.2715
     29 C          -0.0269  -17.7389   19.9127 C.3     1  UNL1        0.0896
     30 C          -1.7676  -17.3445   21.8007 C.3     1  UNL1        0.0723
     31 C          -3.1091  -17.6253   22.4101 C.3     1  UNL1        0.0211
@<TRIPOS>BOND
     1     7     8    1
     2     8     9   am
     3     9    10    2
     4     9     1    1
     5     1     2   ar
     6     2    12    1
     7    12    14    1
     8    14    15    1
     9    15    16    1
    10    16    17    1
    11    17    18    1
    12    18    19    1
    13    19    20    1
    14     2     3   ar
    15     3     4   ar
    16     4    21    1
    17    21    22    3
    18     4     5   ar
    19     5     6   ar
    20     6    23    1
    21    23    24    1
    22    24    25    1
    23    25    26    1
    24    26    27    1
    25    27    28    1
    26    28    29    1
    27    28    30    1
    28    30    31    1
    29     6     1   ar
    30    31    25    1
    31    20    16    1
    32     8    11    1
    33    12    13    1
@<TRIPOS>MOLECULE
*****
 31 33 0 0 0
SMALL
GASTEIGER

@<TRIPOS>ATOM
      1 C          -7.3244  -17.4528   22.1528 C.ar    1  UNL1        0.1377
      2 C          -6.0968  -16.9727   22.8685 C.ar    1  UNL1        0.1397
      3 N          -4.7929  -17.6914   22.6859 N.ar    1  UNL1       -0.2027
      4 C          -4.7167  -18.8903   21.7877 C.ar    1  UNL1        0.2367
      5 N          -5.9444  -19.3704   21.0720 N.ar    1  UNL1       -0.1828
      6 C          -7.2483  -18.6517   21.2546 C.ar    1  UNL1        0.2339
      7 C         -10.7141  -15.5643   21.3201 C.3     1  UNL1        0.1109
      8 N          -9.4103  -16.2831   21.1375 N.am    1  UNL1       -0.2990
      9 C          -8.6283  -16.7341   22.3354 C.2     1  UNL1        0.2532
     10 O          -9.1502  -16.4663   23.7159 O.2     1  UNL1       -0.2699
     11 H          -9.0677  -16.4588   20.2314 H       1  UNL1        0.1498
     12 N          -6.1729  -15.7738   23.7668 N.pl3   1  UNL1       -0.3178
     13 H          -6.9726  -15.1997   23.7549 H       1  UNL1        0.1482
     14 C          -5.0305  -15.4495   24.6832 C.3     1  UNL1        0.0882
     15 C          -5.1653  -15.6778   26.1597 C.3     1  UNL1        0.0212
     16 C          -6.5212  -15.6589   26.8008 C.3     1  UNL1        0.0017
     17 C          -7.1460  -14.4927   27.5076 C.3     1  UNL1        0.0001
     18 C          -8.5014  -14.9158   27.9914 C.3     1  UNL1        0.0000
     19 C          -8.7143  -16.3435   27.5835 C.3     1  UNL1        0.0000
     20 C          -7.4905  -16.8027   26.8477 C.3     1  UNL1        0.0001
     21 C          -3.4128  -19.6090   21.6051 C.1     1  UNL1        0.1401
     22 N          -2.1090  -20.3278   21.4225 N.1     1  UNL1       -0.1876
     23 O          -8.4760  -19.1318   20.5389 O.3     1  UNL1       -0.4600
     24 C          -9.4193  -20.0784   21.2201 C.3     1  UNL1        0.2071
     25 C         -10.5562  -19.5440   22.0399 C.3     1  UNL1        0.0466
     26 C         -10.5367  -19.6878   23.5329 C.3     1  UNL1        0.0211
     27 C         -11.6735  -19.1535   24.3527 C.3     1  UNL1        0.0723
     28 N         -12.8297  -18.4752   23.6796 N.3     1  UNL1       -0.2715
     29 C         -13.9666  -17.9408   24.4994 C.3     1  UNL1        0.0896
     30 C         -12.8491  -18.3314   22.1866 C.3     1  UNL1        0.0723
     31 C         -11.7123  -18.8658   21.3668 C.3     1  UNL1        0.0211
@<TRIPOS>BOND
     1     7     8    1
     2     8     9   am
     3     9    10    2
     4     9     1    1
     5     1     2   ar
     6     2    12    1
     7    12    14    1
     8    14    15    1
     9    15    16    1
    10    16    17    1
    11    17    18    1
    12    18    19    1
    13    19    20    1
    14     2     3   ar
    15     3     4   ar
    16     4    21    1
    17    21    22    3
    18     4     5   ar
    19     5     6   ar
    20     6    23    1
    21    23    24    1
    22    24    25    1
    23    25    26    1
    24    26    27    1
    25    27    28    1
    26    28    29    1
    27    28    30    1
    28    30    31    1
    29     6     1   ar
    30    31    25    1
    31    20    16    1
    32     8    11    1
    33    12    13    1
@<TRIPOS>MOLECULE
*****
 31 33 0 0 0
SMALL
GASTEIGER

@<TRIPOS>ATOM
      1 C          -6.7544  -19.0166   21.1641 C.ar    1  UNL1        0.1377
      2 C          -5.3632  -19.0330   21.7245 C.ar    1  UNL1        0.1397
      3 N          -4.9458  -17.9974   22.7262 N.ar    1  UNL1       -0.2027
      4 C          -5.9197  -16.9454   23.1675 C.ar    1  UNL1        0.2367
      5 N          -7.3110  -16.9290   22.6071 N.ar    1  UNL1       -0.1828
      6 C          -7.7283  -17.9646   21.6054 C.ar    1  UNL1        0.2339
      7 C          -8.6502  -20.7685   18.1498 C.3     1  UNL1        0.1109
      8 N          -8.2329  -19.7330   19.1514 N.am    1  UNL1       -0.2990
      9 C          -7.1718  -20.0521   20.1624 C.2     1  UNL1        0.2532
     10 O          -6.5280  -21.4069   20.1717 O.2     1  UNL1       -0.2699
     11 H          -8.6554  -18.8438   19.1453 H       1  UNL1        0.1498
     12 N          -4.3892  -20.0850   21.2832 N.pl3   1  UNL1       -0.3178
     13 H          -4.1763  -20.8396   21.8786 H       1  UNL1        0.1482
     14 C          -3.7395  -19.9872   19.9348 C.3     1  UNL1        0.0882
     15 C          -3.4121  -18.6428   19.3556 C.3     1  UNL1        0.0212
     16 C          -2.1858  -17.9086   19.8106 C.3     1  UNL1        0.0017
     17 C          -0.7814  -18.1694   19.3529 C.3     1  UNL1        0.0001
     18 C           0.1238  -17.2066   20.0626 C.3     1  UNL1        0.0000
     19 C          -0.7212  -16.3507   20.9591 C.3     1  UNL1        0.0000
     20 C          -2.1486  -16.7846   20.8033 C.3     1  UNL1        0.0001
     21 C          -5.5023  -15.9098   24.1692 C.1     1  UNL1        0.1401
     22 N          -5.0850  -14.8742   25.1709 N.1     1  UNL1       -0.1876
     23 O          -9.1197  -17.9481   21.0450 O.3     1  UNL1       -0.4600
     24 C         -10.1208  -16.9530   21.5523 C.3     1  UNL1        0.2071
     25 C         -11.1646  -17.3774   22.5425 C.3     1  UNL1        0.0466
     26 C         -10.7863  -18.2467   23.7049 C.3     1  UNL1        0.0211
     27 C         -11.8301  -18.6710   24.6950 C.3     1  UNL1        0.0723
     28 N         -13.2521  -18.2261   24.5228 N.3     1  UNL1       -0.2715
     29 C         -14.2960  -18.6504   25.5130 C.3     1  UNL1        0.0896
     30 C         -13.6304  -17.3568   23.3604 C.3     1  UNL1        0.0723
     31 C         -12.5867  -16.9324   22.3702 C.3     1  UNL1        0.0211
@<TRIPOS>BOND
     1     7     8    1
     2     8     9   am
     3     9    10    2
     4     9     1    1
     5     1     2   ar
     6     2    12    1
     7    12    14    1
     8    14    15    1
     9    15    16    1
    10    16    17    1
    11    17    18    1
    12    18    19    1
    13    19    20    1
    14     2     3   ar
    15     3     4   ar
    16     4    21    1
    17    21    22    3
    18     4     5   ar
    19     5     6   ar
    20     6    23    1
    21    23    24    1
    22    24    25    1
    23    25    26    1
    24    26    27    1
    25    27    28    1
    26    28    29    1
    27    28    30    1
    28    30    31    1
    29     6     1   ar
    30    31    25    1
    31    20    16    1
    32     8    11    1
    33    12    13    1
@<TRIPOS>MOLECULE
*****
 31 33 0 0 0
SMALL
GASTEIGER

@<TRIPOS>ATOM
      1 C          -7.8615  -18.1190   23.4510 C.ar    1  UNL1        0.1377
      2 C          -6.9377  -16.9633   23.6975 C.ar    1  UNL1        0.1397
      3 N          -7.1785  -16.0451   24.8590 N.ar    1  UNL1       -0.2027
      4 C          -8.3431  -16.2827   25.7739 C.ar    1  UNL1        0.2367
      5 N          -9.2669  -17.4384   25.5275 N.ar    1  UNL1       -0.1828
      6 C          -9.0261  -18.3566   24.3660 C.ar    1  UNL1        0.2339
      7 C          -7.5942  -19.4645   19.7271 C.3     1  UNL1        0.1109
      8 N          -7.8349  -18.5463   20.8885 N.am    1  UNL1       -0.2990
      9 C          -7.6208  -19.0372   22.2896 C.2     1  UNL1        0.2532
     10 O          -7.1659  -20.4463   22.5292 O.2     1  UNL1       -0.2699
     11 H          -8.1335  -17.6215   20.7312 H       1  UNL1        0.1498
     12 N          -5.7730  -16.7257   22.7825 N.pl3   1  UNL1       -0.3178
     13 H          -5.9281  -16.4878   21.8398 H       1  UNL1        0.1482
     14 C          -4.3721  -16.8506   23.3037 C.3     1  UNL1        0.0882
     15 C          -3.5732  -18.0877   23.0184 C.3     1  UNL1        0.0212
     16 C          -3.4087  -18.5652   21.6060 C.3     1  UNL1        0.0017
     17 C          -2.5267  -17.9456   20.5629 C.3     1  UNL1        0.0001
     18 C          -2.6703  -18.7436   19.3010 C.3     1  UNL1        0.0000
     19 C          -3.6411  -19.8565   19.5641 C.3     1  UNL1        0.0000
     20 C          -4.0975  -19.7462   20.9887 C.3     1  UNL1        0.0001
     21 C          -8.5838  -15.3645   26.9354 C.1     1  UNL1        0.1401
     22 N          -8.8246  -14.4463   28.0968 N.1     1  UNL1       -0.1876
     23 O          -9.9500  -19.5123   24.1196 O.3     1  UNL1       -0.4600
     24 C         -11.3186  -19.2713   23.5549 C.3     1  UNL1        0.2071
     25 C         -11.4983  -18.3326   22.3988 C.3     1  UNL1        0.0466
     26 C         -11.1516  -18.7790   21.0094 C.3     1  UNL1        0.0211
     27 C         -11.3313  -17.8403   19.8533 C.3     1  UNL1        0.0723
     28 N         -11.8577  -16.4553   20.0866 N.3     1  UNL1       -0.2715
     29 C         -12.0374  -15.5166   18.9305 C.3     1  UNL1        0.0896
     30 C         -12.2045  -16.0089   21.4760 C.3     1  UNL1        0.0723
     31 C         -12.0248  -16.9476   22.6321 C.3     1  UNL1        0.0211
@<TRIPOS>BOND
     1     7     8    1
     2     8     9   am
     3     9    10    2
     4     9     1    1
     5     1     2   ar
     6     2    12    1
     7    12    14    1
     8    14    15    1
     9    15    16    1
    10    16    17    1
    11    17    18    1
    12    18    19    1
    13    19    20    1
    14     2     3   ar
    15     3     4   ar
    16     4    21    1
    17    21    22    3
    18     4     5   ar
    19     5     6   ar
    20     6    23    1
    21    23    24    1
    22    24    25    1
    23    25    26    1
    24    26    27    1
    25    27    28    1
    26    28    29    1
    27    28    30    1
    28    30    31    1
    29     6     1   ar
    30    31    25    1
    31    20    16    1
    32     8    11    1
    33    12    13    1
@<TRIPOS>MOLECULE
*****
 31 33 0 0 0
SMALL
GASTEIGER

@<TRIPOS>ATOM
      1 C         -14.7957   -4.1140   18.7911 C.ar    1  UNL1        0.1377
      2 C         -13.7983   -3.1342   19.3343 C.ar    1  UNL1        0.1397
      3 N         -14.2316   -1.7435   19.6925 N.ar    1  UNL1       -0.2027
      4 C         -15.6623   -1.3326   19.5074 C.ar    1  UNL1        0.2367
      5 N         -16.6597   -2.3125   18.9642 N.ar    1  UNL1       -0.1828
      6 C         -16.2264   -3.7031   18.6061 C.ar    1  UNL1        0.2339
      7 C         -14.3391   -7.4939   16.7619 C.3     1  UNL1        0.1109
      8 N         -14.7724   -6.1032   17.1201 N.am    1  UNL1       -0.2990
      9 C         -14.3624   -5.5046   18.4329 C.2     1  UNL1        0.2532
     10 O         -13.5190   -6.2967   19.3875 O.2     1  UNL1       -0.2699
     11 H         -15.3260   -5.5834   16.4935 H       1  UNL1        0.1498
     12 N         -12.3675   -3.5450   19.5193 N.pl3   1  UNL1       -0.3178
     13 H         -12.1349   -4.2329   20.1841 H       1  UNL1        0.1482
     14 C         -11.2912   -2.9077   18.6915 C.3     1  UNL1        0.0882
     15 C         -10.0716   -3.6946   18.3125 C.3     1  UNL1        0.0212
     16 C         -10.1289   -5.1929   18.2703 C.3     1  UNL1        0.0017
     17 C          -9.4833   -6.1278   19.2496 C.3     1  UNL1        0.0001
     18 C          -9.7973   -7.5320   18.8260 C.3     1  UNL1        0.0000
     19 C         -10.6370   -7.4650   17.5848 C.3     1  UNL1        0.0000
     20 C         -10.8419   -6.0193   17.2414 C.3     1  UNL1        0.0001
     21 C         -16.0956    0.0580   19.8656 C.1     1  UNL1        0.1401
     22 N         -16.5289    1.4487   20.2238 N.1     1  UNL1       -0.1876
     23 O         -17.2239   -4.6830   18.0628 O.3     1  UNL1       -0.4600
     24 C         -17.9455   -5.6123   18.9931 C.3     1  UNL1        0.2071
     25 C         -17.6772   -7.0871   18.9374 C.3     1  UNL1        0.0466
     26 C         -18.2235   -7.9066   17.8061 C.3     1  UNL1        0.0211
     27 C         -17.9552   -9.3813   17.7503 C.3     1  UNL1        0.0723
     28 N         -17.1406  -10.0365   18.8260 N.3     1  UNL1       -0.2715
     29 C         -16.8722  -11.5113   18.7703 C.3     1  UNL1        0.0896
     30 C         -16.5943   -9.2170   19.9573 C.3     1  UNL1        0.0723
     31 C         -16.8626   -7.7423   20.0131 C.3     1  UNL1        0.0211
@<TRIPOS>BOND
     1     7     8    1
     2     8     9   am
     3     9    10    2
     4     9     1    1
     5     1     2   ar
     6     2    12    1
     7    12    14    1
     8    14    15    1
     9    15    16    1
    10    16    17    1
    11    17    18    1
    12    18    19    1
    13    19    20    1
    14     2     3   ar
    15     3     4   ar
    16     4    21    1
    17    21    22    3
    18     4     5   ar
    19     5     6   ar
    20     6    23    1
    21    23    24    1
    22    24    25    1
    23    25    26    1
    24    26    27    1
    25    27    28    1
    26    28    29    1
    27    28    30    1
    28    30    31    1
    29     6     1   ar
    30    31    25    1
    31    20    16    1
    32     8    11    1
    33    12    13    1
@<TRIPOS>MOLECULE
*****
 31 33 0 0 0
SMALL
GASTEIGER

@<TRIPOS>ATOM
      1 C         -14.3497   -6.2023   17.8640 C.ar    1  UNL1        0.1377
      2 C         -13.9308   -7.3944   17.0557 C.ar    1  UNL1        0.1397
      3 N         -14.5504   -8.7347   17.3196 N.ar    1  UNL1       -0.2027
      4 C         -15.5889   -8.8829   18.3917 C.ar    1  UNL1        0.2367
      5 N         -16.0079   -7.6908   19.1999 N.ar    1  UNL1       -0.1828
      6 C         -15.3882   -6.3505   18.9361 C.ar    1  UNL1        0.2339
      7 C         -12.6213   -2.6833   18.4799 C.3     1  UNL1        0.1109
      8 N         -13.2410   -4.0236   18.7437 N.am    1  UNL1       -0.2990
      9 C         -13.7301   -4.8619   17.6001 C.2     1  UNL1        0.2532
     10 O         -13.5996   -4.3600   16.1927 O.2     1  UNL1       -0.2699
     11 H         -13.3266   -4.3530   19.6675 H       1  UNL1        0.1498
     12 N         -12.8922   -7.2462   15.9836 N.pl3   1  UNL1       -0.3178
     13 H         -13.0795   -6.6951   15.1895 H       1  UNL1        0.1482
     14 C         -11.5683   -7.9377   16.1212 C.3     1  UNL1        0.0882
     15 C         -10.7344   -7.7236   17.3496 C.3     1  UNL1        0.0212
     16 C         -10.2682   -6.3439   17.7086 C.3     1  UNL1        0.0017
     17 C          -9.9558   -5.2397   16.7426 C.3     1  UNL1        0.0001
     18 C          -9.5271   -4.0394   17.5336 C.3     1  UNL1        0.0000
     19 C          -9.5744   -4.4019   18.9884 C.3     1  UNL1        0.0000
     20 C         -10.0325   -5.8261   19.0965 C.3     1  UNL1        0.0001
     21 C         -16.2085  -10.2232   18.6555 C.1     1  UNL1        0.1401
     22 N         -16.8282  -11.5635   18.9194 N.1     1  UNL1       -0.1876
     23 O         -15.8072   -5.1583   19.7444 O.3     1  UNL1       -0.4600
     24 C         -17.1572   -4.5417   19.5270 C.3     1  UNL1        0.2071
     25 C         -17.3803   -3.0930   19.8462 C.3     1  UNL1        0.0466
     26 C         -18.7271   -2.6268   20.3137 C.3     1  UNL1        0.0211
     27 C         -18.9502   -1.1783   20.6328 C.3     1  UNL1        0.0723
     28 N         -17.8265   -0.1960   20.4845 N.3     1  UNL1       -0.2715
     29 C         -18.0495    1.2527   20.8036 C.3     1  UNL1        0.0896
     30 C         -16.4796   -0.6622   20.0170 C.3     1  UNL1        0.0723
     31 C         -16.2565   -2.1107   19.6978 C.3     1  UNL1        0.0211
@<TRIPOS>BOND
     1     7     8    1
     2     8     9   am
     3     9    10    2
     4     9     1    1
     5     1     2   ar
     6     2    12    1
     7    12    14    1
     8    14    15    1
     9    15    16    1
    10    16    17    1
    11    17    18    1
    12    18    19    1
    13    19    20    1
    14     2     3   ar
    15     3     4   ar
    16     4    21    1
    17    21    22    3
    18     4     5   ar
    19     5     6   ar
    20     6    23    1
    21    23    24    1
    22    24    25    1
    23    25    26    1
    24    26    27    1
    25    27    28    1
    26    28    29    1
    27    28    30    1
    28    30    31    1
    29     6     1   ar
    30    31    25    1
    31    20    16    1
    32     8    11    1
    33    12    13    1
