@<TRIPOS>MOLECULE
*****
 22 24 0 0 0
SMALL
GASTEIGER

@<TRIPOS>ATOM
      1 C          -8.4729  -17.2015   22.4680 C.3     1  UNL1        0.2161
      2 C          -9.9615  -17.2437   22.2880 C.ar    1  UNL1        0.0181
      3 C         -10.7887  -16.0306   22.5947 C.ar    1  UNL1       -0.0010
      4 C         -12.2772  -16.0728   22.4147 C.ar    1  UNL1       -0.0002
      5 C         -12.9386  -17.3281   21.9280 C.ar    1  UNL1       -0.0003
      6 C         -12.1113  -18.5411   21.6212 C.ar    1  UNL1       -0.0021
      7 C         -10.6228  -18.4989   21.8012 C.ar    1  UNL1        0.0067
      8 C          -9.7955  -19.7120   21.4945 C.3     1  UNL1        0.1685
      9 O          -8.3070  -19.6698   21.6745 O.3     1  UNL1       -0.3460
     10 C          -7.6457  -18.4146   22.1612 C.3     1  UNL1        0.1750
     11 C          -6.1571  -18.3724   22.3413 C.3     1  UNL1        0.0992
     12 N          -5.2529  -18.5842   21.1633 N.3     1  UNL1       -0.3190
     13 H          -5.3566  -19.5400   20.8226 H       1  UNL1        0.1189
     14 H          -4.2852  -18.4267   21.4449 H       1  UNL1        0.1189
     15 O          -7.8116  -15.9462   22.9548 O.3     1  UNL1       -0.4725
     16 C          -5.0008  -15.3392   23.8100 C.3     1  UNL1        0.0342
     17 C          -6.0836  -15.4810   24.8383 C.ar    1  UNL1        0.0121
     18 C          -5.7610  -15.3193   26.2943 C.ar    1  UNL1       -0.0013
     19 C          -6.8438  -15.4611   27.3226 C.ar    1  UNL1       -0.0001
     20 C          -8.2491  -15.7647   26.8950 C.ar    1  UNL1        0.0031
     21 C          -8.5717  -15.9263   25.4391 C.ar    1  UNL1        0.0366
     22 C          -7.4890  -15.7845   24.4107 C.ar    1  UNL1        0.1349
@<TRIPOS>BOND
     1    16    17    1
     2    17    18   ar
     3    18    19   ar
     4    19    20   ar
     5    20    21   ar
     6    21    22   ar
     7    22    15    1
     8     1    15    1
     9     1     2    1
    10     2     3   ar
    11     3     4   ar
    12     4     5   ar
    13     5     6   ar
    14     6     7   ar
    15     7     8    1
    16     8     9    1
    17     9    10    1
    18    10    11    1
    19    11    12    1
    20    22    17   ar
    21    10     1    1
    22     7     2   ar
    23    12    13    1
    24    12    14    1
@<TRIPOS>MOLECULE
*****
 22 24 0 0 0
SMALL
GASTEIGER

@<TRIPOS>ATOM
      1 C          -7.8210  -17.3431   22.0493 C.3     1  UNL1        0.2161
      2 C          -7.1046  -18.5225   21.4612 C.ar    1  UNL1        0.0181
      3 C          -7.7955  -19.3944   20.4551 C.ar    1  UNL1       -0.0010
      4 C          -7.0791  -20.5737   19.8670 C.ar    1  UNL1       -0.0002
      5 C          -5.6717  -20.8811   20.2850 C.ar    1  UNL1       -0.0003
      6 C          -4.9807  -20.0092   21.2911 C.ar    1  UNL1       -0.0021
      7 C          -5.6972  -18.8298   21.8792 C.ar    1  UNL1        0.0067
      8 C          -5.0062  -17.9578   22.8853 C.3     1  UNL1        0.1685
      9 O          -5.7226  -16.7785   23.4734 O.3     1  UNL1       -0.3460
     10 C          -7.1300  -16.4711   23.0554 C.3     1  UNL1        0.1750
     11 C          -7.8465  -15.2917   23.6436 C.3     1  UNL1        0.0992
     12 N          -7.1059  -14.3243   24.5185 N.3     1  UNL1       -0.3190
     13 H          -6.8175  -14.7941   25.3767 H       1  UNL1        0.1189
     14 H          -7.7150  -13.5393   24.7489 H       1  UNL1        0.1189
     15 O          -9.2284  -17.0357   21.6313 O.3     1  UNL1       -0.4725
     16 C         -12.0378  -16.3199   20.8600 C.3     1  UNL1        0.0342
     17 C         -11.7844  -17.1512   22.0825 C.ar    1  UNL1        0.0121
     18 C         -12.9357  -17.6246   22.9195 C.ar    1  UNL1       -0.0013
     19 C         -12.6823  -18.4558   24.1421 C.ar    1  UNL1       -0.0001
     20 C         -11.2776  -18.8137   24.5278 C.ar    1  UNL1        0.0031
     21 C         -10.1263  -18.3404   23.6909 C.ar    1  UNL1        0.0366
     22 C         -10.3797  -17.5091   22.4682 C.ar    1  UNL1        0.1349
@<TRIPOS>BOND
     1    16    17    1
     2    17    18   ar
     3    18    19   ar
     4    19    20   ar
     5    20    21   ar
     6    21    22   ar
     7    22    15    1
     8     1    15    1
     9     1     2    1
    10     2     3   ar
    11     3     4   ar
    12     4     5   ar
    13     5     6   ar
    14     6     7   ar
    15     7     8    1
    16     8     9    1
    17     9    10    1
    18    10    11    1
    19    11    12    1
    20    22    17   ar
    21    10     1    1
    22     7     2   ar
    23    12    13    1
    24    12    14    1
@<TRIPOS>MOLECULE
*****
 22 24 0 0 0
SMALL
GASTEIGER

@<TRIPOS>ATOM
      1 C          -7.8581  -17.7138   21.8238 C.3     1  UNL1        0.2161
      2 C          -7.0927  -16.9209   22.8415 C.ar    1  UNL1        0.0181
      3 C          -7.7393  -15.7506   23.5214 C.ar    1  UNL1       -0.0010
      4 C          -6.9740  -14.9578   24.5391 C.ar    1  UNL1       -0.0002
      5 C          -5.5621  -15.3352   24.8768 C.ar    1  UNL1       -0.0003
      6 C          -4.9155  -16.5054   24.1968 C.ar    1  UNL1       -0.0021
      7 C          -5.6808  -17.2983   23.1792 C.ar    1  UNL1        0.0067
      8 C          -5.0342  -18.4686   22.4992 C.3     1  UNL1        0.1685
      9 O          -5.7995  -19.2615   21.4816 O.3     1  UNL1       -0.3460
     10 C          -7.2115  -18.8841   21.1439 C.3     1  UNL1        0.1750
     11 C          -7.9768  -19.6770   20.1262 C.3     1  UNL1        0.0992
     12 N          -8.9847  -18.9963   19.2484 N.3     1  UNL1       -0.3190
     13 H          -9.7595  -18.6582   19.8192 H       1  UNL1        0.1189
     14 H          -9.3357  -19.6588   18.5567 H       1  UNL1        0.1189
     15 O          -9.2700  -17.3364   21.4861 O.3     1  UNL1       -0.4725
     16 C         -12.0529  -16.3470   20.9607 C.3     1  UNL1        0.0342
     17 C         -11.7821  -17.2326   22.1406 C.ar    1  UNL1        0.0121
     18 C         -12.9028  -17.6235   23.0579 C.ar    1  UNL1       -0.0013
     19 C         -12.6320  -18.5091   24.2378 C.ar    1  UNL1       -0.0001
     20 C         -11.2405  -19.0038   24.5005 C.ar    1  UNL1        0.0031
     21 C         -10.1198  -18.6130   23.5833 C.ar    1  UNL1        0.0366
     22 C         -10.3906  -17.7273   22.4033 C.ar    1  UNL1        0.1349
@<TRIPOS>BOND
     1    16    17    1
     2    17    18   ar
     3    18    19   ar
     4    19    20   ar
     5    20    21   ar
     6    21    22   ar
     7    22    15    1
     8     1    15    1
     9     1     2    1
    10     2     3   ar
    11     3     4   ar
    12     4     5   ar
    13     5     6   ar
    14     6     7   ar
    15     7     8    1
    16     8     9    1
    17     9    10    1
    18    10    11    1
    19    11    12    1
    20    22    17   ar
    21    10     1    1
    22     7     2   ar
    23    12    13    1
    24    12    14    1
@<TRIPOS>MOLECULE
*****
 22 24 0 0 0
SMALL
GASTEIGER

@<TRIPOS>ATOM
      1 C          -6.5216  -17.5442   22.2593 C.3     1  UNL1        0.2161
      2 C          -5.4959  -18.5064   21.7374 C.ar    1  UNL1        0.0181
      3 C          -5.8297  -19.4061   20.5846 C.ar    1  UNL1       -0.0010
      4 C          -4.8040  -20.3682   20.0628 C.ar    1  UNL1       -0.0002
      5 C          -3.4447  -20.4306   20.6938 C.ar    1  UNL1       -0.0003
      6 C          -3.1109  -19.5309   21.8466 C.ar    1  UNL1       -0.0021
      7 C          -4.1366  -18.5688   22.3684 C.ar    1  UNL1        0.0067
      8 C          -3.8029  -17.6689   23.5213 C.3     1  UNL1        0.1685
      9 O          -4.8285  -16.7068   24.0431 O.3     1  UNL1       -0.3460
     10 C          -6.1879  -16.6444   23.4121 C.3     1  UNL1        0.1750
     11 C          -7.2136  -15.6822   23.9340 C.3     1  UNL1        0.0992
     12 N          -6.7789  -14.4388   24.6514 N.3     1  UNL1       -0.3190
     13 H          -6.3226  -14.6935   25.5273 H       1  UNL1        0.1189
     14 H          -7.5936  -13.8578   24.8489 H       1  UNL1        0.1189
     15 O          -7.8810  -17.4818   21.6283 O.3     1  UNL1       -0.4725
     16 C          -9.4496  -19.1126   19.6585 C.3     1  UNL1        0.0342
     17 C          -9.7575  -19.2063   21.1235 C.ar    1  UNL1        0.0121
     18 C         -10.8497  -20.1155   21.6037 C.ar    1  UNL1       -0.0013
     19 C         -11.1576  -20.2092   23.0687 C.ar    1  UNL1       -0.0001
     20 C         -10.3733  -19.3939   24.0536 C.ar    1  UNL1        0.0031
     21 C          -9.2811  -18.4847   23.5735 C.ar    1  UNL1        0.0366
     22 C          -8.9732  -18.3909   22.1084 C.ar    1  UNL1        0.1349
@<TRIPOS>BOND
     1    16    17    1
     2    17    18   ar
     3    18    19   ar
     4    19    20   ar
     5    20    21   ar
     6    21    22   ar
     7    22    15    1
     8     1    15    1
     9     1     2    1
    10     2     3   ar
    11     3     4   ar
    12     4     5   ar
    13     5     6   ar
    14     6     7   ar
    15     7     8    1
    16     8     9    1
    17     9    10    1
    18    10    11    1
    19    11    12    1
    20    22    17   ar
    21    10     1    1
    22     7     2   ar
    23    12    13    1
    24    12    14    1
@<TRIPOS>MOLECULE
*****
 22 24 0 0 0
SMALL
GASTEIGER

@<TRIPOS>ATOM
      1 C          -7.2297  -17.8420   22.8751 C.3     1  UNL1        0.2161
      2 C          -6.3673  -18.7481   22.0472 C.ar    1  UNL1        0.0181
      3 C          -6.9831  -19.8950   21.3020 C.ar    1  UNL1       -0.0010
      4 C          -6.1207  -20.8011   20.4743 C.ar    1  UNL1       -0.0002
      5 C          -4.6425  -20.5603   20.3917 C.ar    1  UNL1       -0.0003
      6 C          -4.0266  -19.4134   21.1369 C.ar    1  UNL1       -0.0021
      7 C          -4.8890  -18.5073   21.9647 C.ar    1  UNL1        0.0067
      8 C          -4.2732  -17.3604   22.7099 C.3     1  UNL1        0.1685
      9 O          -5.1356  -16.4543   23.5377 O.3     1  UNL1       -0.3460
     10 C          -6.6138  -16.6951   23.6203 C.3     1  UNL1        0.1750
     11 C          -7.4762  -15.7889   24.4481 C.3     1  UNL1        0.0992
     12 N          -7.5141  -14.3179   24.1574 N.3     1  UNL1       -0.3190
     13 H          -6.6002  -13.9091   24.3527 H       1  UNL1        0.1189
     14 H          -8.2184  -13.8730   24.7460 H       1  UNL1        0.1189
     15 O          -8.7079  -18.0827   22.9576 O.3     1  UNL1       -0.4725
     16 C         -10.6111  -19.8812   21.4935 C.3     1  UNL1        0.0342
     17 C         -10.5713  -18.4153   21.1780 C.ar    1  UNL1        0.0121
     18 C         -11.4832  -17.8486   20.1304 C.ar    1  UNL1       -0.0013
     19 C         -11.4435  -16.3827   19.8149 C.ar    1  UNL1       -0.0001
     20 C         -10.4919  -15.4835   20.5470 C.ar    1  UNL1        0.0031
     21 C          -9.5801  -16.0501   21.5945 C.ar    1  UNL1        0.0366
     22 C          -9.6198  -17.5161   21.9101 C.ar    1  UNL1        0.1349
@<TRIPOS>BOND
     1    16    17    1
     2    17    18   ar
     3    18    19   ar
     4    19    20   ar
     5    20    21   ar
     6    21    22   ar
     7    22    15    1
     8     1    15    1
     9     1     2    1
    10     2     3   ar
    11     3     4   ar
    12     4     5   ar
    13     5     6   ar
    14     6     7   ar
    15     7     8    1
    16     8     9    1
    17     9    10    1
    18    10    11    1
    19    11    12    1
    20    22    17   ar
    21    10     1    1
    22     7     2   ar
    23    12    13    1
    24    12    14    1
@<TRIPOS>MOLECULE
*****
 22 24 0 0 0
SMALL
GASTEIGER

@<TRIPOS>ATOM
      1 C          -8.2454  -16.9534   22.5388 C.3     1  UNL1        0.2161
      2 C          -8.3710  -17.9684   21.4414 C.ar    1  UNL1        0.0181
      3 C          -9.6861  -18.1629   20.7467 C.ar    1  UNL1       -0.0010
      4 C          -9.8117  -19.1778   19.6494 C.ar    1  UNL1       -0.0002
      5 C          -8.6222  -19.9983   19.2469 C.ar    1  UNL1       -0.0003
      6 C          -7.3072  -19.8038   19.9416 C.ar    1  UNL1       -0.0021
      7 C          -7.1816  -18.7888   21.0389 C.ar    1  UNL1        0.0067
      8 C          -5.8664  -18.5943   21.7337 C.3     1  UNL1        0.1685
      9 O          -5.7408  -17.5793   22.8310 O.3     1  UNL1       -0.3460
     10 C          -6.9303  -16.7589   23.2335 C.3     1  UNL1        0.1750
     11 C          -6.8047  -15.7439   24.3309 C.3     1  UNL1        0.0992
     12 N          -7.4153  -14.3836   24.1678 N.3     1  UNL1       -0.3190
     13 H          -6.9374  -13.8841   23.4177 H       1  UNL1        0.1189
     14 H          -7.3198  -13.8614   25.0388 H       1  UNL1        0.1189
     15 O          -9.4349  -16.1329   22.9413 O.3     1  UNL1       -0.4725
     16 C          -9.6160  -18.3603   24.9429 C.3     1  UNL1        0.0342
     17 C         -10.8429  -17.9141   24.2043 C.ar    1  UNL1        0.0121
     18 C         -12.1604  -18.5815   24.4664 C.ar    1  UNL1       -0.0013
     19 C         -13.3873  -18.1353   23.7278 C.ar    1  UNL1       -0.0001
     20 C         -13.2967  -17.0217   22.7270 C.ar    1  UNL1        0.0031
     21 C         -11.9793  -16.3542   22.4649 C.ar    1  UNL1        0.0366
     22 C         -10.7523  -16.8004   23.2035 C.ar    1  UNL1        0.1349
@<TRIPOS>BOND
     1    16    17    1
     2    17    18   ar
     3    18    19   ar
     4    19    20   ar
     5    20    21   ar
     6    21    22   ar
     7    22    15    1
     8     1    15    1
     9     1     2    1
    10     2     3   ar
    11     3     4   ar
    12     4     5   ar
    13     5     6   ar
    14     6     7   ar
    15     7     8    1
    16     8     9    1
    17     9    10    1
    18    10    11    1
    19    11    12    1
    20    22    17   ar
    21    10     1    1
    22     7     2   ar
    23    12    13    1
    24    12    14    1
@<TRIPOS>MOLECULE
*****
 22 24 0 0 0
SMALL
GASTEIGER

@<TRIPOS>ATOM
      1 C          -9.2244  -17.4830   21.4493 C.3     1  UNL1        0.2161
      2 C          -8.0355  -18.3872   21.3103 C.ar    1  UNL1        0.0181
      3 C          -6.8295  -18.1790   22.1774 C.ar    1  UNL1       -0.0010
      4 C          -5.6407  -19.0832   22.0384 C.ar    1  UNL1       -0.0002
      5 C          -5.6580  -20.1954   21.0321 C.ar    1  UNL1       -0.0003
      6 C          -6.8641  -20.4036   20.1649 C.ar    1  UNL1       -0.0021
      7 C          -8.0528  -19.4995   20.3040 C.ar    1  UNL1        0.0067
      8 C          -9.2590  -19.7076   19.4368 C.3     1  UNL1        0.1685
      9 O         -10.4477  -18.8035   19.5758 O.3     1  UNL1       -0.3460
     10 C         -10.4304  -17.6912   20.5821 C.3     1  UNL1        0.1750
     11 C         -11.6193  -16.7871   20.7211 C.3     1  UNL1        0.0992
     12 N         -12.1411  -16.0451   19.5265 N.3     1  UNL1       -0.3190
     13 H         -11.4454  -15.3661   19.2175 H       1  UNL1        0.1189
     14 H         -13.0022  -15.5595   19.7773 H       1  UNL1        0.1189
     15 O          -9.2071  -16.3708   22.4555 O.3     1  UNL1       -0.4725
     16 C          -7.5489  -14.6342   24.2541 C.3     1  UNL1        0.0342
     17 C          -8.2795  -15.8165   24.8182 C.ar    1  UNL1        0.0121
     18 C          -8.1810  -16.1306   26.2817 C.ar    1  UNL1       -0.0013
     19 C          -8.9116  -17.3129   26.8459 C.ar    1  UNL1       -0.0001
     20 C          -9.7408  -18.1812   25.9466 C.ar    1  UNL1        0.0031
     21 C          -9.8392  -17.8671   24.4832 C.ar    1  UNL1        0.0366
     22 C          -9.1086  -16.6848   23.9190 C.ar    1  UNL1        0.1349
@<TRIPOS>BOND
     1    16    17    1
     2    17    18   ar
     3    18    19   ar
     4    19    20   ar
     5    20    21   ar
     6    21    22   ar
     7    22    15    1
     8     1    15    1
     9     1     2    1
    10     2     3   ar
    11     3     4   ar
    12     4     5   ar
    13     5     6   ar
    14     6     7   ar
    15     7     8    1
    16     8     9    1
    17     9    10    1
    18    10    11    1
    19    11    12    1
    20    22    17   ar
    21    10     1    1
    22     7     2   ar
    23    12    13    1
    24    12    14    1
@<TRIPOS>MOLECULE
*****
 22 24 0 0 0
SMALL
GASTEIGER

@<TRIPOS>ATOM
      1 C          -7.4077  -17.9054   22.2874 C.3     1  UNL1        0.2161
      2 C          -8.5314  -18.3129   21.3811 C.ar    1  UNL1        0.0181
      3 C          -8.5107  -19.6588   20.7192 C.ar    1  UNL1       -0.0010
      4 C          -9.6344  -20.0662   19.8130 C.ar    1  UNL1       -0.0002
      5 C         -10.7788  -19.1277   19.5686 C.ar    1  UNL1       -0.0003
      6 C         -10.7995  -17.7819   20.2305 C.ar    1  UNL1       -0.0021
      7 C          -9.6758  -17.3745   21.1368 C.ar    1  UNL1        0.0067
      8 C          -9.6965  -16.0285   21.7987 C.3     1  UNL1        0.1685
      9 O          -8.5728  -15.6211   22.7050 O.3     1  UNL1       -0.3460
     10 C          -7.4284  -16.5596   22.9493 C.3     1  UNL1        0.1750
     11 C          -6.3047  -16.1521   23.8556 C.3     1  UNL1        0.0992
     12 N          -5.5055  -14.9196   23.5519 N.3     1  UNL1       -0.3190
     13 H          -4.9849  -15.0570   22.6856 H       1  UNL1        0.1189
     14 H          -4.8536  -14.7404   24.3156 H       1  UNL1        0.1189
     15 O          -6.2634  -18.8439   22.5318 O.3     1  UNL1       -0.4725
     16 C          -3.6263  -18.0368   23.7128 C.3     1  UNL1        0.0342
     17 C          -3.7230  -18.3751   22.2547 C.ar    1  UNL1        0.0121
     18 C          -2.5011  -18.3099   21.3870 C.ar    1  UNL1       -0.0013
     19 C          -2.5978  -18.6482   19.9288 C.ar    1  UNL1       -0.0001
     20 C          -3.9163  -19.0517   19.3383 C.ar    1  UNL1        0.0031
     21 C          -5.1382  -19.1170   20.2060 C.ar    1  UNL1        0.0366
     22 C          -5.0415  -18.7787   21.6642 C.ar    1  UNL1        0.1349
@<TRIPOS>BOND
     1    16    17    1
     2    17    18   ar
     3    18    19   ar
     4    19    20   ar
     5    20    21   ar
     6    21    22   ar
     7    22    15    1
     8     1    15    1
     9     1     2    1
    10     2     3   ar
    11     3     4   ar
    12     4     5   ar
    13     5     6   ar
    14     6     7   ar
    15     7     8    1
    16     8     9    1
    17     9    10    1
    18    10    11    1
    19    11    12    1
    20    22    17   ar
    21    10     1    1
    22     7     2   ar
    23    12    13    1
    24    12    14    1
@<TRIPOS>MOLECULE
*****
 22 24 0 0 0
SMALL
GASTEIGER

@<TRIPOS>ATOM
      1 C          -6.5062  -17.6806   22.4315 C.3     1  UNL1        0.2161
      2 C          -5.0545  -18.0536   22.3705 C.ar    1  UNL1        0.0181
      3 C          -4.0067  -17.0560   22.7664 C.ar    1  UNL1       -0.0010
      4 C          -2.5551  -17.4290   22.7055 C.ar    1  UNL1       -0.0002
      5 C          -2.1514  -18.7995   22.2486 C.ar    1  UNL1       -0.0003
      6 C          -3.1992  -19.7970   21.8526 C.ar    1  UNL1       -0.0021
      7 C          -4.6508  -19.4241   21.9136 C.ar    1  UNL1        0.0067
      8 C          -5.6988  -20.4216   21.5177 C.3     1  UNL1        0.1685
      9 O          -7.1504  -20.0487   21.5786 O.3     1  UNL1       -0.3460
     10 C          -7.5541  -18.6782   22.0355 C.3     1  UNL1        0.1750
     11 C          -9.0058  -18.3053   22.0965 C.3     1  UNL1        0.0992
     12 N          -9.5586  -17.2851   21.1459 N.3     1  UNL1       -0.3190
     13 H          -9.1404  -16.3757   21.3421 H       1  UNL1        0.1189
     14 H         -10.5703  -17.2261   21.2612 H       1  UNL1        0.1189
     15 O          -6.9099  -16.3101   22.8884 O.3     1  UNL1       -0.4725
     16 C          -9.5025  -16.1607   24.3905 C.3     1  UNL1        0.0342
     17 C          -8.2075  -15.9025   25.1020 C.ar    1  UNL1        0.0121
     18 C          -8.2087  -15.5696   26.5646 C.ar    1  UNL1       -0.0013
     19 C          -6.9137  -15.3114   27.2761 C.ar    1  UNL1       -0.0001
     20 C          -5.6174  -15.3861   26.5250 C.ar    1  UNL1        0.0031
     21 C          -5.6162  -15.7190   25.0625 C.ar    1  UNL1        0.0366
     22 C          -6.9112  -15.9772   24.3509 C.ar    1  UNL1        0.1349
@<TRIPOS>BOND
     1    16    17    1
     2    17    18   ar
     3    18    19   ar
     4    19    20   ar
     5    20    21   ar
     6    21    22   ar
     7    22    15    1
     8     1    15    1
     9     1     2    1
    10     2     3   ar
    11     3     4   ar
    12     4     5   ar
    13     5     6   ar
    14     6     7   ar
    15     7     8    1
    16     8     9    1
    17     9    10    1
    18    10    11    1
    19    11    12    1
    20    22    17   ar
    21    10     1    1
    22     7     2   ar
    23    12    13    1
    24    12    14    1
