@<TRIPOS>MOLECULE
*****
 34 38 0 0 0
SMALL
GASTEIGER

@<TRIPOS>ATOM
      1 N          -7.4927  -18.7150   21.7492 N.3     1  UNL1       -0.2641
      2 C          -8.8187  -19.1063   22.3310 C.3     1  UNL1        0.0981
      3 C          -8.8926  -20.1850   23.3707 C.3     1  UNL1        0.0224
      4 C         -10.2186  -20.5764   23.9525 C.3     1  UNL1        0.0065
      5 C         -11.4707  -19.8890   23.4947 C.3     1  UNL1        0.0277
      6 C         -11.3969  -18.8103   22.4551 C.ar    1  UNL1       -0.0073
      7 C         -12.6490  -18.1229   21.9972 C.ar    1  UNL1       -0.0015
      8 C         -12.5752  -17.0442   20.9576 C.ar    1  UNL1        0.0203
      9 C         -11.2492  -16.6528   20.3758 C.ar    1  UNL1        0.0985
     10 N          -9.9970  -17.3402   20.8336 N.ar    1  UNL1       -0.2471
     11 C         -10.0708  -18.4190   21.8732 C.ar    1  UNL1        0.0695
     12 C          -6.6185  -19.7527   21.1098 C.3     1  UNL1        0.0994
     13 C          -2.2611  -18.8905   20.3891 C.ar    1  UNL1       -0.0066
     14 C          -3.2502  -18.7402   19.2715 C.ar    1  UNL1       -0.0032
     15 C          -4.7027  -19.0276   19.5118 C.ar    1  UNL1       -0.0032
     16 C          -5.1661  -19.4653   20.8696 C.ar    1  UNL1       -0.0062
     17 C          -4.1769  -19.6157   21.9872 C.ar    1  UNL1       -0.0032
     18 C          -2.7245  -19.3283   21.7470 C.ar    1  UNL1       -0.0032
     19 N          -0.3798  -17.9073   18.8911 N.3     1  UNL1       -0.3175
     20 C          -0.8086  -18.6031   20.1489 C.3     1  UNL1        0.0922
     21 H           0.6339  -17.7944   18.8937 H       1  UNL1        0.1192
     22 H          -0.8240  -16.9904   18.8414 H       1  UNL1        0.1192
     23 C          -7.0408  -17.2859   21.8068 C.3     1  UNL1        0.0889
     24 C          -6.7746  -16.6362   23.1324 C.3     1  UNL1        0.0764
     25 C          -7.9001  -16.4158   24.0991 C.3     1  UNL1        0.0626
     26 C          -7.6339  -15.7661   25.4247 C.ar    1  UNL1        0.0577
     27 N          -8.7595  -15.5457   26.3914 N.ar    1  UNL1       -0.2484
     28 C          -8.4933  -14.8961   27.7169 C.ar    1  UNL1        0.0984
     29 C          -7.1015  -14.4669   28.0757 C.ar    1  UNL1        0.0204
     30 C          -5.9760  -14.6873   27.1090 C.ar    1  UNL1       -0.0002
     31 C          -6.2422  -15.3369   25.7835 C.ar    1  UNL1        0.0073
     32 C          -5.1166  -15.5573   24.8167 C.3     1  UNL1        0.0968
     33 N          -5.3828  -16.2070   23.4912 N.3     1  UNL1       -0.2934
     34 H          -4.7974  -17.0412   23.4493 H       1  UNL1        0.1236
@<TRIPOS>BOND
     1    19    20    1
     2    20    13    1
     3    13    14   ar
     4    14    15   ar
     5    15    16   ar
     6    16    12    1
     7    12     1    1
     8     1    23    1
     9    24    23    1
    10    24    25    1
    11    25    26    1
    12    26    27   ar
    13    27    28   ar
    14    28    29   ar
    15    29    30   ar
    16    30    31   ar
    17    31    32    1
    18    32    33    1
    19     2     1    1
    20     2     3    1
    21     3     4    1
    22     4     5    1
    23     5     6    1
    24     6     7   ar
    25     7     8   ar
    26     8     9   ar
    27     9    10   ar
    28    10    11   ar
    29    16    17   ar
    30    17    18   ar
    31    18    13   ar
    32    33    24    1
    33    11     2    1
    34    31    26   ar
    35    11     6   ar
    36    19    21    1
    37    19    22    1
    38    33    34    1
@<TRIPOS>MOLECULE
*****
 34 38 0 0 0
SMALL
GASTEIGER

@<TRIPOS>ATOM
      1 N          -8.7309  -17.4083   21.5574 N.3     1  UNL1       -0.2641
      2 C         -10.2146  -17.2193   21.4440 C.3     1  UNL1        0.0981
      3 C         -10.7937  -16.5349   20.2414 C.3     1  UNL1        0.0224
      4 C         -12.2774  -16.3459   20.1280 C.3     1  UNL1        0.0065
      5 C         -13.1820  -16.8412   21.2171 C.3     1  UNL1        0.0277
      6 C         -12.6029  -17.5255   22.4197 C.ar    1  UNL1       -0.0073
      7 C         -13.5075  -18.0208   23.5090 C.ar    1  UNL1       -0.0015
      8 C         -12.9284  -18.7051   24.7116 C.ar    1  UNL1        0.0203
      9 C         -11.4447  -18.8942   24.8250 C.ar    1  UNL1        0.0985
     10 N         -10.5401  -18.3989   23.7358 N.ar    1  UNL1       -0.2471
     11 C         -11.1192  -17.7145   22.5332 C.ar    1  UNL1        0.0695
     12 C          -7.8560  -16.2559   21.9529 C.3     1  UNL1        0.0994
     13 C          -6.9705  -15.4907   26.2980 C.ar    1  UNL1       -0.0066
     14 C          -5.8448  -15.6899   25.3269 C.ar    1  UNL1       -0.0032
     15 C          -6.1399  -15.9449   23.8786 C.ar    1  UNL1       -0.0032
     16 C          -7.5608  -16.0008   23.4013 C.ar    1  UNL1       -0.0062
     17 C          -8.6866  -15.8016   24.3724 C.ar    1  UNL1       -0.0032
     18 C          -8.3915  -15.5466   25.8207 C.ar    1  UNL1       -0.0032
     19 N          -6.9661  -13.8916   28.3457 N.3     1  UNL1       -0.3175
     20 C          -6.6753  -15.2356   27.7464 C.3     1  UNL1        0.0922
     21 H          -6.7058  -13.8956   29.3319 H       1  UNL1        0.1192
     22 H          -7.9617  -13.6882   28.2576 H       1  UNL1        0.1192
     23 C          -8.1220  -18.7498   21.2753 C.3     1  UNL1        0.0889
     24 C          -6.6309  -18.9130   21.2817 C.3     1  UNL1        0.0764
     25 C          -5.8211  -18.4534   20.1057 C.3     1  UNL1        0.0626
     26 C          -4.3300  -18.6166   20.1120 C.ar    1  UNL1        0.0577
     27 N          -3.5202  -18.1570   18.9360 N.ar    1  UNL1       -0.2484
     28 C          -2.0292  -18.3202   18.9424 C.ar    1  UNL1        0.0984
     29 C          -1.3479  -18.9430   20.1247 C.ar    1  UNL1        0.0204
     30 C          -2.1576  -19.4026   21.3007 C.ar    1  UNL1       -0.0002
     31 C          -3.6487  -19.2394   21.2943 C.ar    1  UNL1        0.0073
     32 C          -4.4585  -19.6990   22.4704 C.3     1  UNL1        0.0968
     33 N          -5.9496  -19.5358   22.4640 N.3     1  UNL1       -0.2934
     34 H          -6.1867  -18.9646   23.2751 H       1  UNL1        0.1236
@<TRIPOS>BOND
     1    19    20    1
     2    20    13    1
     3    13    14   ar
     4    14    15   ar
     5    15    16   ar
     6    16    12    1
     7    12     1    1
     8     1    23    1
     9    24    23    1
    10    24    25    1
    11    25    26    1
    12    26    27   ar
    13    27    28   ar
    14    28    29   ar
    15    29    30   ar
    16    30    31   ar
    17    31    32    1
    18    32    33    1
    19     2     1    1
    20     2     3    1
    21     3     4    1
    22     4     5    1
    23     5     6    1
    24     6     7   ar
    25     7     8   ar
    26     8     9   ar
    27     9    10   ar
    28    10    11   ar
    29    16    17   ar
    30    17    18   ar
    31    18    13   ar
    32    33    24    1
    33    11     2    1
    34    31    26   ar
    35    11     6   ar
    36    19    21    1
    37    19    22    1
    38    33    34    1
@<TRIPOS>MOLECULE
*****
 34 38 0 0 0
SMALL
GASTEIGER

@<TRIPOS>ATOM
      1 N          -7.6576  -18.4792   22.0969 N.3     1  UNL1       -0.2641
      2 C          -9.0410  -18.8249   22.5625 C.3     1  UNL1        0.0981
      3 C          -9.2414  -19.9113   23.5771 C.3     1  UNL1        0.0224
      4 C         -10.6248  -20.2569   24.0426 C.3     1  UNL1        0.0065
      5 C         -11.8078  -19.5161   23.4936 C.3     1  UNL1        0.0277
      6 C         -11.6075  -18.4297   22.4790 C.ar    1  UNL1       -0.0073
      7 C         -12.7906  -17.6888   21.9299 C.ar    1  UNL1       -0.0015
      8 C         -12.5903  -16.6024   20.9153 C.ar    1  UNL1        0.0203
      9 C         -11.2069  -16.2567   20.4497 C.ar    1  UNL1        0.0985
     10 N         -10.0238  -16.9975   20.9988 N.ar    1  UNL1       -0.2471
     11 C         -10.2241  -18.0841   22.0134 C.ar    1  UNL1        0.0695
     12 C          -7.1489  -17.0750   22.2348 C.3     1  UNL1        0.0994
     13 C          -6.7709  -15.2089   26.3121 C.ar    1  UNL1       -0.0066
     14 C          -5.5398  -15.5408   25.5222 C.ar    1  UNL1       -0.0032
     15 C          -5.6658  -16.1628   24.1631 C.ar    1  UNL1       -0.0032
     16 C          -7.0229  -16.4529   23.5939 C.ar    1  UNL1       -0.0062
     17 C          -8.2541  -16.1210   24.3838 C.ar    1  UNL1       -0.0032
     18 C          -8.1281  -15.4990   25.7430 C.ar    1  UNL1       -0.0032
     19 N          -7.8430  -13.9650   28.3255 N.3     1  UNL1       -0.3175
     20 C          -6.6449  -14.5869   27.6713 C.3     1  UNL1        0.0922
     21 H          -7.5779  -13.5937   29.2377 H       1  UNL1        0.1192
     22 H          -8.5703  -14.6704   28.4437 H       1  UNL1        0.1192
     23 C          -6.7830  -19.5379   21.4934 C.3     1  UNL1        0.0889
     24 C          -5.3104  -19.2967   21.3402 C.3     1  UNL1        0.0764
     25 C          -4.7645  -18.7928   20.0372 C.3     1  UNL1        0.0626
     26 C          -3.2920  -18.5516   19.8840 C.ar    1  UNL1        0.0577
     27 N          -2.7461  -18.0476   18.5810 N.ar    1  UNL1       -0.2484
     28 C          -1.2735  -17.8064   18.4278 C.ar    1  UNL1        0.0984
     29 C          -0.3469  -18.0692   19.5778 C.ar    1  UNL1        0.0204
     30 C          -0.8928  -18.5731   20.8808 C.ar    1  UNL1       -0.0002
     31 C          -2.3653  -18.8143   21.0339 C.ar    1  UNL1        0.0073
     32 C          -2.9113  -19.3183   22.3370 C.3     1  UNL1        0.0968
     33 N          -4.3838  -19.5595   22.4902 N.3     1  UNL1       -0.2934
     34 H          -4.6995  -18.9729   23.2626 H       1  UNL1        0.1236
@<TRIPOS>BOND
     1    19    20    1
     2    20    13    1
     3    13    14   ar
     4    14    15   ar
     5    15    16   ar
     6    16    12    1
     7    12     1    1
     8     1    23    1
     9    24    23    1
    10    24    25    1
    11    25    26    1
    12    26    27   ar
    13    27    28   ar
    14    28    29   ar
    15    29    30   ar
    16    30    31   ar
    17    31    32    1
    18    32    33    1
    19     2     1    1
    20     2     3    1
    21     3     4    1
    22     4     5    1
    23     5     6    1
    24     6     7   ar
    25     7     8   ar
    26     8     9   ar
    27     9    10   ar
    28    10    11   ar
    29    16    17   ar
    30    17    18   ar
    31    18    13   ar
    32    33    24    1
    33    11     2    1
    34    31    26   ar
    35    11     6   ar
    36    19    21    1
    37    19    22    1
    38    33    34    1
@<TRIPOS>MOLECULE
*****
 34 38 0 0 0
SMALL
GASTEIGER

@<TRIPOS>ATOM
      1 N          -7.7056  -18.2413   22.5928 N.3     1  UNL1       -0.2641
      2 C          -9.1328  -18.4849   22.9850 C.3     1  UNL1        0.0981
      3 C          -9.4501  -19.3999   24.1305 C.3     1  UNL1        0.0224
      4 C         -10.8773  -19.6434   24.5227 C.3     1  UNL1        0.0065
      5 C         -11.9871  -18.9720   23.7696 C.3     1  UNL1        0.0277
      6 C         -11.6698  -18.0570   22.6241 C.ar    1  UNL1       -0.0073
      7 C         -12.7797  -17.3855   21.8709 C.ar    1  UNL1       -0.0015
      8 C         -12.4624  -16.4705   20.7255 C.ar    1  UNL1        0.0203
      9 C         -11.0353  -16.2270   20.3332 C.ar    1  UNL1        0.0985
     10 N          -9.9254  -16.8984   21.0864 N.ar    1  UNL1       -0.2471
     11 C         -10.2427  -17.8135   22.2319 C.ar    1  UNL1        0.0695
     12 C          -7.0913  -16.8887   22.7997 C.3     1  UNL1        0.0994
     13 C          -6.9987  -15.0649   26.9125 C.ar    1  UNL1       -0.0066
     14 C          -8.3087  -15.4534   26.2937 C.ar    1  UNL1       -0.0032
     15 C          -8.3395  -16.0613   24.9227 C.ar    1  UNL1       -0.0032
     16 C          -7.0604  -16.2807   24.1706 C.ar    1  UNL1       -0.0062
     17 C          -5.7504  -15.8922   24.7895 C.ar    1  UNL1       -0.0032
     18 C          -5.7195  -15.2843   26.1604 C.ar    1  UNL1       -0.0032
     19 N          -6.4818  -13.0500   28.4692 N.3     1  UNL1       -0.3175
     20 C          -6.9678  -14.4569   28.2834 C.3     1  UNL1        0.0922
     21 H          -6.5286  -12.8018   29.4574 H       1  UNL1        0.1192
     22 H          -7.0691  -12.4135   27.9305 H       1  UNL1        0.1192
     23 C          -6.8928  -19.3505   21.9936 C.3     1  UNL1        0.0889
     24 C          -5.6413  -19.0347   21.2292 C.3     1  UNL1        0.0764
     25 C          -4.3161  -19.0233   21.9318 C.3     1  UNL1        0.0626
     26 C          -3.0646  -18.7076   21.1674 C.ar    1  UNL1        0.0577
     27 N          -1.7394  -18.6962   21.8700 N.ar    1  UNL1       -0.2484
     28 C          -0.4880  -18.3805   21.1056 C.ar    1  UNL1        0.0984
     29 C          -0.5619  -18.0760   19.6387 C.ar    1  UNL1        0.0204
     30 C          -1.8871  -18.0873   18.9361 C.ar    1  UNL1       -0.0002
     31 C          -3.1384  -18.4031   19.7005 C.ar    1  UNL1        0.0073
     32 C          -4.4637  -18.4144   18.9979 C.3     1  UNL1        0.0968
     33 N          -5.7151  -18.7302   19.7623 N.3     1  UNL1       -0.2934
     34 H          -6.1369  -19.5434   19.3136 H       1  UNL1        0.1236
@<TRIPOS>BOND
     1    19    20    1
     2    20    13    1
     3    13    14   ar
     4    14    15   ar
     5    15    16   ar
     6    16    12    1
     7    12     1    1
     8     1    23    1
     9    24    23    1
    10    24    25    1
    11    25    26    1
    12    26    27   ar
    13    27    28   ar
    14    28    29   ar
    15    29    30   ar
    16    30    31   ar
    17    31    32    1
    18    32    33    1
    19     2     1    1
    20     2     3    1
    21     3     4    1
    22     4     5    1
    23     5     6    1
    24     6     7   ar
    25     7     8   ar
    26     8     9   ar
    27     9    10   ar
    28    10    11   ar
    29    16    17   ar
    30    17    18   ar
    31    18    13   ar
    32    33    24    1
    33    11     2    1
    34    31    26   ar
    35    11     6   ar
    36    19    21    1
    37    19    22    1
    38    33    34    1
@<TRIPOS>MOLECULE
*****
 34 38 0 0 0
SMALL
GASTEIGER

@<TRIPOS>ATOM
      1 N          -7.4029  -19.0584   21.9865 N.3     1  UNL1       -0.2641
      2 C          -6.2660  -19.6742   21.2261 C.3     1  UNL1        0.0981
      3 C          -6.5446  -20.6255   20.1004 C.3     1  UNL1        0.0224
      4 C          -5.4076  -21.2413   19.3401 C.3     1  UNL1        0.0065
      5 C          -3.9921  -20.9058   19.7054 C.3     1  UNL1        0.0277
      6 C          -3.7134  -19.9544   20.8311 C.ar    1  UNL1       -0.0073
      7 C          -2.2978  -19.6188   21.1965 C.ar    1  UNL1       -0.0015
      8 C          -2.0192  -18.6675   22.3222 C.ar    1  UNL1        0.0203
      9 C          -3.1561  -18.0517   23.0826 C.ar    1  UNL1        0.0985
     10 N          -4.5717  -18.3872   22.7173 N.ar    1  UNL1       -0.2471
     11 C          -4.8504  -19.3386   21.5915 C.ar    1  UNL1        0.0695
     12 C          -8.3691  -19.9327   22.7295 C.3     1  UNL1        0.0994
     13 C         -12.5082  -18.4304   23.6573 C.ar    1  UNL1       -0.0066
     14 C         -12.0131  -18.4385   22.2414 C.ar    1  UNL1       -0.0032
     15 C         -10.6334  -18.9393   21.9321 C.ar    1  UNL1       -0.0032
     16 C          -9.7488  -19.4319   23.0387 C.ar    1  UNL1       -0.0062
     17 C         -10.2438  -19.4238   24.4547 C.ar    1  UNL1       -0.0032
     18 C         -11.6235  -18.9231   24.7640 C.ar    1  UNL1       -0.0032
     19 N         -14.6103  -18.4255   25.1841 N.3     1  UNL1       -0.3175
     20 C         -13.8879  -17.9297   23.9666 C.3     1  UNL1        0.0922
     21 H         -15.5281  -17.9837   25.2384 H       1  UNL1        0.1192
     22 H         -14.0709  -18.1925   26.0179 H       1  UNL1        0.1192
     23 C          -7.5737  -17.5683   22.0039 C.3     1  UNL1        0.0889
     24 C          -7.2025  -16.7850   23.2282 C.3     1  UNL1        0.0764
     25 C          -8.1800  -16.6514   24.3580 C.3     1  UNL1        0.0626
     26 C          -7.8088  -15.8681   25.5823 C.ar    1  UNL1        0.0577
     27 N          -8.7864  -15.7345   26.7121 N.ar    1  UNL1       -0.2484
     28 C          -8.4152  -14.9513   27.9363 C.ar    1  UNL1        0.0984
     29 C          -7.0664  -14.3017   28.0307 C.ar    1  UNL1        0.0204
     30 C          -6.0889  -14.4353   26.9009 C.ar    1  UNL1       -0.0002
     31 C          -6.4601  -15.2185   25.6767 C.ar    1  UNL1        0.0073
     32 C          -5.4825  -15.3522   24.5468 C.3     1  UNL1        0.0968
     33 N          -5.8537  -16.1354   23.3226 N.3     1  UNL1       -0.2934
     34 H          -5.1617  -16.8787   23.2274 H       1  UNL1        0.1236
@<TRIPOS>BOND
     1    19    20    1
     2    20    13    1
     3    13    14   ar
     4    14    15   ar
     5    15    16   ar
     6    16    12    1
     7    12     1    1
     8     1    23    1
     9    24    23    1
    10    24    25    1
    11    25    26    1
    12    26    27   ar
    13    27    28   ar
    14    28    29   ar
    15    29    30   ar
    16    30    31   ar
    17    31    32    1
    18    32    33    1
    19     2     1    1
    20     2     3    1
    21     3     4    1
    22     4     5    1
    23     5     6    1
    24     6     7   ar
    25     7     8   ar
    26     8     9   ar
    27     9    10   ar
    28    10    11   ar
    29    16    17   ar
    30    17    18   ar
    31    18    13   ar
    32    33    24    1
    33    11     2    1
    34    31    26   ar
    35    11     6   ar
    36    19    21    1
    37    19    22    1
    38    33    34    1
@<TRIPOS>MOLECULE
*****
 34 38 0 0 0
SMALL
GASTEIGER

@<TRIPOS>ATOM
      1 N          -7.7718  -19.4606   22.2426 N.3     1  UNL1       -0.2641
      2 C          -7.9041  -17.9667   22.2722 C.3     1  UNL1        0.0981
      3 C          -6.9918  -17.1500   23.1386 C.3     1  UNL1        0.0224
      4 C          -7.1241  -15.6562   23.1683 C.3     1  UNL1        0.0065
      5 C          -8.1687  -14.9790   22.3315 C.3     1  UNL1        0.0277
      6 C          -9.0810  -15.7957   21.4651 C.ar    1  UNL1       -0.0073
      7 C         -10.1256  -15.1185   20.6282 C.ar    1  UNL1       -0.0015
      8 C         -11.0379  -15.9352   19.7618 C.ar    1  UNL1        0.0203
      9 C         -10.9056  -17.4290   19.7322 C.ar    1  UNL1        0.0985
     10 N          -9.8610  -18.1062   20.5690 N.ar    1  UNL1       -0.2471
     11 C          -8.9487  -17.2895   21.4354 C.ar    1  UNL1        0.0695
     12 C          -8.6605  -20.3094   23.1025 C.3     1  UNL1        0.0994
     13 C         -12.6557  -18.7371   24.4502 C.ar    1  UNL1       -0.0066
     14 C         -12.4444  -19.1159   23.0143 C.ar    1  UNL1       -0.0032
     15 C         -11.1127  -19.6400   22.5651 C.ar    1  UNL1       -0.0032
     16 C          -9.9923  -19.7853   23.5518 C.ar    1  UNL1       -0.0062
     17 C         -10.2036  -19.4065   24.9877 C.ar    1  UNL1       -0.0032
     18 C         -11.5353  -18.8824   25.4370 C.ar    1  UNL1       -0.0032
     19 N         -14.5389  -18.6131   26.2359 N.3     1  UNL1       -0.3175
     20 C         -13.9875  -18.2130   24.8995 C.3     1  UNL1        0.0922
     21 H         -15.4456  -18.1678   26.3767 H       1  UNL1        0.1192
     22 H         -13.8968  -18.3171   26.9711 H       1  UNL1        0.1192
     23 C          -6.7508  -20.1056   21.3530 C.3     1  UNL1        0.0889
     24 C          -5.3456  -19.5816   21.3212 C.3     1  UNL1        0.0764
     25 C          -4.7302  -19.1638   20.0186 C.3     1  UNL1        0.0626
     26 C          -3.3250  -18.6398   19.9869 C.ar    1  UNL1        0.0577
     27 N          -2.7096  -18.2220   18.6843 N.ar    1  UNL1       -0.2484
     28 C          -1.3045  -17.6981   18.6526 C.ar    1  UNL1        0.0984
     29 C          -0.5148  -17.5919   19.9234 C.ar    1  UNL1        0.0204
     30 C          -1.1301  -18.0096   21.2260 C.ar    1  UNL1       -0.0002
     31 C          -2.5353  -18.5336   21.2577 C.ar    1  UNL1        0.0073
     32 C          -3.1507  -18.9514   22.5603 C.3     1  UNL1        0.0968
     33 N          -4.5558  -19.4754   22.5921 N.3     1  UNL1       -0.2934
     34 H          -5.0835  -18.8654   23.2165 H       1  UNL1        0.1236
@<TRIPOS>BOND
     1    19    20    1
     2    20    13    1
     3    13    14   ar
     4    14    15   ar
     5    15    16   ar
     6    16    12    1
     7    12     1    1
     8     1    23    1
     9    24    23    1
    10    24    25    1
    11    25    26    1
    12    26    27   ar
    13    27    28   ar
    14    28    29   ar
    15    29    30   ar
    16    30    31   ar
    17    31    32    1
    18    32    33    1
    19     2     1    1
    20     2     3    1
    21     3     4    1
    22     4     5    1
    23     5     6    1
    24     6     7   ar
    25     7     8   ar
    26     8     9   ar
    27     9    10   ar
    28    10    11   ar
    29    16    17   ar
    30    17    18   ar
    31    18    13   ar
    32    33    24    1
    33    11     2    1
    34    31    26   ar
    35    11     6   ar
    36    19    21    1
    37    19    22    1
    38    33    34    1
@<TRIPOS>MOLECULE
*****
 34 38 0 0 0
SMALL
GASTEIGER

@<TRIPOS>ATOM
      1 N          -7.3268  -17.8839   22.0955 N.3     1  UNL1       -0.2641
      2 C          -8.4065  -18.4518   21.2227 C.3     1  UNL1        0.0981
      3 C          -8.0447  -19.2664   20.0162 C.3     1  UNL1        0.0224
      4 C          -9.1243  -19.8344   19.1434 C.3     1  UNL1        0.0065
      5 C         -10.5658  -19.5877   19.4770 C.3     1  UNL1        0.0277
      6 C         -10.9276  -18.7731   20.6835 C.ar    1  UNL1       -0.0073
      7 C         -12.3691  -18.5264   21.0171 C.ar    1  UNL1       -0.0015
      8 C         -12.7309  -17.7118   22.2235 C.ar    1  UNL1        0.0203
      9 C         -11.6513  -17.1439   23.0963 C.ar    1  UNL1        0.0985
     10 N         -10.2098  -17.3905   22.7627 N.ar    1  UNL1       -0.2471
     11 C          -9.8479  -18.2052   21.5563 C.ar    1  UNL1        0.0695
     12 C          -7.3462  -16.4295   22.4620 C.3     1  UNL1        0.0994
     13 C          -6.9558  -15.1895   26.7701 C.ar    1  UNL1       -0.0066
     14 C          -8.2963  -15.5772   26.2198 C.ar    1  UNL1       -0.0032
     15 C          -8.4264  -15.9905   24.7837 C.ar    1  UNL1       -0.0032
     16 C          -7.2161  -16.0162   23.8980 C.ar    1  UNL1       -0.0062
     17 C          -5.8756  -15.6285   24.4484 C.ar    1  UNL1       -0.0032
     18 C          -5.7455  -15.2151   25.8844 C.ar    1  UNL1       -0.0032
     19 N          -6.9380  -13.3286   28.5831 N.3     1  UNL1       -0.3175
     20 C          -6.8257  -14.7761   28.2062 C.3     1  UNL1        0.0922
     21 H          -6.8255  -13.2302   29.5921 H       1  UNL1        0.1192
     22 H          -7.8542  -12.9754   28.3071 H       1  UNL1        0.1192
     23 C          -6.2278  -18.7703   22.6017 C.3     1  UNL1        0.0889
     24 C          -4.9004  -18.7925   21.9034 C.3     1  UNL1        0.0764
     25 C          -3.9883  -17.6048   21.9884 C.3     1  UNL1        0.0626
     26 C          -2.6609  -17.6270   21.2901 C.ar    1  UNL1        0.0577
     27 N          -1.7487  -16.4393   21.3751 N.ar    1  UNL1       -0.2484
     28 C          -0.4214  -16.4616   20.6768 C.ar    1  UNL1        0.0984
     29 C          -0.0062  -17.6715   19.8935 C.ar    1  UNL1        0.0204
     30 C          -0.9184  -18.8592   19.8085 C.ar    1  UNL1       -0.0002
     31 C          -2.2457  -18.8370   20.5068 C.ar    1  UNL1        0.0073
     32 C          -3.1579  -20.0247   20.4218 C.3     1  UNL1        0.0968
     33 N          -4.4852  -20.0025   21.1201 N.3     1  UNL1       -0.2934
     34 H          -4.4897  -20.7893   21.7692 H       1  UNL1        0.1236
@<TRIPOS>BOND
     1    19    20    1
     2    20    13    1
     3    13    14   ar
     4    14    15   ar
     5    15    16   ar
     6    16    12    1
     7    12     1    1
     8     1    23    1
     9    24    23    1
    10    24    25    1
    11    25    26    1
    12    26    27   ar
    13    27    28   ar
    14    28    29   ar
    15    29    30   ar
    16    30    31   ar
    17    31    32    1
    18    32    33    1
    19     2     1    1
    20     2     3    1
    21     3     4    1
    22     4     5    1
    23     5     6    1
    24     6     7   ar
    25     7     8   ar
    26     8     9   ar
    27     9    10   ar
    28    10    11   ar
    29    16    17   ar
    30    17    18   ar
    31    18    13   ar
    32    33    24    1
    33    11     2    1
    34    31    26   ar
    35    11     6   ar
    36    19    21    1
    37    19    22    1
    38    33    34    1
@<TRIPOS>MOLECULE
*****
 34 38 0 0 0
SMALL
GASTEIGER

@<TRIPOS>ATOM
      1 N          -6.4498  -18.5849   22.0304 N.3     1  UNL1       -0.2641
      2 C          -5.3253  -19.1913   21.2445 C.3     1  UNL1        0.0981
      3 C          -5.5591  -20.4335   20.4369 C.3     1  UNL1        0.0224
      4 C          -4.4346  -21.0399   19.6509 C.3     1  UNL1        0.0065
      5 C          -3.0762  -20.4042   19.6726 C.3     1  UNL1        0.0277
      6 C          -2.8423  -19.1620   20.4802 C.ar    1  UNL1       -0.0073
      7 C          -1.4839  -18.5262   20.5019 C.ar    1  UNL1       -0.0015
      8 C          -1.2500  -17.2840   21.3094 C.ar    1  UNL1        0.0203
      9 C          -2.3745  -16.6776   22.0954 C.ar    1  UNL1        0.0985
     10 N          -3.7329  -17.3133   22.0737 N.ar    1  UNL1       -0.2471
     11 C          -3.9669  -18.5556   21.2661 C.ar    1  UNL1        0.0695
     12 C          -6.5203  -17.0978   22.2135 C.3     1  UNL1        0.0994
     13 C          -7.0328  -15.3596   26.3324 C.ar    1  UNL1       -0.0066
     14 C          -8.2329  -15.6009   25.4656 C.ar    1  UNL1       -0.0032
     15 C          -8.0621  -16.1803   24.0926 C.ar    1  UNL1       -0.0032
     16 C          -6.6911  -16.5184   23.5865 C.ar    1  UNL1       -0.0062
     17 C          -5.4909  -16.2771   24.4533 C.ar    1  UNL1       -0.0032
     18 C          -5.6618  -15.6977   25.8263 C.ar    1  UNL1       -0.0032
     19 N          -8.5523  -14.3014   28.1550 N.3     1  UNL1       -0.3175
     20 C          -7.2036  -14.7802   27.7054 C.3     1  UNL1        0.0922
     21 H          -8.4852  -13.9412   29.1069 H       1  UNL1        0.1192
     22 H          -9.2139  -15.0774   28.1309 H       1  UNL1        0.1192
     23 C          -7.5038  -19.4655   22.6333 C.3     1  UNL1        0.0889
     24 C          -8.9412  -19.0373   22.6118 C.3     1  UNL1        0.0764
     25 C          -9.7942  -19.2120   23.8333 C.3     1  UNL1        0.0626
     26 C         -11.2316  -18.7838   23.8118 C.ar    1  UNL1        0.0577
     27 N         -12.0845  -18.9584   25.0332 N.ar    1  UNL1       -0.2484
     28 C         -13.5219  -18.5302   25.0117 C.ar    1  UNL1        0.0984
     29 C         -14.1064  -17.9274   23.7688 C.ar    1  UNL1        0.0204
     30 C         -13.2535  -17.7528   22.5473 C.ar    1  UNL1       -0.0002
     31 C         -11.8161  -18.1809   22.5688 C.ar    1  UNL1        0.0073
     32 C         -10.9631  -18.0063   21.3473 C.3     1  UNL1        0.0968
     33 N          -9.5257  -18.4345   21.3689 N.3     1  UNL1       -0.2934
     34 H          -8.9689  -17.6077   21.1527 H       1  UNL1        0.1236
@<TRIPOS>BOND
     1    19    20    1
     2    20    13    1
     3    13    14   ar
     4    14    15   ar
     5    15    16   ar
     6    16    12    1
     7    12     1    1
     8     1    23    1
     9    24    23    1
    10    24    25    1
    11    25    26    1
    12    26    27   ar
    13    27    28   ar
    14    28    29   ar
    15    29    30   ar
    16    30    31   ar
    17    31    32    1
    18    32    33    1
    19     2     1    1
    20     2     3    1
    21     3     4    1
    22     4     5    1
    23     5     6    1
    24     6     7   ar
    25     7     8   ar
    26     8     9   ar
    27     9    10   ar
    28    10    11   ar
    29    16    17   ar
    30    17    18   ar
    31    18    13   ar
    32    33    24    1
    33    11     2    1
    34    31    26   ar
    35    11     6   ar
    36    19    21    1
    37    19    22    1
    38    33    34    1
@<TRIPOS>MOLECULE
*****
 34 38 0 0 0
SMALL
GASTEIGER

@<TRIPOS>ATOM
      1 N          -0.0470    2.2807   20.4303 N.3     1  UNL1       -0.2641
      2 C          -0.8399    3.0599   19.4232 C.3     1  UNL1        0.0981
      3 C          -0.1827    3.5478   18.1663 C.3     1  UNL1        0.0224
      4 C          -0.9756    4.3269   17.1591 C.3     1  UNL1        0.0065
      5 C          -2.4256    4.6181   17.4089 C.3     1  UNL1        0.0277
      6 C          -3.0828    4.1302   18.6658 C.ar    1  UNL1       -0.0073
      7 C          -4.5330    4.4214   18.9157 C.ar    1  UNL1       -0.0015
      8 C          -5.1902    3.9334   20.1726 C.ar    1  UNL1        0.0203
      9 C          -4.3973    3.1543   21.1798 C.ar    1  UNL1        0.0985
     10 N          -2.9473    2.8631   20.9300 N.ar    1  UNL1       -0.2471
     11 C          -2.2900    3.3511   19.6730 C.ar    1  UNL1        0.0695
     12 C           0.0609    0.7896   20.3088 C.3     1  UNL1        0.0994
     13 C           3.7997   -1.0662   18.6273 C.ar    1  UNL1       -0.0066
     14 C           3.0680   -0.0146   17.8471 C.ar    1  UNL1       -0.0032
     15 C           1.8218    0.6040   18.4076 C.ar    1  UNL1       -0.0032
     16 C           1.3071    0.1710   19.7483 C.ar    1  UNL1       -0.0062
     17 C           2.0388   -0.8806   20.5286 C.ar    1  UNL1       -0.0032
     18 C           3.2851   -1.4992   19.9681 C.ar    1  UNL1       -0.0032
     19 N           5.0910   -3.1574   17.7851 N.3     1  UNL1       -0.3175
     20 C           5.0459   -1.6848   18.0668 C.3     1  UNL1        0.0922
     21 H           6.0071   -3.4041   17.4106 H       1  UNL1        0.1192
     22 H           4.3699   -3.3956   17.1041 H       1  UNL1        0.1192
     23 C           0.6379    2.9928   21.5590 C.3     1  UNL1        0.0889
     24 C           0.1566    2.8037   22.9671 C.3     1  UNL1        0.0764
     25 C           0.9911    2.0347   23.9480 C.3     1  UNL1        0.0626
     26 C           0.5099    1.8457   25.3561 C.ar    1  UNL1        0.0577
     27 N           1.3443    1.0767   26.3370 N.ar    1  UNL1       -0.2484
     28 C           0.8631    0.8877   27.7451 C.ar    1  UNL1        0.0984
     29 C          -0.4527    1.4677   28.1722 C.ar    1  UNL1        0.0204
     30 C          -1.2871    2.2367   27.1913 C.ar    1  UNL1       -0.0002
     31 C          -0.8059    2.4257   25.7833 C.ar    1  UNL1        0.0073
     32 C          -1.6403    3.1947   24.8022 C.3     1  UNL1        0.0968
     33 N          -1.1591    3.3837   23.3942 N.3     1  UNL1       -0.2934
     34 H          -1.1031    4.3896   23.2347 H       1  UNL1        0.1236
@<TRIPOS>BOND
     1    19    20    1
     2    20    13    1
     3    13    14   ar
     4    14    15   ar
     5    15    16   ar
     6    16    12    1
     7    12     1    1
     8     1    23    1
     9    24    23    1
    10    24    25    1
    11    25    26    1
    12    26    27   ar
    13    27    28   ar
    14    28    29   ar
    15    29    30   ar
    16    30    31   ar
    17    31    32    1
    18    32    33    1
    19     2     1    1
    20     2     3    1
    21     3     4    1
    22     4     5    1
    23     5     6    1
    24     6     7   ar
    25     7     8   ar
    26     8     9   ar
    27     9    10   ar
    28    10    11   ar
    29    16    17   ar
    30    17    18   ar
    31    18    13   ar
    32    33    24    1
    33    11     2    1
    34    31    26   ar
    35    11     6   ar
    36    19    21    1
    37    19    22    1
    38    33    34    1
