@<TRIPOS>MOLECULE
*****
 43 48 0 0 0
SMALL
GASTEIGER

@<TRIPOS>ATOM
      1 N           3.1388    0.3159   31.5134 N.am    1  UNL1       -0.2222
      2 C           2.4721    0.4244   30.1740 C.2     1  UNL1        0.3219
      3 O           2.7693   -0.4198   28.9703 O.2     1  UNL1       -0.2512
      4 N           1.4560    1.5252   30.2499 N.am    1  UNL1       -0.1907
      5 C           1.4947    2.0971   31.6360 C.2     1  UNL1        0.2529
      6 O           0.6430    3.2193   32.1510 O.2     1  UNL1       -0.2724
      7 C           2.5348    1.3497   32.4170 C.3     1  UNL1        0.1391
      8 C           3.6002    0.5182   33.0677 C.3     1  UNL1        0.0449
      9 C           3.9711    0.7619   34.5005 C.3     1  UNL1        0.0746
     10 N           3.2765    1.8370   35.2826 N.3     1  UNL1       -0.2676
     11 C           2.2112    2.6685   34.6319 C.3     1  UNL1        0.0746
     12 C           1.8403    2.4249   33.1991 C.3     1  UNL1        0.0449
     13 C           6.7350   -1.3021   31.9597 C.ar    1  UNL1        0.2293
     14 C           5.6541   -0.3304   31.5890 C.ar    1  UNL1        0.0924
     15 C           4.2198   -0.6557   31.8840 C.ar    1  UNL1        0.1453
     16 N           3.8665   -1.9527   32.5497 N.ar    1  UNL1       -0.2084
     17 C           4.9474   -2.9243   32.9203 C.ar    1  UNL1        0.2027
     18 N           6.3818   -2.5990   32.6253 N.ar    1  UNL1       -0.1892
     19 C           9.1833   -2.0779   31.5675 C.3     1  UNL1        0.2542
     20 O           8.1693   -0.9768   31.6647 O.3     1  UNL1       -0.4560
     21 C           0.5587    1.9751   29.1353 C.ar    1  UNL1        0.0622
     22 C          -0.4696    1.0376   28.5753 C.ar    1  UNL1        0.0154
     23 C          -1.3669    1.4875   27.4607 C.ar    1  UNL1        0.0013
     24 C          -1.2359    2.8751   26.9060 C.ar    1  UNL1        0.0001
     25 C          -0.2076    3.8127   27.4661 C.ar    1  UNL1        0.0013
     26 C           0.6896    3.3627   28.5807 C.ar    1  UNL1        0.0154
     27 C          -2.1333    3.3250   25.7914 C.ar    1  UNL1        0.0000
     28 C          -3.4956    3.8717   26.0996 C.ar    1  UNL1        0.0000
     29 C          -4.3930    4.3217   24.9849 C.ar    1  UNL1        0.0000
     30 C          -3.9278    4.2249   23.5622 C.ar    1  UNL1        0.0011
     31 C          -2.5654    3.6781   23.2540 C.ar    1  UNL1        0.0140
     32 C          -1.6681    3.2282   24.3686 C.ar    1  UNL1        0.0011
     33 C          -2.1003    3.5814   21.8312 C.2     1  UNL1        0.0729
     34 O          -2.9178    2.8274   20.8246 O.co2   1  UNL1       -0.5446
     35 O          -0.8178    4.2385   21.4150 O.co2   1  UNL1       -0.5446
     36 C           3.6475    2.0807   36.7155 C.3     1  UNL1        0.1183
     37 C           2.6417    1.8399   37.8020 C.ar    1  UNL1        0.0712
     38 N           2.5598    0.4964   38.4639 N.ar    1  UNL1       -0.2471
     39 C           1.5539    0.2557   39.5504 C.ar    1  UNL1        0.0985
     40 C           0.6300    1.3585   39.9749 C.ar    1  UNL1        0.0203
     41 C           0.7119    2.7020   39.3129 C.ar    1  UNL1       -0.0015
     42 C           1.7177    2.9427   38.2265 C.ar    1  UNL1       -0.0069
     43 C           1.7996    4.2863   37.5645 C.3     1  UNL1        0.0323
@<TRIPOS>UNITY_ATOM_ATTR
34 1
charge -1
@<TRIPOS>BOND
     1    19    20    1
     2    20    13    1
     3    13    14   ar
     4    14    15   ar
     5    15     1    1
     6     1     2   am
     7     2     3    2
     8     2     4   am
     9     4    21    1
    10    21    22   ar
    11    22    23   ar
    12    23    24   ar
    13    24    27    1
    14    27    28   ar
    15    28    29   ar
    16    29    30   ar
    17    30    31   ar
    18    31    33    1
    19    33    34   ar
    20    33    35   ar
    21    31    32   ar
    22    24    25   ar
    23    25    26   ar
    24     4     5   am
    25     5     6    2
    26     5     7    1
    27     7     8    1
    28     8     9    1
    29     9    10    1
    30    10    36    1
    31    36    37    1
    32    37    38   ar
    33    38    39   ar
    34    39    40   ar
    35    40    41   ar
    36    41    42   ar
    37    42    43    1
    38    10    11    1
    39    11    12    1
    40    15    16   ar
    41    16    17   ar
    42    17    18   ar
    43    18    13   ar
    44     7     1    1
    45    42    37   ar
    46    26    21   ar
    47    12     7    1
    48    32    27   ar
@<TRIPOS>MOLECULE
*****
 43 48 0 0 0
SMALL
GASTEIGER

@<TRIPOS>ATOM
      1 N           2.9525    0.8484   31.4829 N.am    1  UNL1       -0.2222
      2 C           2.4154    0.8062   30.0829 C.2     1  UNL1        0.3219
      3 O           2.8116   -0.1706   29.0157 O.2     1  UNL1       -0.2512
      4 N           1.4126    1.9122   29.9376 N.am    1  UNL1       -0.1907
      5 C           1.3299    2.6380   31.2477 C.2     1  UNL1        0.2529
      6 O           0.4500    3.8147   31.5498 O.2     1  UNL1       -0.2724
      7 C           2.2816    1.9806   32.2028 C.3     1  UNL1        0.1391
      8 C           3.2695    1.2247   33.0410 C.3     1  UNL1        0.0449
      9 C           3.5083    1.6285   34.4657 C.3     1  UNL1        0.0746
     10 N           2.7593    2.7882   35.0522 N.3     1  UNL1       -0.2676
     11 C           1.7714    3.5441   34.2140 C.3     1  UNL1        0.0746
     12 C           1.5326    3.1403   32.7893 C.3     1  UNL1        0.0449
     13 C           6.4644   -0.6594   32.5519 C.ar    1  UNL1        0.2293
     14 C           5.4368    0.2677   31.9734 C.ar    1  UNL1        0.0924
     15 C           3.9800   -0.0786   32.0614 C.ar    1  UNL1        0.1453
     16 N           3.5508   -1.3521   32.7278 N.ar    1  UNL1       -0.2084
     17 C           4.5782   -2.2792   33.3063 C.ar    1  UNL1        0.2027
     18 N           6.0351   -1.9328   33.2183 N.ar    1  UNL1       -0.1892
     19 C           8.9512   -1.2618   33.0017 C.3     1  UNL1        0.2542
     20 O           7.9212   -0.3132   32.4639 O.3     1  UNL1       -0.4560
     21 C           0.6299    2.2356   28.6996 C.ar    1  UNL1        0.0622
     22 C          -0.1078    1.1499   27.9737 C.ar    1  UNL1        0.0154
     23 C          -0.8905    1.4734   26.7356 C.ar    1  UNL1        0.0013
     24 C          -0.9355    2.8825   26.2235 C.ar    1  UNL1        0.0001
     25 C          -0.1977    3.9683   26.9494 C.ar    1  UNL1        0.0013
     26 C           0.5850    3.6448   28.1874 C.ar    1  UNL1        0.0154
     27 C          -1.7182    3.2060   24.9854 C.ar    1  UNL1        0.0000
     28 C          -1.0238    3.2840   23.6581 C.ar    1  UNL1        0.0000
     29 C          -1.8065    3.6074   22.4200 C.ar    1  UNL1        0.0000
     30 C          -3.2836    3.8528   22.5094 C.ar    1  UNL1        0.0011
     31 C          -3.9780    3.7748   23.8366 C.ar    1  UNL1        0.0140
     32 C          -3.1953    3.4514   25.0746 C.ar    1  UNL1        0.0011
     33 C          -5.4551    4.0202   23.9259 C.2     1  UNL1        0.0729
     34 O          -6.0586    4.5042   25.2109 O.co2   1  UNL1       -0.5446
     35 O          -6.3286    3.7816   22.7300 O.co2   1  UNL1       -0.5446
     36 C           2.9982    3.1920   36.4770 C.3     1  UNL1        0.1183
     37 C           2.2505    2.5112   37.5849 C.ar    1  UNL1        0.0712
     38 N           0.9566    3.0861   38.0803 N.ar    1  UNL1       -0.2471
     39 C           0.2089    2.4053   39.1883 C.ar    1  UNL1        0.0985
     40 C           0.7550    1.1497   39.8007 C.ar    1  UNL1        0.0203
     41 C           2.0489    0.5749   39.3053 C.ar    1  UNL1       -0.0015
     42 C           2.7966    1.2556   38.1974 C.ar    1  UNL1       -0.0069
     43 C           4.0905    0.6807   37.7020 C.3     1  UNL1        0.0323
@<TRIPOS>UNITY_ATOM_ATTR
34 1
charge -1
@<TRIPOS>BOND
     1    19    20    1
     2    20    13    1
     3    13    14   ar
     4    14    15   ar
     5    15     1    1
     6     1     2   am
     7     2     3    2
     8     2     4   am
     9     4    21    1
    10    21    22   ar
    11    22    23   ar
    12    23    24   ar
    13    24    27    1
    14    27    28   ar
    15    28    29   ar
    16    29    30   ar
    17    30    31   ar
    18    31    33    1
    19    33    34   ar
    20    33    35   ar
    21    31    32   ar
    22    24    25   ar
    23    25    26   ar
    24     4     5   am
    25     5     6    2
    26     5     7    1
    27     7     8    1
    28     8     9    1
    29     9    10    1
    30    10    36    1
    31    36    37    1
    32    37    38   ar
    33    38    39   ar
    34    39    40   ar
    35    40    41   ar
    36    41    42   ar
    37    42    43    1
    38    10    11    1
    39    11    12    1
    40    15    16   ar
    41    16    17   ar
    42    17    18   ar
    43    18    13   ar
    44     7     1    1
    45    42    37   ar
    46    26    21   ar
    47    12     7    1
    48    32    27   ar
@<TRIPOS>MOLECULE
*****
 43 48 0 0 0
SMALL
GASTEIGER

@<TRIPOS>ATOM
      1 N           3.9169    0.4331   31.5871 N.am    1  UNL1       -0.2222
      2 C           3.2642    0.5928   30.2460 C.2     1  UNL1        0.3219
      3 O           3.7292   -0.0238   28.9601 O.2     1  UNL1       -0.2512
      4 N           2.0647    1.4773   30.4166 N.am    1  UNL1       -0.1907
      5 C           1.9762    1.8642   31.8631 C.2     1  UNL1        0.2529
      6 O           0.9272    2.7423   32.4783 O.2     1  UNL1       -0.2724
      7 C           3.1209    1.2189   32.5866 C.3     1  UNL1        0.1391
      8 C           4.3079    0.5127   33.1716 C.3     1  UNL1        0.0449
      9 C           4.6045    0.6323   34.6370 C.3     1  UNL1        0.0746
     10 N           3.7141    1.4580   35.5176 N.3     1  UNL1       -0.2676
     11 C           2.5271    2.1642   34.9326 C.3     1  UNL1        0.0746
     12 C           2.2305    2.0447   33.4671 C.3     1  UNL1        0.0449
     13 C           6.2814   -2.6603   32.3550 C.ar    1  UNL1        0.2293
     14 C           5.0491   -1.8560   32.0644 C.ar    1  UNL1        0.0924
     15 C           5.1493   -0.3711   31.8777 C.ar    1  UNL1        0.1453
     16 N           6.4819    0.3096   31.9816 N.ar    1  UNL1       -0.2084
     17 C           7.7143   -0.4945   32.2722 C.ar    1  UNL1        0.2027
     18 N           7.6141   -1.9796   32.4589 N.ar    1  UNL1       -0.1892
     19 C           6.9338   -5.0682   31.6297 C.3     1  UNL1        0.2542
     20 O           6.1813   -4.1452   32.5417 O.3     1  UNL1       -0.4560
     21 C           1.1198    1.9004   29.3314 C.ar    1  UNL1        0.0622
     22 C           1.0883    3.3305   28.8798 C.ar    1  UNL1        0.0154
     23 C           0.1433    3.7537   27.7945 C.ar    1  UNL1        0.0013
     24 C          -0.7702    2.7468   27.1607 C.ar    1  UNL1        0.0001
     25 C          -0.7387    1.3166   27.6122 C.ar    1  UNL1        0.0013
     26 C           0.2063    0.8935   28.6976 C.ar    1  UNL1        0.0154
     27 C          -1.7152    3.1700   26.0753 C.ar    1  UNL1        0.0000
     28 C          -1.2914    3.0901   24.6387 C.ar    1  UNL1        0.0000
     29 C          -2.2364    3.5133   23.5533 C.ar    1  UNL1        0.0000
     30 C          -3.6051    4.0163   23.9048 C.ar    1  UNL1        0.0011
     31 C          -4.0289    4.0962   25.3415 C.ar    1  UNL1        0.0140
     32 C          -3.0840    3.6730   26.4267 C.ar    1  UNL1        0.0011
     33 C          -5.3977    4.5992   25.6928 C.2     1  UNL1        0.0729
     34 O          -5.6255    5.3050   26.9966 O.co2   1  UNL1       -0.5446
     35 O          -6.5386    4.3965   24.7403 O.co2   1  UNL1       -0.5446
     36 C           4.0107    1.5775   36.9831 C.3     1  UNL1        0.1183
     37 C           2.8905    1.5455   37.9801 C.ar    1  UNL1        0.0712
     38 N           2.3642    0.2309   38.4749 N.ar    1  UNL1       -0.2471
     39 C           1.2439    0.1990   39.4720 C.ar    1  UNL1        0.0985
     40 C           0.6500    1.4816   39.9742 C.ar    1  UNL1        0.0203
     41 C           1.1764    2.7962   39.4793 C.ar    1  UNL1       -0.0015
     42 C           2.2966    2.8282   38.4824 C.ar    1  UNL1       -0.0069
     43 C           2.8229    4.1427   37.9875 C.3     1  UNL1        0.0323
@<TRIPOS>UNITY_ATOM_ATTR
34 1
charge -1
@<TRIPOS>BOND
     1    19    20    1
     2    20    13    1
     3    13    14   ar
     4    14    15   ar
     5    15     1    1
     6     1     2   am
     7     2     3    2
     8     2     4   am
     9     4    21    1
    10    21    22   ar
    11    22    23   ar
    12    23    24   ar
    13    24    27    1
    14    27    28   ar
    15    28    29   ar
    16    29    30   ar
    17    30    31   ar
    18    31    33    1
    19    33    34   ar
    20    33    35   ar
    21    31    32   ar
    22    24    25   ar
    23    25    26   ar
    24     4     5   am
    25     5     6    2
    26     5     7    1
    27     7     8    1
    28     8     9    1
    29     9    10    1
    30    10    36    1
    31    36    37    1
    32    37    38   ar
    33    38    39   ar
    34    39    40   ar
    35    40    41   ar
    36    41    42   ar
    37    42    43    1
    38    10    11    1
    39    11    12    1
    40    15    16   ar
    41    16    17   ar
    42    17    18   ar
    43    18    13   ar
    44     7     1    1
    45    42    37   ar
    46    26    21   ar
    47    12     7    1
    48    32    27   ar
@<TRIPOS>MOLECULE
*****
 43 48 0 0 0
SMALL
GASTEIGER

@<TRIPOS>ATOM
      1 N           3.6696   -1.1888   21.5896 N.am    1  UNL1       -0.2222
      2 C           2.4496   -0.3182   21.6531 C.2     1  UNL1        0.3219
      3 O           1.5657    0.0467   20.4975 O.2     1  UNL1       -0.2512
      4 N           2.2688    0.1234   23.0753 N.am    1  UNL1       -0.1907
      5 C           3.3769   -0.4742   23.8906 C.2     1  UNL1        0.2529
      6 O           3.5832   -0.2928   25.3652 O.2     1  UNL1       -0.2724
      7 C           4.2427   -1.2852   22.9725 C.3     1  UNL1        0.1391
      8 C           5.0112   -2.0536   21.9386 C.3     1  UNL1        0.0449
      9 C           6.2351   -2.8254   22.3339 C.3     1  UNL1        0.0746
     10 N           6.6904   -2.8290   23.7631 N.3     1  UNL1       -0.2676
     11 C           5.9219   -2.0606   24.7970 C.3     1  UNL1        0.0746
     12 C           4.6980   -1.2887   24.4017 C.3     1  UNL1        0.0449
     13 C           5.6847   -1.7443   18.2162 C.ar    1  UNL1        0.2293
     14 C           5.1346   -1.0858   19.4465 C.ar    1  UNL1        0.0924
     15 C           4.2197   -1.8473   20.3593 C.ar    1  UNL1        0.1453
     16 N           3.8550   -3.2672   20.0418 N.ar    1  UNL1       -0.2084
     17 C           4.4051   -3.9257   18.8115 C.ar    1  UNL1        0.2027
     18 N           5.3200   -3.1643   17.8987 N.ar    1  UNL1       -0.1892
     19 C           6.2970    0.4453   16.9591 C.3     1  UNL1        0.2542
     20 O           6.5996   -0.9830   17.3034 O.3     1  UNL1       -0.4560
     21 C           1.1725    1.0074   23.5913 C.ar    1  UNL1        0.0622
     22 C           0.5976    2.0794   22.7136 C.ar    1  UNL1        0.0154
     23 C          -0.4988    2.9634   23.2297 C.ar    1  UNL1        0.0013
     24 C          -1.0204    2.7755   24.6235 C.ar    1  UNL1        0.0001
     25 C          -0.4455    1.7034   25.5013 C.ar    1  UNL1        0.0013
     26 C           0.6509    0.8195   24.9851 C.ar    1  UNL1        0.0154
     27 C          -2.1169    3.6595   25.1396 C.ar    1  UNL1        0.0000
     28 C          -1.8670    4.5547   26.3170 C.ar    1  UNL1        0.0000
     29 C          -2.9634    5.4387   26.8331 C.ar    1  UNL1        0.0000
     30 C          -4.3097    5.4275   26.1717 C.ar    1  UNL1        0.0011
     31 C          -4.5596    4.5323   24.9944 C.ar    1  UNL1        0.0140
     32 C          -3.4632    3.6483   24.4783 C.ar    1  UNL1        0.0011
     33 C          -5.9059    4.5212   24.3331 C.2     1  UNL1        0.0729
     34 O          -7.0502    5.2704   24.9490 O.co2   1  UNL1       -0.5446
     35 O          -6.1080    3.7608   23.0559 O.co2   1  UNL1       -0.5446
     36 C           7.9144   -3.6009   24.1584 C.3     1  UNL1        0.1183
     37 C           7.7789   -4.9837   24.7234 C.ar    1  UNL1        0.0712
     38 N           7.1286   -5.1876   26.0597 N.ar    1  UNL1       -0.2471
     39 C           6.9932   -6.5706   26.6247 C.ar    1  UNL1        0.0985
     40 C           7.5081   -7.7495   25.8535 C.ar    1  UNL1        0.0203
     41 C           8.1584   -7.5457   24.5173 C.ar    1  UNL1       -0.0015
     42 C           8.2938   -6.1628   23.9522 C.ar    1  UNL1       -0.0069
     43 C           8.9442   -5.9590   22.6160 C.3     1  UNL1        0.0323
@<TRIPOS>UNITY_ATOM_ATTR
34 1
charge -1
@<TRIPOS>BOND
     1    19    20    1
     2    20    13    1
     3    13    14   ar
     4    14    15   ar
     5    15     1    1
     6     1     2   am
     7     2     3    2
     8     2     4   am
     9     4    21    1
    10    21    22   ar
    11    22    23   ar
    12    23    24   ar
    13    24    27    1
    14    27    28   ar
    15    28    29   ar
    16    29    30   ar
    17    30    31   ar
    18    31    33    1
    19    33    34   ar
    20    33    35   ar
    21    31    32   ar
    22    24    25   ar
    23    25    26   ar
    24     4     5   am
    25     5     6    2
    26     5     7    1
    27     7     8    1
    28     8     9    1
    29     9    10    1
    30    10    36    1
    31    36    37    1
    32    37    38   ar
    33    38    39   ar
    34    39    40   ar
    35    40    41   ar
    36    41    42   ar
    37    42    43    1
    38    10    11    1
    39    11    12    1
    40    15    16   ar
    41    16    17   ar
    42    17    18   ar
    43    18    13   ar
    44     7     1    1
    45    42    37   ar
    46    26    21   ar
    47    12     7    1
    48    32    27   ar
@<TRIPOS>MOLECULE
*****
 43 48 0 0 0
SMALL
GASTEIGER

@<TRIPOS>ATOM
      1 N           3.6537   -1.1834   21.5706 N.am    1  UNL1       -0.2222
      2 C           2.4333   -0.3122   21.6148 C.2     1  UNL1        0.3219
      3 O           1.5600    0.0419   20.4478 O.2     1  UNL1       -0.2512
      4 N           2.2397    0.1428   23.0310 N.am    1  UNL1       -0.1907
      5 C           3.3403   -0.4471   23.8620 C.2     1  UNL1        0.2529
      6 O           3.5332   -0.2518   25.3366 O.2     1  UNL1       -0.2724
      7 C           4.2142   -1.2668   22.9595 C.3     1  UNL1        0.1391
      8 C           4.9920   -2.0449   21.9399 C.3     1  UNL1        0.0449
      9 C           6.2121   -2.8130   22.3535 C.3     1  UNL1        0.0746
     10 N           6.6545   -2.8031   23.7868 N.3     1  UNL1       -0.2676
     11 C           5.8767   -2.0250   24.8064 C.3     1  UNL1        0.0746
     12 C           4.6566   -1.2568   24.3927 C.3     1  UNL1        0.0449
     13 C           5.7267   -1.7823   18.2399 C.ar    1  UNL1        0.2293
     14 C           5.1655   -1.1122   19.4589 C.ar    1  UNL1        0.0924
     15 C           4.2149   -1.8535   20.3516 C.ar    1  UNL1        0.1453
     16 N           3.8255   -3.2648   20.0253 N.ar    1  UNL1       -0.2084
     17 C           4.3867   -3.9349   18.8063 C.ar    1  UNL1        0.2027
     18 N           5.3373   -3.1936   17.9136 N.ar    1  UNL1       -0.1892
     19 C           6.3720    0.3675   16.9316 C.3     1  UNL1        0.2542
     20 O           6.6773   -1.0411   17.3472 O.3     1  UNL1       -0.4560
     21 C           1.1388    1.0317   23.5287 C.ar    1  UNL1        0.0622
     22 C           0.6473    0.8985   24.9396 C.ar    1  UNL1        0.0154
     23 C          -0.4537    1.7874   25.4374 C.ar    1  UNL1        0.0013
     24 C          -1.0632    2.8095   24.5242 C.ar    1  UNL1        0.0001
     25 C          -0.5717    2.9427   23.1132 C.ar    1  UNL1        0.0013
     26 C           0.5293    2.0538   22.6156 C.ar    1  UNL1        0.0154
     27 C          -2.1641    3.6984   25.0220 C.ar    1  UNL1        0.0000
     28 C          -3.4781    3.7410   24.2997 C.ar    1  UNL1        0.0000
     29 C          -4.5791    4.6299   24.7975 C.ar    1  UNL1        0.0000
     30 C          -4.3660    5.4762   26.0175 C.ar    1  UNL1        0.0011
     31 C          -3.0520    5.4336   26.7397 C.ar    1  UNL1        0.0140
     32 C          -1.9511    4.5448   26.2420 C.ar    1  UNL1        0.0011
     33 C          -2.8390    6.2799   27.9597 C.2     1  UNL1        0.0729
     34 O          -4.0184    6.8143   28.7170 O.co2   1  UNL1       -0.5446
     35 O          -1.4466    6.5919   28.4224 O.co2   1  UNL1       -0.5446
     36 C           7.8747   -3.5712   24.2004 C.3     1  UNL1        0.1183
     37 C           7.7366   -4.9624   24.7440 C.ar    1  UNL1        0.0712
     38 N           7.0668   -5.1877   26.0671 N.ar    1  UNL1       -0.2471
     39 C           6.9288   -6.5789   26.6106 C.ar    1  UNL1        0.0985
     40 C           7.4605   -7.7449   25.8311 C.ar    1  UNL1        0.0203
     41 C           8.1303   -7.5197   24.5079 C.ar    1  UNL1       -0.0015
     42 C           8.2684   -6.1285   23.9644 C.ar    1  UNL1       -0.0069
     43 C           8.9382   -5.9033   22.6413 C.3     1  UNL1        0.0323
@<TRIPOS>UNITY_ATOM_ATTR
34 1
charge -1
@<TRIPOS>BOND
     1    19    20    1
     2    20    13    1
     3    13    14   ar
     4    14    15   ar
     5    15     1    1
     6     1     2   am
     7     2     3    2
     8     2     4   am
     9     4    21    1
    10    21    22   ar
    11    22    23   ar
    12    23    24   ar
    13    24    27    1
    14    27    28   ar
    15    28    29   ar
    16    29    30   ar
    17    30    31   ar
    18    31    33    1
    19    33    34   ar
    20    33    35   ar
    21    31    32   ar
    22    24    25   ar
    23    25    26   ar
    24     4     5   am
    25     5     6    2
    26     5     7    1
    27     7     8    1
    28     8     9    1
    29     9    10    1
    30    10    36    1
    31    36    37    1
    32    37    38   ar
    33    38    39   ar
    34    39    40   ar
    35    40    41   ar
    36    41    42   ar
    37    42    43    1
    38    10    11    1
    39    11    12    1
    40    15    16   ar
    41    16    17   ar
    42    17    18   ar
    43    18    13   ar
    44     7     1    1
    45    42    37   ar
    46    26    21   ar
    47    12     7    1
    48    32    27   ar
@<TRIPOS>MOLECULE
*****
 43 48 0 0 0
SMALL
GASTEIGER

@<TRIPOS>ATOM
      1 N           3.4674   -0.1173   30.6438 N.am    1  UNL1       -0.2222
      2 C           2.2093    0.6510   30.3657 C.2     1  UNL1        0.3219
      3 O           1.3205    1.2886   31.3921 O.2     1  UNL1       -0.2512
      4 N           1.9962    0.6698   28.8810 N.am    1  UNL1       -0.1907
      5 C           3.1225   -0.0869   28.2415 C.2     1  UNL1        0.2529
      6 O           3.3072   -0.3168   26.7708 O.2     1  UNL1       -0.2724
      7 C           4.0317   -0.5733   29.3309 C.3     1  UNL1        0.1391
      8 C           4.8430   -0.9904   30.5216 C.3     1  UNL1        0.0449
      9 C           6.0964   -1.7921   30.3316 C.3     1  UNL1        0.0746
     10 N           6.5386   -2.1767   28.9508 N.3     1  UNL1       -0.2676
     11 C           5.7273   -1.7596   27.7601 C.3     1  UNL1        0.0746
     12 C           4.4739   -0.9579   27.9501 C.3     1  UNL1        0.0449
     13 C           5.5591    0.3612   33.9822 C.ar    1  UNL1        0.2293
     14 C           4.9691    0.6268   32.6290 C.ar    1  UNL1        0.0924
     15 C           4.0574   -0.3828   31.9970 C.ar    1  UNL1        0.1453
     16 N           3.7356   -1.6580   32.7184 N.ar    1  UNL1       -0.2084
     17 C           4.3255   -1.9237   34.0716 C.ar    1  UNL1        0.2027
     18 N           5.2374   -0.9140   34.7036 N.ar    1  UNL1       -0.1892
     19 C           7.3560    0.9702   35.7570 C.3     1  UNL1        0.2542
     20 O           6.4708    1.3708   34.6142 O.3     1  UNL1       -0.4560
     21 C           0.8570    1.3294   28.1621 C.ar    1  UNL1        0.0622
     22 C          -0.5545    0.9118   28.4509 C.ar    1  UNL1        0.0154
     23 C          -1.6938    1.5714   27.7320 C.ar    1  UNL1        0.0013
     24 C          -1.4217    2.6486   26.7242 C.ar    1  UNL1        0.0001
     25 C          -0.0102    3.0662   26.4354 C.ar    1  UNL1        0.0013
     26 C           1.1291    2.4066   27.1543 C.ar    1  UNL1        0.0154
     27 C          -2.5610    3.3083   26.0053 C.ar    1  UNL1        0.0000
     28 C          -3.6621    3.9626   26.7858 C.ar    1  UNL1        0.0000
     29 C          -4.8015    4.6222   26.0669 C.ar    1  UNL1        0.0000
     30 C          -4.8395    4.6275   24.5674 C.ar    1  UNL1        0.0011
     31 C          -3.7384    3.9731   23.7868 C.ar    1  UNL1        0.0140
     32 C          -2.5991    3.3135   24.5057 C.ar    1  UNL1        0.0011
     33 C          -3.7766    3.9784   22.2873 C.2     1  UNL1        0.0729
     34 O          -4.2953    2.7819   21.5461 O.co2   1  UNL1       -0.5446
     35 O          -3.2961    5.1801   21.5290 O.co2   1  UNL1       -0.5446
     36 C           7.7921   -2.9785   28.7608 C.3     1  UNL1        0.1183
     37 C           7.8126   -4.1187   27.7864 C.ar    1  UNL1        0.0712
     38 N           8.2314   -3.8835   26.3654 N.ar    1  UNL1       -0.2471
     39 C           8.2519   -5.0239   25.3911 C.ar    1  UNL1        0.0985
     40 C           7.8536   -6.3993   25.8377 C.ar    1  UNL1        0.0203
     41 C           7.4348   -6.6344   27.2587 C.ar    1  UNL1       -0.0015
     42 C           7.4143   -5.4942   28.2331 C.ar    1  UNL1       -0.0069
     43 C           6.9955   -5.7294   29.6541 C.3     1  UNL1        0.0323
@<TRIPOS>UNITY_ATOM_ATTR
34 1
charge -1
@<TRIPOS>BOND
     1    19    20    1
     2    20    13    1
     3    13    14   ar
     4    14    15   ar
     5    15     1    1
     6     1     2   am
     7     2     3    2
     8     2     4   am
     9     4    21    1
    10    21    22   ar
    11    22    23   ar
    12    23    24   ar
    13    24    27    1
    14    27    28   ar
    15    28    29   ar
    16    29    30   ar
    17    30    31   ar
    18    31    33    1
    19    33    34   ar
    20    33    35   ar
    21    31    32   ar
    22    24    25   ar
    23    25    26   ar
    24     4     5   am
    25     5     6    2
    26     5     7    1
    27     7     8    1
    28     8     9    1
    29     9    10    1
    30    10    36    1
    31    36    37    1
    32    37    38   ar
    33    38    39   ar
    34    39    40   ar
    35    40    41   ar
    36    41    42   ar
    37    42    43    1
    38    10    11    1
    39    11    12    1
    40    15    16   ar
    41    16    17   ar
    42    17    18   ar
    43    18    13   ar
    44     7     1    1
    45    42    37   ar
    46    26    21   ar
    47    12     7    1
    48    32    27   ar
@<TRIPOS>MOLECULE
*****
 43 48 0 0 0
SMALL
GASTEIGER

@<TRIPOS>ATOM
      1 N           3.4522   -0.0913   30.5753 N.am    1  UNL1       -0.2222
      2 C           2.1981    0.6954   30.3331 C.2     1  UNL1        0.3219
      3 O           1.3230    1.3061   31.3871 O.2     1  UNL1       -0.2512
      4 N           1.9730    0.7640   28.8516 N.am    1  UNL1       -0.1907
      5 C           3.0878    0.0198   28.1783 C.2     1  UNL1        0.2529
      6 O           3.2586   -0.1636   26.6994 O.2     1  UNL1       -0.2724
      7 C           4.0021   -0.5088   29.2437 C.3     1  UNL1        0.1391
      8 C           4.8197   -0.9706   30.4133 C.3     1  UNL1        0.0449
      9 C           6.0651   -1.7754   30.1867 C.3     1  UNL1        0.0746
     10 N           6.4928   -2.1183   28.7904 N.3     1  UNL1       -0.2676
     11 C           5.6751   -1.6565   27.6208 C.3     1  UNL1        0.0746
     12 C           4.4298   -0.8517   27.8474 C.3     1  UNL1        0.0449
     13 C           5.5858    0.2562   33.9035 C.ar    1  UNL1        0.2293
     14 C           4.9868    0.5701   32.5646 C.ar    1  UNL1        0.0924
     15 C           4.0512   -0.4053   31.9142 C.ar    1  UNL1        0.1453
     16 N           3.7145   -1.6947   32.6027 N.ar    1  UNL1       -0.2084
     17 C           4.3134   -2.0088   33.9415 C.ar    1  UNL1        0.2027
     18 N           5.2491   -1.0333   34.5920 N.ar    1  UNL1       -0.1892
     19 C           6.0446    2.0821   35.6938 C.3     1  UNL1        0.2542
     20 O           6.5215    1.2315   34.5540 O.3     1  UNL1       -0.4560
     21 C           0.8332    1.4554   28.1642 C.ar    1  UNL1        0.0622
     22 C           1.0972    2.6361   27.2775 C.ar    1  UNL1        0.0154
     23 C          -0.0428    3.3275   26.5900 C.ar    1  UNL1        0.0013
     24 C          -1.4466    2.8383   26.7893 C.ar    1  UNL1        0.0001
     25 C          -1.7107    1.6576   27.6761 C.ar    1  UNL1        0.0013
     26 C          -0.5707    0.9662   28.3635 C.ar    1  UNL1        0.0154
     27 C          -2.5865    3.5297   26.1019 C.ar    1  UNL1        0.0000
     28 C          -2.7394    3.4249   24.6134 C.ar    1  UNL1        0.0000
     29 C          -3.8793    4.1164   23.9259 C.ar    1  UNL1        0.0000
     30 C          -4.8663    4.9126   24.7271 C.ar    1  UNL1        0.0011
     31 C          -4.7134    5.0174   26.2156 C.ar    1  UNL1        0.0140
     32 C          -3.5736    4.3261   26.9030 C.ar    1  UNL1        0.0011
     33 C          -5.7005    5.8137   27.0166 C.2     1  UNL1        0.0729
     34 O          -7.1032    5.9914   26.5159 O.co2   1  UNL1       -0.5446
     35 O          -5.2848    6.4324   28.3184 O.co2   1  UNL1       -0.5446
     36 C           7.7382   -2.9231   28.5639 C.3     1  UNL1        0.1183
     37 C           7.7274   -4.0635   27.5895 C.ar    1  UNL1        0.0712
     38 N           8.1725   -3.8446   26.1739 N.ar    1  UNL1       -0.2471
     39 C           8.1617   -4.9851   25.1994 C.ar    1  UNL1        0.0985
     40 C           7.7057   -6.3442   25.6407 C.ar    1  UNL1        0.0203
     41 C           7.2605   -6.5630   27.0563 C.ar    1  UNL1       -0.0015
     42 C           7.2713   -5.4227   28.0307 C.ar    1  UNL1       -0.0069
     43 C           6.8262   -5.6415   29.4463 C.3     1  UNL1        0.0323
@<TRIPOS>UNITY_ATOM_ATTR
34 1
charge -1
@<TRIPOS>BOND
     1    19    20    1
     2    20    13    1
     3    13    14   ar
     4    14    15   ar
     5    15     1    1
     6     1     2   am
     7     2     3    2
     8     2     4   am
     9     4    21    1
    10    21    22   ar
    11    22    23   ar
    12    23    24   ar
    13    24    27    1
    14    27    28   ar
    15    28    29   ar
    16    29    30   ar
    17    30    31   ar
    18    31    33    1
    19    33    34   ar
    20    33    35   ar
    21    31    32   ar
    22    24    25   ar
    23    25    26   ar
    24     4     5   am
    25     5     6    2
    26     5     7    1
    27     7     8    1
    28     8     9    1
    29     9    10    1
    30    10    36    1
    31    36    37    1
    32    37    38   ar
    33    38    39   ar
    34    39    40   ar
    35    40    41   ar
    36    41    42   ar
    37    42    43    1
    38    10    11    1
    39    11    12    1
    40    15    16   ar
    41    16    17   ar
    42    17    18   ar
    43    18    13   ar
    44     7     1    1
    45    42    37   ar
    46    26    21   ar
    47    12     7    1
    48    32    27   ar
@<TRIPOS>MOLECULE
*****
 43 48 0 0 0
SMALL
GASTEIGER

@<TRIPOS>ATOM
      1 N           4.3090   -2.1355   22.2679 N.am    1  UNL1       -0.2222
      2 C           5.0352   -2.4468   23.5431 C.2     1  UNL1        0.3219
      3 O           6.1203   -3.4684   23.7129 O.2     1  UNL1       -0.2512
      4 N           4.4857   -1.5571   24.6185 N.am    1  UNL1       -0.1907
      5 C           3.4200   -0.6960   24.0081 C.2     1  UNL1        0.2529
      6 O           2.6062    0.3406   24.7245 O.2     1  UNL1       -0.2724
      7 C           3.3108   -1.0534   22.5553 C.3     1  UNL1        0.1391
      8 C           3.3156   -1.5156   21.1284 C.3     1  UNL1        0.0449
      9 C           2.3736   -0.8992   20.1372 C.3     1  UNL1        0.0746
     10 N           1.4267    0.1795   20.5729 N.3     1  UNL1       -0.2676
     11 C           1.4218    0.6417   21.9998 C.3     1  UNL1        0.0746
     12 C           2.3639    0.0253   22.9911 C.3     1  UNL1        0.0449
     13 C           5.6769   -2.8012   18.6025 C.ar    1  UNL1        0.2293
     14 C           5.4454   -2.1455   19.9316 C.ar    1  UNL1        0.0924
     15 C           4.5405   -2.7911   20.9388 C.ar    1  UNL1        0.1453
     16 N           3.8672   -4.0923   20.6170 N.ar    1  UNL1       -0.2084
     17 C           4.0986   -4.7479   19.2879 C.ar    1  UNL1        0.2027
     18 N           5.0035   -4.1024   18.2806 N.ar    1  UNL1       -0.1892
     19 C           6.7245   -0.6629   17.5634 C.3     1  UNL1        0.2542
     20 O           6.5817   -2.1557   17.5952 O.3     1  UNL1       -0.4560
     21 C           4.9248   -1.5329   26.0525 C.ar    1  UNL1        0.0622
     22 C           6.3808   -1.6512   26.3932 C.ar    1  UNL1        0.0154
     23 C           6.8199   -1.6270   27.8273 C.ar    1  UNL1        0.0013
     24 C           5.8030   -1.4844   28.9207 C.ar    1  UNL1        0.0001
     25 C           4.3470   -1.3660   28.5801 C.ar    1  UNL1        0.0013
     26 C           3.9079   -1.3903   27.1460 C.ar    1  UNL1        0.0154
     27 C           6.2422   -1.4601   30.3548 C.ar    1  UNL1        0.0000
     28 C           7.6941   -1.2920   30.6919 C.ar    1  UNL1        0.0000
     29 C           8.1332   -1.2678   32.1260 C.ar    1  UNL1        0.0000
     30 C           7.1203   -1.4117   33.2229 C.ar    1  UNL1        0.0011
     31 C           5.6684   -1.5798   32.8859 C.ar    1  UNL1        0.0140
     32 C           5.2293   -1.6040   31.4519 C.ar    1  UNL1        0.0011
     33 C           4.6556   -1.7236   33.9829 C.2     1  UNL1        0.0729
     34 O           4.6405   -0.7482   35.1223 O.co2   1  UNL1       -0.5446
     35 O           3.6579   -2.8429   33.9406 O.co2   1  UNL1       -0.5446
     36 C           0.4847    0.7959   19.5816 C.3     1  UNL1        0.1183
     37 C          -0.0726    2.1664   19.8285 C.ar    1  UNL1        0.0712
     38 N          -1.3388    2.3306   20.6159 N.ar    1  UNL1       -0.2471
     39 C          -1.8960    3.7012   20.8628 C.ar    1  UNL1        0.0985
     40 C          -1.1872    4.9076   20.3224 C.ar    1  UNL1        0.0203
     41 C           0.0790    4.7434   19.5350 C.ar    1  UNL1       -0.0015
     42 C           0.6362    3.3729   19.2881 C.ar    1  UNL1       -0.0069
     43 C           1.9024    3.2087   18.5007 C.3     1  UNL1        0.0323
@<TRIPOS>UNITY_ATOM_ATTR
34 1
charge -1
@<TRIPOS>BOND
     1    19    20    1
     2    20    13    1
     3    13    14   ar
     4    14    15   ar
     5    15     1    1
     6     1     2   am
     7     2     3    2
     8     2     4   am
     9     4    21    1
    10    21    22   ar
    11    22    23   ar
    12    23    24   ar
    13    24    27    1
    14    27    28   ar
    15    28    29   ar
    16    29    30   ar
    17    30    31   ar
    18    31    33    1
    19    33    34   ar
    20    33    35   ar
    21    31    32   ar
    22    24    25   ar
    23    25    26   ar
    24     4     5   am
    25     5     6    2
    26     5     7    1
    27     7     8    1
    28     8     9    1
    29     9    10    1
    30    10    36    1
    31    36    37    1
    32    37    38   ar
    33    38    39   ar
    34    39    40   ar
    35    40    41   ar
    36    41    42   ar
    37    42    43    1
    38    10    11    1
    39    11    12    1
    40    15    16   ar
    41    16    17   ar
    42    17    18   ar
    43    18    13   ar
    44     7     1    1
    45    42    37   ar
    46    26    21   ar
    47    12     7    1
    48    32    27   ar
@<TRIPOS>MOLECULE
*****
 43 48 0 0 0
SMALL
GASTEIGER

@<TRIPOS>ATOM
      1 N           1.5654    1.8003   24.2740 N.am    1  UNL1       -0.2222
      2 C           1.6824    1.9602   25.7610 C.2     1  UNL1        0.3219
      3 O           1.1062    3.0804   26.5753 O.2     1  UNL1       -0.2512
      4 N           2.4768    0.8032   26.2905 N.am    1  UNL1       -0.1907
      5 C           2.8507   -0.0717   25.1309 C.2     1  UNL1        0.2529
      6 O           3.6480   -1.3402   25.2045 O.2     1  UNL1       -0.2724
      7 C           2.2874    0.5445   23.8846 C.3     1  UNL1        0.1391
      8 C           1.6670    1.2744   22.7304 C.3     1  UNL1        0.0449
      9 C           1.8020    0.7304   21.3391 C.3     1  UNL1        0.0746
     10 N           2.5575   -0.5436   21.1020 N.3     1  UNL1       -0.2676
     11 C           3.1780   -1.2735   22.2562 C.3     1  UNL1        0.0746
     12 C           3.0429   -0.7295   23.6475 C.3     1  UNL1        0.0449
     13 C          -1.3130    3.4474   22.0942 C.ar    1  UNL1        0.2293
     14 C          -0.5992    2.5152   23.0277 C.ar    1  UNL1        0.0924
     15 C           0.8516    2.7325   23.3405 C.ar    1  UNL1        0.1453
     16 N           1.5886    3.8821   22.7198 N.ar    1  UNL1       -0.2084
     17 C           0.8749    4.8143   21.7864 C.ar    1  UNL1        0.2027
     18 N          -0.5760    4.5970   21.4735 N.ar    1  UNL1       -0.1892
     19 C          -3.2428    3.2959   20.3614 C.3     1  UNL1        0.2542
     20 O          -2.7638    3.2301   21.7813 O.3     1  UNL1       -0.4560
     21 C           2.8345    0.5633   27.7272 C.ar    1  UNL1        0.0622
     22 C           1.9459   -0.2827   28.5902 C.ar    1  UNL1        0.0154
     23 C           2.3036   -0.5226   30.0270 C.ar    1  UNL1        0.0013
     24 C           3.5499    0.0835   30.6009 C.ar    1  UNL1        0.0001
     25 C           4.4386    0.9295   29.7380 C.ar    1  UNL1        0.0013
     26 C           4.0808    1.1693   28.3011 C.ar    1  UNL1        0.0154
     27 C           3.9076   -0.1565   32.0378 C.ar    1  UNL1        0.0000
     28 C           4.5815   -1.4349   32.4395 C.ar    1  UNL1        0.0000
     29 C           4.9392   -1.6748   33.8764 C.ar    1  UNL1        0.0000
     30 C           4.6230   -0.6362   34.9114 C.ar    1  UNL1        0.0011
     31 C           3.9491    0.6423   34.5097 C.ar    1  UNL1        0.0140
     32 C           3.5915    0.8822   33.0729 C.ar    1  UNL1        0.0011
     33 C           3.6330    1.6808   35.5448 C.2     1  UNL1        0.0729
     34 O           2.2818    2.3318   35.5658 O.co2   1  UNL1       -0.5446
     35 O           4.6681    2.0685   36.5589 O.co2   1  UNL1       -0.5446
     36 C           2.6925   -1.0876   19.7107 C.3     1  UNL1        0.1183
     37 C           4.0484   -1.4278   19.1667 C.ar    1  UNL1        0.0712
     38 N           5.0393   -0.3372   18.8863 N.ar    1  UNL1       -0.2471
     39 C           6.3952   -0.6774   18.3423 C.ar    1  UNL1        0.0985
     40 C           6.7601   -2.1082   18.0787 C.ar    1  UNL1        0.0203
     41 C           5.7692   -3.1989   18.3590 C.ar    1  UNL1       -0.0015
     42 C           4.4133   -2.8587   18.9030 C.ar    1  UNL1       -0.0069
     43 C           3.4224   -3.9493   19.1833 C.3     1  UNL1        0.0323
@<TRIPOS>UNITY_ATOM_ATTR
34 1
charge -1
@<TRIPOS>BOND
     1    19    20    1
     2    20    13    1
     3    13    14   ar
     4    14    15   ar
     5    15     1    1
     6     1     2   am
     7     2     3    2
     8     2     4   am
     9     4    21    1
    10    21    22   ar
    11    22    23   ar
    12    23    24   ar
    13    24    27    1
    14    27    28   ar
    15    28    29   ar
    16    29    30   ar
    17    30    31   ar
    18    31    33    1
    19    33    34   ar
    20    33    35   ar
    21    31    32   ar
    22    24    25   ar
    23    25    26   ar
    24     4     5   am
    25     5     6    2
    26     5     7    1
    27     7     8    1
    28     8     9    1
    29     9    10    1
    30    10    36    1
    31    36    37    1
    32    37    38   ar
    33    38    39   ar
    34    39    40   ar
    35    40    41   ar
    36    41    42   ar
    37    42    43    1
    38    10    11    1
    39    11    12    1
    40    15    16   ar
    41    16    17   ar
    42    17    18   ar
    43    18    13   ar
    44     7     1    1
    45    42    37   ar
    46    26    21   ar
    47    12     7    1
    48    32    27   ar
