@<TRIPOS>MOLECULE
*****
 32 35 0 0 0
SMALL
GASTEIGER

@<TRIPOS>ATOM
      1 C           4.6380   -3.2021   18.7436 C.3     1  UNL1        0.0310
      2 C           3.9127   -2.3371   19.7313 C.ar    1  UNL1       -0.0182
      3 C           2.8414   -1.3982   19.2612 C.ar    1  UNL1       -0.0073
      4 C           2.1160   -0.5332   20.2489 C.ar    1  UNL1       -0.0070
      5 C           2.4619   -0.6070   21.7066 C.ar    1  UNL1        0.0513
      6 C           3.5332   -1.5458   22.1766 C.ar    1  UNL1        0.0182
      7 C           4.2586   -2.4109   21.1890 C.ar    1  UNL1        0.0687
      8 N           1.5822    0.3607   22.4413 N.am    1  UNL1       -0.2430
      9 C           1.5907    0.6124   23.9200 C.2     1  UNL1        0.3115
     10 O           2.5418   -0.1393   24.8033 O.2     1  UNL1       -0.2519
     11 N           0.6480    1.6158   24.5154 N.am    1  UNL1       -0.2666
     12 C           0.6927    1.0326   21.4376 C.3     1  UNL1        0.1045
     13 C           1.0226    0.4801   20.0827 C.3     1  UNL1        0.0495
     14 H           0.0237    2.1091   23.9357 H       1  UNL1        0.1565
     15 C           0.6564    1.8675   25.9942 C.ar    1  UNL1        0.0711
     16 C          -0.3589    1.2006   26.8742 C.ar    1  UNL1        0.0211
     17 C          -0.3504    1.4524   28.3529 C.ar    1  UNL1        0.0594
     18 C           0.6732    2.3710   28.9515 C.ar    1  UNL1        0.2298
     19 N           1.6885    3.0378   28.0714 N.ar    1  UNL1       -0.2085
     20 C           1.6800    2.7861   26.5927 C.ar    1  UNL1        0.1167
     21 O           0.6817    2.6227   30.4302 O.3     1  UNL1       -0.4349
     22 C           1.6134    1.8510   31.3171 C.ar    1  UNL1        0.1606
     23 C           2.2630    0.5969   30.8119 C.ar    1  UNL1        0.0404
     24 C           3.1946   -0.1749   31.6987 C.ar    1  UNL1        0.0238
     25 C           3.4766    0.3075   33.0908 C.ar    1  UNL1        0.0987
     26 N           2.8270    1.5616   33.5959 N.ar    1  UNL1       -0.2451
     27 C           1.8953    2.3334   32.7091 C.ar    1  UNL1        0.0938
     28 C           1.2457    3.5875   33.2143 C.3     1  UNL1        0.0554
     29 C           5.3298   -3.3497   21.6590 C.3     1  UNL1        0.4183
     30 F           6.4011   -4.2885   22.1291 F       1  UNL1       -0.1659
     31 F           4.2868   -4.3782   21.9820 F       1  UNL1       -0.1659
     32 F           6.3729   -2.3213   21.3360 F       1  UNL1       -0.1659
@<TRIPOS>BOND
     1     1     2    1
     2     2     3   ar
     3     3     4   ar
     4     4     5   ar
     5     5     6   ar
     6     6     7   ar
     7     7    29    1
     8    29    30    1
     9    29    31    1
    10    29    32    1
    11     5     8    1
    12     8     9   am
    13     9    10    2
    14     9    11   am
    15    11    15    1
    16    15    16   ar
    17    16    17   ar
    18    17    18   ar
    19    18    21    1
    20    21    22    1
    21    22    23   ar
    22    23    24   ar
    23    24    25   ar
    24    25    26   ar
    25    26    27   ar
    26    27    28    1
    27    18    19   ar
    28    19    20   ar
    29     8    12    1
    30    12    13    1
    31     7     2   ar
    32    20    15   ar
    33    13     4    1
    34    27    22   ar
    35    11    14    1
@<TRIPOS>MOLECULE
*****
 32 35 0 0 0
SMALL
GASTEIGER

@<TRIPOS>ATOM
      1 C          -7.5498    4.5956   23.5312 C.3     1  UNL1        0.0310
      2 C          -6.3863    4.3455   22.6181 C.ar    1  UNL1       -0.0182
      3 C          -6.5506    4.4979   21.1349 C.ar    1  UNL1       -0.0073
      4 C          -5.3871    4.2478   20.2218 C.ar    1  UNL1       -0.0070
      5 C          -4.0593    3.8453   20.7919 C.ar    1  UNL1        0.0513
      6 C          -3.8950    3.6929   22.2750 C.ar    1  UNL1        0.0182
      7 C          -5.0585    3.9430   23.1882 C.ar    1  UNL1        0.0687
      8 N          -3.1004    3.6674   19.6523 N.am    1  UNL1       -0.2430
      9 C          -1.6593    3.2671   19.7669 C.2     1  UNL1        0.3115
     10 O          -1.0586    3.0057   21.1163 O.2     1  UNL1       -0.2519
     11 N          -0.8189    3.1283   18.5322 N.am    1  UNL1       -0.2666
     12 C          -3.8355    3.9598   18.3779 C.3     1  UNL1        0.1045
     13 C          -5.2487    4.3186   18.7299 C.3     1  UNL1        0.0495
     14 H          -1.2132    3.2999   17.6466 H       1  UNL1        0.1565
     15 C           0.6222    2.7281   18.6468 C.ar    1  UNL1        0.0711
     16 C           1.0465    1.3384   18.2745 C.ar    1  UNL1        0.0211
     17 C           2.4876    0.9382   18.3891 C.ar    1  UNL1        0.0594
     18 C           3.5043    1.9278   18.8760 C.ar    1  UNL1        0.2298
     19 N           3.0800    3.3175   19.2483 N.ar    1  UNL1       -0.2085
     20 C           1.6389    3.7176   19.1337 C.ar    1  UNL1        0.1167
     21 O           4.9454    1.5277   18.9906 O.3     1  UNL1       -0.4349
     22 C           5.3389    0.0885   18.8349 C.ar    1  UNL1        0.1606
     23 C           4.9404   -0.9149   19.8762 C.ar    1  UNL1        0.0404
     24 C           5.3338   -2.3539   19.7206 C.ar    1  UNL1        0.0238
     25 C           6.1257   -2.7896   18.5235 C.ar    1  UNL1        0.0987
     26 N           6.5242   -1.7862   17.4821 N.ar    1  UNL1       -0.2451
     27 C           6.1308   -0.3472   17.6378 C.ar    1  UNL1        0.0938
     28 C           6.5293    0.6562   16.5964 C.3     1  UNL1        0.0554
     29 C          -4.8942    3.7905   24.6713 C.3     1  UNL1        0.4183
     30 F          -4.7299    3.6381   26.1544 F       1  UNL1       -0.1659
     31 F          -4.6982    5.2719   24.8018 F       1  UNL1       -0.1659
     32 F          -5.0902    2.3092   24.5408 F       1  UNL1       -0.1659
@<TRIPOS>BOND
     1     1     2    1
     2     2     3   ar
     3     3     4   ar
     4     4     5   ar
     5     5     6   ar
     6     6     7   ar
     7     7    29    1
     8    29    30    1
     9    29    31    1
    10    29    32    1
    11     5     8    1
    12     8     9   am
    13     9    10    2
    14     9    11   am
    15    11    15    1
    16    15    16   ar
    17    16    17   ar
    18    17    18   ar
    19    18    21    1
    20    21    22    1
    21    22    23   ar
    22    23    24   ar
    23    24    25   ar
    24    25    26   ar
    25    26    27   ar
    26    27    28    1
    27    18    19   ar
    28    19    20   ar
    29     8    12    1
    30    12    13    1
    31     7     2   ar
    32    20    15   ar
    33    13     4    1
    34    27    22   ar
    35    11    14    1
@<TRIPOS>MOLECULE
*****
 32 35 0 0 0
SMALL
GASTEIGER

@<TRIPOS>ATOM
      1 C           3.8553   -0.9359   16.9935 C.3     1  UNL1        0.0310
      2 C           3.3223   -0.3607   18.2722 C.ar    1  UNL1       -0.0182
      3 C           2.6568    0.9836   18.2699 C.ar    1  UNL1       -0.0073
      4 C           2.1239    1.5588   19.5486 C.ar    1  UNL1       -0.0070
      5 C           2.2565    0.7898   20.8296 C.ar    1  UNL1        0.0513
      6 C           2.9220   -0.5545   20.8319 C.ar    1  UNL1        0.0182
      7 C           3.4549   -1.1297   19.5532 C.ar    1  UNL1        0.0687
      8 N           1.6394    1.6062   21.9263 N.am    1  UNL1       -0.2430
      9 C           1.5517    1.2172   23.3723 C.2     1  UNL1        0.3115
     10 O           2.1132   -0.0958   23.8312 O.2     1  UNL1       -0.2519
     11 N           0.9025    2.1413   24.3595 N.am    1  UNL1       -0.2666
     12 C           1.1254    2.8797   21.3231 C.3     1  UNL1        0.1045
     13 C           1.4249    2.8505   19.8536 C.3     1  UNL1        0.0495
     14 H           0.5339    3.0031   24.0583 H       1  UNL1        0.1565
     15 C           0.8147    1.7524   25.8056 C.ar    1  UNL1        0.0711
     16 C          -0.5015    1.3354   26.3916 C.ar    1  UNL1        0.0211
     17 C          -0.5892    0.9465   27.8376 C.ar    1  UNL1        0.0594
     18 C           0.6394    0.9747   28.6977 C.ar    1  UNL1        0.2298
     19 N           1.9557    1.3918   28.1117 N.ar    1  UNL1       -0.2085
     20 C           2.0434    1.7807   26.6657 C.ar    1  UNL1        0.1167
     21 O           0.5518    0.5859   30.1437 O.3     1  UNL1       -0.4349
     22 C           1.2345    1.4196   31.1873 C.ar    1  UNL1        0.1606
     23 C           0.6150    2.7081   31.6413 C.ar    1  UNL1        0.0404
     24 C           1.2976    3.5418   32.6848 C.ar    1  UNL1        0.0238
     25 C           2.5998    3.0870   33.2743 C.ar    1  UNL1        0.0987
     26 N           3.2192    1.7985   32.8204 N.ar    1  UNL1       -0.2451
     27 C           2.5366    0.9648   31.7769 C.ar    1  UNL1        0.0938
     28 C           3.1561   -0.3237   31.3229 C.3     1  UNL1        0.0554
     29 C           4.1204   -2.4740   19.5555 C.3     1  UNL1        0.4183
     30 F           4.7859   -3.8182   19.5579 F       1  UNL1       -0.1659
     31 F           5.4526   -1.8141   19.7550 F       1  UNL1       -0.1659
     32 F           2.7883   -3.1339   19.3561 F       1  UNL1       -0.1659
@<TRIPOS>BOND
     1     1     2    1
     2     2     3   ar
     3     3     4   ar
     4     4     5   ar
     5     5     6   ar
     6     6     7   ar
     7     7    29    1
     8    29    30    1
     9    29    31    1
    10    29    32    1
    11     5     8    1
    12     8     9   am
    13     9    10    2
    14     9    11   am
    15    11    15    1
    16    15    16   ar
    17    16    17   ar
    18    17    18   ar
    19    18    21    1
    20    21    22    1
    21    22    23   ar
    22    23    24   ar
    23    24    25   ar
    24    25    26   ar
    25    26    27   ar
    26    27    28    1
    27    18    19   ar
    28    19    20   ar
    29     8    12    1
    30    12    13    1
    31     7     2   ar
    32    20    15   ar
    33    13     4    1
    34    27    22   ar
    35    11    14    1
@<TRIPOS>MOLECULE
*****
 32 35 0 0 0
SMALL
GASTEIGER

@<TRIPOS>ATOM
      1 C          -3.0922    4.9713   26.9211 C.3     1  UNL1        0.0310
      2 C          -2.5369    4.3937   25.6530 C.ar    1  UNL1       -0.0182
      3 C          -3.1945    4.6975   24.3395 C.ar    1  UNL1       -0.0073
      4 C          -2.6392    4.1199   23.0714 C.ar    1  UNL1       -0.0070
      5 C          -1.4264    3.2384   23.1169 C.ar    1  UNL1        0.0513
      6 C          -0.7688    2.9345   24.4303 C.ar    1  UNL1        0.0182
      7 C          -1.3241    3.5122   25.6985 C.ar    1  UNL1        0.0687
      8 N          -1.1078    2.8157   21.7133 N.am    1  UNL1       -0.2430
      9 C           0.0274    1.9285   21.2960 C.2     1  UNL1        0.3115
     10 O           0.9682    1.3792   22.3271 O.2     1  UNL1       -0.2519
     11 N           0.2219    1.5906   19.8476 N.am    1  UNL1       -0.2666
     12 C          -2.1237    3.4359   20.8005 C.3     1  UNL1        0.1045
     13 C          -3.0701    4.2420   21.6398 C.3     1  UNL1        0.0495
     14 H          -0.3956    1.9511   19.1708 H       1  UNL1        0.1565
     15 C           1.3571    0.7034   19.4301 C.ar    1  UNL1        0.0711
     16 C           1.5718   -0.6128   20.1166 C.ar    1  UNL1        0.0211
     17 C           2.7070   -1.5000   19.6991 C.ar    1  UNL1        0.0594
     18 C           3.6274   -1.0708   18.5951 C.ar    1  UNL1        0.2298
     19 N           3.4126    0.2454   17.9086 N.ar    1  UNL1       -0.2085
     20 C           2.2774    1.1325   18.3261 C.ar    1  UNL1        0.1167
     21 O           4.7626   -1.9580   18.1776 O.3     1  UNL1       -0.4349
     22 C           5.6654   -2.5588   19.2141 C.ar    1  UNL1        0.1606
     23 C           6.7269   -1.7197   19.8614 C.ar    1  UNL1        0.0404
     24 C           7.6296   -2.3204   20.8978 C.ar    1  UNL1        0.0238
     25 C           7.4707   -3.7603   21.2870 C.ar    1  UNL1        0.0987
     26 N           6.4092   -4.5994   20.6397 N.ar    1  UNL1       -0.2451
     27 C           5.5065   -3.9987   19.6033 C.ar    1  UNL1        0.0938
     28 C           4.4449   -4.8378   18.9560 C.3     1  UNL1        0.0554
     29 C          -0.6666    3.2083   27.0119 C.3     1  UNL1        0.4183
     30 F          -0.0090    2.9044   28.3254 F       1  UNL1       -0.1659
     31 F          -1.5770    2.0304   27.1952 F       1  UNL1       -0.1659
     32 F           0.2439    4.3862   26.8287 F       1  UNL1       -0.1659
@<TRIPOS>BOND
     1     1     2    1
     2     2     3   ar
     3     3     4   ar
     4     4     5   ar
     5     5     6   ar
     6     6     7   ar
     7     7    29    1
     8    29    30    1
     9    29    31    1
    10    29    32    1
    11     5     8    1
    12     8     9   am
    13     9    10    2
    14     9    11   am
    15    11    15    1
    16    15    16   ar
    17    16    17   ar
    18    17    18   ar
    19    18    21    1
    20    21    22    1
    21    22    23   ar
    22    23    24   ar
    23    24    25   ar
    24    25    26   ar
    25    26    27   ar
    26    27    28    1
    27    18    19   ar
    28    19    20   ar
    29     8    12    1
    30    12    13    1
    31     7     2   ar
    32    20    15   ar
    33    13     4    1
    34    27    22   ar
    35    11    14    1
@<TRIPOS>MOLECULE
*****
 32 35 0 0 0
SMALL
GASTEIGER

@<TRIPOS>ATOM
      1 C          -6.9728    5.6273   25.4089 C.3     1  UNL1        0.0310
      2 C          -5.6686    5.0083   25.0015 C.ar    1  UNL1       -0.0182
      3 C          -4.6441    4.6647   26.0418 C.ar    1  UNL1       -0.0073
      4 C          -3.3399    4.0457   25.6344 C.ar    1  UNL1       -0.0070
      5 C          -3.0602    3.7704   24.1867 C.ar    1  UNL1        0.0513
      6 C          -4.0847    4.1140   23.1463 C.ar    1  UNL1        0.0182
      7 C          -5.3889    4.7330   23.5537 C.ar    1  UNL1        0.0687
      8 N          -1.6951    3.1568   24.0869 N.am    1  UNL1       -0.2430
      9 C          -1.0137    2.7232   22.8229 C.2     1  UNL1        0.3115
     10 O          -1.7054    2.8904   21.5025 O.2     1  UNL1       -0.2519
     11 N           0.3596    2.1223   22.8793 N.am    1  UNL1       -0.2666
     12 C          -1.1311    3.0528   25.4729 C.3     1  UNL1        0.1045
     13 C          -2.1477    3.6023   26.4293 C.3     1  UNL1        0.0495
     14 H           0.8136    2.0126   23.7460 H       1  UNL1        0.1565
     15 C           1.0411    1.6887   21.6154 C.ar    1  UNL1        0.0711
     16 C           0.5612    0.4698   20.8847 C.ar    1  UNL1        0.0211
     17 C           1.2428    0.0363   19.6208 C.ar    1  UNL1        0.0594
     18 C           2.4042    0.8216   19.0876 C.ar    1  UNL1        0.2298
     19 N           2.8841    2.0405   19.8183 N.ar    1  UNL1       -0.2085
     20 C           2.2025    2.4741   21.0822 C.ar    1  UNL1        0.1167
     21 O           3.0858    0.3881   17.8237 O.3     1  UNL1       -0.4349
     22 C           4.2033   -0.6112   17.8789 C.ar    1  UNL1        0.1606
     23 C           3.9516   -1.9888   18.4162 C.ar    1  UNL1        0.0404
     24 C           5.0689   -2.9880   18.4715 C.ar    1  UNL1        0.0238
     25 C           6.4380   -2.6095   17.9894 C.ar    1  UNL1        0.0987
     26 N           6.6897   -1.2319   17.4521 N.ar    1  UNL1       -0.2451
     27 C           5.5723   -0.2327   17.3968 C.ar    1  UNL1        0.0938
     28 C           5.8240    1.1450   16.8595 C.3     1  UNL1        0.0554
     29 C          -6.4134    5.0766   22.5134 C.3     1  UNL1        0.4183
     30 F          -7.4379    5.4202   21.4730 F       1  UNL1       -0.1659
     31 F          -5.7899    6.4306   22.3466 F       1  UNL1       -0.1659
     32 F          -7.0369    3.7226   22.6801 F       1  UNL1       -0.1659
@<TRIPOS>BOND
     1     1     2    1
     2     2     3   ar
     3     3     4   ar
     4     4     5   ar
     5     5     6   ar
     6     6     7   ar
     7     7    29    1
     8    29    30    1
     9    29    31    1
    10    29    32    1
    11     5     8    1
    12     8     9   am
    13     9    10    2
    14     9    11   am
    15    11    15    1
    16    15    16   ar
    17    16    17   ar
    18    17    18   ar
    19    18    21    1
    20    21    22    1
    21    22    23   ar
    22    23    24   ar
    23    24    25   ar
    24    25    26   ar
    25    26    27   ar
    26    27    28    1
    27    18    19   ar
    28    19    20   ar
    29     8    12    1
    30    12    13    1
    31     7     2   ar
    32    20    15   ar
    33    13     4    1
    34    27    22   ar
    35    11    14    1
@<TRIPOS>MOLECULE
*****
 32 35 0 0 0
SMALL
GASTEIGER

@<TRIPOS>ATOM
      1 C           3.8769   -2.4312   18.6275 C.3     1  UNL1        0.0310
      2 C           3.8473   -2.1317   20.0970 C.ar    1  UNL1       -0.0182
      3 C           4.7688   -2.8605   21.0296 C.ar    1  UNL1       -0.0073
      4 C           4.7392   -2.5611   22.4991 C.ar    1  UNL1       -0.0070
      5 C           3.7882   -1.5328   23.0360 C.ar    1  UNL1        0.0513
      6 C           2.8667   -0.8040   22.1034 C.ar    1  UNL1        0.0182
      7 C           2.8963   -1.1034   20.6338 C.ar    1  UNL1        0.0687
      8 N           3.9840   -1.4508   24.5209 N.am    1  UNL1       -0.2430
      9 C           3.2387   -0.5494   25.4600 C.2     1  UNL1        0.3115
     10 O           2.1874    0.3806   24.9310 O.2     1  UNL1       -0.2519
     11 N           3.5446   -0.5781   26.9282 N.am    1  UNL1       -0.2666
     12 C           5.0561   -2.4284   24.9018 C.3     1  UNL1        0.1045
     13 C           5.5228   -3.1145   23.6522 C.3     1  UNL1        0.0495
     14 H           4.2346   -1.1885   27.2754 H       1  UNL1        0.1565
     15 C           2.7993    0.3233   27.8675 C.ar    1  UNL1        0.0711
     16 C           1.5827   -0.1820   28.5848 C.ar    1  UNL1        0.0211
     17 C           0.8375    0.7194   29.5240 C.ar    1  UNL1        0.0594
     18 C           1.3088    2.1260   29.7458 C.ar    1  UNL1        0.2298
     19 N           2.5253    2.6313   29.0285 N.ar    1  UNL1       -0.2085
     20 C           3.2706    1.7299   28.0893 C.ar    1  UNL1        0.1167
     21 O           0.5635    3.0274   30.6850 O.3     1  UNL1       -0.4349
     22 C           1.0337    3.1897   32.1002 C.ar    1  UNL1        0.1606
     23 C           1.9082    2.1431   32.7247 C.ar    1  UNL1        0.0404
     24 C           2.3784    2.3053   34.1398 C.ar    1  UNL1        0.0238
     25 C           1.9741    3.5142   34.9304 C.ar    1  UNL1        0.0987
     26 N           1.0997    4.5608   34.3060 N.ar    1  UNL1       -0.2451
     27 C           0.6295    4.3986   32.8909 C.ar    1  UNL1        0.0938
     28 C          -0.2450    5.4452   32.2664 C.3     1  UNL1        0.0554
     29 C           1.9749   -0.3746   19.7012 C.3     1  UNL1        0.4183
     30 F           1.0535    0.3542   18.7686 F       1  UNL1       -0.1659
     31 F           3.0913    0.5530   19.3231 F       1  UNL1       -0.1659
     32 F           0.8584   -1.3022   20.0794 F       1  UNL1       -0.1659
@<TRIPOS>BOND
     1     1     2    1
     2     2     3   ar
     3     3     4   ar
     4     4     5   ar
     5     5     6   ar
     6     6     7   ar
     7     7    29    1
     8    29    30    1
     9    29    31    1
    10    29    32    1
    11     5     8    1
    12     8     9   am
    13     9    10    2
    14     9    11   am
    15    11    15    1
    16    15    16   ar
    17    16    17   ar
    18    17    18   ar
    19    18    21    1
    20    21    22    1
    21    22    23   ar
    22    23    24   ar
    23    24    25   ar
    24    25    26   ar
    25    26    27   ar
    26    27    28    1
    27    18    19   ar
    28    19    20   ar
    29     8    12    1
    30    12    13    1
    31     7     2   ar
    32    20    15   ar
    33    13     4    1
    34    27    22   ar
    35    11    14    1
@<TRIPOS>MOLECULE
*****
 32 35 0 0 0
SMALL
GASTEIGER

@<TRIPOS>ATOM
      1 C          -6.9946    5.8765   24.1810 C.3     1  UNL1        0.0310
      2 C          -5.8811    5.3008   23.3573 C.ar    1  UNL1       -0.0182
      3 C          -5.9002    5.4458   21.8644 C.ar    1  UNL1       -0.0073
      4 C          -4.7867    4.8701   21.0406 C.ar    1  UNL1       -0.0070
      5 C          -3.6541    4.1493   21.7097 C.ar    1  UNL1        0.0513
      6 C          -3.6349    4.0043   23.2025 C.ar    1  UNL1        0.0182
      7 C          -4.7484    4.5800   24.0264 C.ar    1  UNL1        0.0687
      8 N          -2.7032    3.6901   20.6444 N.am    1  UNL1       -0.2430
      9 C          -1.4307    2.9278   20.8674 C.2     1  UNL1        0.3115
     10 O          -1.0118    2.5586   22.2596 O.2     1  UNL1       -0.2519
     11 N          -0.5772    2.5347   19.6982 N.am    1  UNL1       -0.2666
     12 C          -3.2481    4.1270   19.3169 C.3     1  UNL1        0.1045
     13 C          -4.5358    4.8563   19.5618 C.3     1  UNL1        0.0495
     14 H          -0.8521    2.7770   18.7845 H       1  UNL1        0.1565
     15 C           0.6953    1.7723   19.9212 C.ar    1  UNL1        0.0711
     16 C           0.6550    0.2851   20.1121 C.ar    1  UNL1        0.0211
     17 C           1.9275   -0.4771   20.3350 C.ar    1  UNL1        0.0594
     18 C           3.2403    0.2479   20.3670 C.ar    1  UNL1        0.2298
     19 N           3.2806    1.7351   20.1761 N.ar    1  UNL1       -0.2085
     20 C           2.0081    2.4973   19.9532 C.ar    1  UNL1        0.1167
     21 O           4.5128   -0.5144   20.5900 O.3     1  UNL1       -0.4349
     22 C           4.6103   -1.9508   20.1687 C.ar    1  UNL1        0.1606
     23 C           4.8050   -2.2965   18.7221 C.ar    1  UNL1        0.0404
     24 C           4.9025   -3.7328   18.3008 C.ar    1  UNL1        0.0238
     25 C           4.8053   -4.8234   19.3262 C.ar    1  UNL1        0.0987
     26 N           4.6106   -4.4776   20.7727 N.ar    1  UNL1       -0.2451
     27 C           4.5131   -3.0413   21.1940 C.ar    1  UNL1        0.0938
     28 C           4.3184   -2.6955   22.6406 C.3     1  UNL1        0.0554
     29 C          -4.7293    4.4350   25.5192 C.3     1  UNL1        0.4183
     30 F          -4.7101    4.2900   27.0120 F       1  UNL1       -0.1659
     31 F          -5.4882    3.1464   25.4037 F       1  UNL1       -0.1659
     32 F          -3.9704    5.7237   25.6346 F       1  UNL1       -0.1659
@<TRIPOS>BOND
     1     1     2    1
     2     2     3   ar
     3     3     4   ar
     4     4     5   ar
     5     5     6   ar
     6     6     7   ar
     7     7    29    1
     8    29    30    1
     9    29    31    1
    10    29    32    1
    11     5     8    1
    12     8     9   am
    13     9    10    2
    14     9    11   am
    15    11    15    1
    16    15    16   ar
    17    16    17   ar
    18    17    18   ar
    19    18    21    1
    20    21    22    1
    21    22    23   ar
    22    23    24   ar
    23    24    25   ar
    24    25    26   ar
    25    26    27   ar
    26    27    28    1
    27    18    19   ar
    28    19    20   ar
    29     8    12    1
    30    12    13    1
    31     7     2   ar
    32    20    15   ar
    33    13     4    1
    34    27    22   ar
    35    11    14    1
@<TRIPOS>MOLECULE
*****
 32 35 0 0 0
SMALL
GASTEIGER

@<TRIPOS>ATOM
      1 C           9.0829   -6.9273   31.3023 C.3     1  UNL1        0.0310
      2 C           8.7047   -6.5692   29.8956 C.ar    1  UNL1       -0.0182
      3 C           8.8921   -7.5671   28.7915 C.ar    1  UNL1       -0.0073
      4 C           8.5139   -7.2090   27.3848 C.ar    1  UNL1       -0.0070
      5 C           7.9485   -5.8531   27.0822 C.ar    1  UNL1        0.0513
      6 C           7.7611   -4.8552   28.1863 C.ar    1  UNL1        0.0182
      7 C           8.1393   -5.2132   29.5931 C.ar    1  UNL1        0.0687
      8 N           7.6689   -5.7854   25.6100 N.am    1  UNL1       -0.2430
      9 C           7.0971   -4.6099   24.8743 C.2     1  UNL1        0.3115
     10 O           6.7506   -3.3550   25.6195 O.2     1  UNL1       -0.2519
     11 N           6.8718   -4.6893   23.3935 N.am    1  UNL1       -0.2666
     12 C           8.0617   -7.0995   25.0027 C.3     1  UNL1        0.1045
     13 C           8.5839   -7.9794   26.0996 C.3     1  UNL1        0.0495
     14 H           7.0992   -5.5129   22.9045 H       1  UNL1        0.1565
     15 C           6.2999   -3.5138   22.6577 C.ar    1  UNL1        0.0711
     16 C           7.1804   -2.3545   22.2966 C.ar    1  UNL1        0.0211
     17 C           6.6085   -1.1791   21.5608 C.ar    1  UNL1        0.0594
     18 C           5.1561   -1.1631   21.1862 C.ar    1  UNL1        0.2298
     19 N           4.2756   -2.3225   21.5474 N.ar    1  UNL1       -0.2085
     20 C           4.8475   -3.4979   22.2831 C.ar    1  UNL1        0.1167
     21 O           4.5842    0.0123   20.4504 O.3     1  UNL1       -0.4349
     22 C           3.0983    0.2092   20.3909 C.ar    1  UNL1        0.1606
     23 C           2.3293    0.4994   21.6456 C.ar    1  UNL1        0.0404
     24 C           0.8435    0.6963   21.5862 C.ar    1  UNL1        0.0238
     25 C           0.1267    0.6029   20.2718 C.ar    1  UNL1        0.0987
     26 N           0.8956    0.3127   19.0171 N.ar    1  UNL1       -0.2451
     27 C           2.3814    0.1158   19.0766 C.ar    1  UNL1        0.0938
     28 C           3.1504   -0.1744   17.8218 C.3     1  UNL1        0.0554
     29 C           7.9519   -4.2153   30.6972 C.3     1  UNL1        0.4183
     30 F           7.7646   -3.2174   31.8012 F       1  UNL1       -0.1659
     31 F           9.3448   -3.7058   30.4729 F       1  UNL1       -0.1659
     32 F           6.5591   -4.7249   30.9214 F       1  UNL1       -0.1659
@<TRIPOS>BOND
     1     1     2    1
     2     2     3   ar
     3     3     4   ar
     4     4     5   ar
     5     5     6   ar
     6     6     7   ar
     7     7    29    1
     8    29    30    1
     9    29    31    1
    10    29    32    1
    11     5     8    1
    12     8     9   am
    13     9    10    2
    14     9    11   am
    15    11    15    1
    16    15    16   ar
    17    16    17   ar
    18    17    18   ar
    19    18    21    1
    20    21    22    1
    21    22    23   ar
    22    23    24   ar
    23    24    25   ar
    24    25    26   ar
    25    26    27   ar
    26    27    28    1
    27    18    19   ar
    28    19    20   ar
    29     8    12    1
    30    12    13    1
    31     7     2   ar
    32    20    15   ar
    33    13     4    1
    34    27    22   ar
    35    11    14    1
@<TRIPOS>MOLECULE
*****
 32 35 0 0 0
SMALL
GASTEIGER

@<TRIPOS>ATOM
      1 C           1.3912    0.5876   18.2293 C.3     1  UNL1        0.0310
      2 C           2.4201   -0.1446   19.0387 C.ar    1  UNL1       -0.0182
      3 C           3.5438   -0.8621   18.3513 C.ar    1  UNL1       -0.0073
      4 C           4.5727   -1.5943   19.1607 C.ar    1  UNL1       -0.0070
      5 C           4.4780   -1.6091   20.6576 C.ar    1  UNL1        0.0513
      6 C           3.3543   -0.8916   21.3451 C.ar    1  UNL1        0.0182
      7 C           2.3254   -0.1594   20.5357 C.ar    1  UNL1        0.0687
      8 N           5.6307   -2.4096   21.1871 N.am    1  UNL1       -0.2430
      9 C           5.9246   -2.6823   22.6326 C.2     1  UNL1        0.3115
     10 O           5.0226   -2.1332   23.6979 O.2     1  UNL1       -0.2519
     11 N           7.1205   -3.5040   23.0127 N.am    1  UNL1       -0.2666
     12 C           6.4378   -2.8897   20.0175 C.3     1  UNL1        0.1045
     13 C           5.7839   -2.3858   18.7651 C.3     1  UNL1        0.0495
     14 H           7.7125   -3.8644   22.3135 H       1  UNL1        0.1565
     15 C           7.4145   -3.7767   24.4582 C.ar    1  UNL1        0.0711
     16 C           6.7600   -4.9349   25.1511 C.ar    1  UNL1        0.0211
     17 C           7.0541   -5.2075   26.5965 C.ar    1  UNL1        0.0594
     18 C           8.0026   -4.3220   27.3489 C.ar    1  UNL1        0.2298
     19 N           8.6571   -3.1638   26.6560 N.ar    1  UNL1       -0.2085
     20 C           8.3630   -2.8912   25.2105 C.ar    1  UNL1        0.1167
     21 O           8.2966   -4.5946   28.7943 O.3     1  UNL1       -0.4349
     22 C           7.4496   -3.9693   29.8629 C.ar    1  UNL1        0.1606
     23 C           6.8027   -2.6373   29.6236 C.ar    1  UNL1        0.0404
     24 C           5.9558   -2.0121   30.6921 C.ar    1  UNL1        0.0238
     25 C           5.7558   -2.7188   31.9999 C.ar    1  UNL1        0.0987
     26 N           6.4027   -4.0508   32.2393 N.ar    1  UNL1       -0.2451
     27 C           7.2497   -4.6761   31.1708 C.ar    1  UNL1        0.0938
     28 C           7.8966   -6.0080   31.4101 C.3     1  UNL1        0.0554
     29 C           1.2017    0.5581   21.2232 C.3     1  UNL1        0.4183
     30 F           0.0781    1.2755   21.9107 F       1  UNL1       -0.1659
     31 F           2.1424    1.6606   21.6100 F       1  UNL1       -0.1659
     32 F           0.2611   -0.5444   20.8364 F       1  UNL1       -0.1659
@<TRIPOS>BOND
     1     1     2    1
     2     2     3   ar
     3     3     4   ar
     4     4     5   ar
     5     5     6   ar
     6     6     7   ar
     7     7    29    1
     8    29    30    1
     9    29    31    1
    10    29    32    1
    11     5     8    1
    12     8     9   am
    13     9    10    2
    14     9    11   am
    15    11    15    1
    16    15    16   ar
    17    16    17   ar
    18    17    18   ar
    19    18    21    1
    20    21    22    1
    21    22    23   ar
    22    23    24   ar
    23    24    25   ar
    24    25    26   ar
    25    26    27   ar
    26    27    28    1
    27    18    19   ar
    28    19    20   ar
    29     8    12    1
    30    12    13    1
    31     7     2   ar
    32    20    15   ar
    33    13     4    1
    34    27    22   ar
    35    11    14    1
