@<TRIPOS>MOLECULE
*****
 28 30 0 0 0
SMALL
GASTEIGER

@<TRIPOS>ATOM
      1 C           1.0413    0.9865   19.1923 C.ar    1  UNL1        0.0191
      2 C           0.8297    2.2386   18.3940 C.ar    1  UNL1        0.0063
      3 C          -0.2086    3.2336   18.8205 C.ar    1  UNL1        0.0581
      4 C          -1.0353    2.9764   20.0454 C.ar    1  UNL1        0.2297
      5 N          -0.8237    1.7243   20.8437 N.ar    1  UNL1       -0.2098
      6 C           0.2146    0.7293   20.4172 C.ar    1  UNL1        0.1020
      7 C           3.2905    0.4493   18.0081 C.2     1  UNL1       -0.0069
      8 C           2.0796   -0.0085   18.7658 C.2     1  UNL1       -0.0014
      9 C           4.3288   -0.5457   17.5815 C.3     1  UNL1        0.0939
     10 C           5.6615   -0.0716   17.0821 C.3     1  UNL1        0.0262
     11 C           4.1132   -4.2634   18.9532 C.3     1  UNL1        0.0946
     12 C           4.4074   -2.7944   18.8804 C.2     1  UNL1        0.2232
     13 O           5.0746   -2.1051   20.0335 O.2     1  UNL1       -0.2751
     14 N           4.0346   -2.0147   17.6544 N.am    1  UNL1       -0.3022
     15 H           3.5967   -2.4671   16.8976 H       1  UNL1        0.1497
     16 O          -2.0736    3.9714   20.4719 O.3     1  UNL1       -0.4352
     17 C          -2.7370    3.8360   21.8104 C.ar    1  UNL1        0.1578
     18 C          -1.9749    4.1589   23.0614 C.ar    1  UNL1        0.0415
     19 C          -2.6383    4.0235   24.3998 C.ar    1  UNL1        0.0401
     20 C          -4.0638    3.5652   24.4874 C.ar    1  UNL1        0.1396
     21 C          -4.8260    3.2423   23.2365 C.ar    1  UNL1        0.0514
     22 C          -4.1626    3.3776   21.8980 C.ar    1  UNL1        0.0952
     23 CL         -4.9248    3.0547   20.6471 Cl      1  UNL1       -0.0790
     24 O          -4.7272    3.4298   25.8259 O.3     1  UNL1       -0.4754
     25 C          -4.6431    4.5487   26.8213 C.3     1  UNL1        0.2053
     26 C          -5.7383    5.5709   26.8950 C.3     1  UNL1        0.0438
     27 C          -6.7000    6.3883   27.7056 C.3     1  UNL1        0.0038
     28 C          -6.6738    6.5240   26.2120 C.3     1  UNL1        0.0038
@<TRIPOS>BOND
     1    11    12    1
     2    12    13    2
     3    12    14   am
     4    14     9    1
     5     9    10    1
     6     9     7    1
     7     7     8    2
     8     8     1    1
     9     1     2   ar
    10     2     3   ar
    11     3     4   ar
    12     4    16    1
    13    16    17    1
    14    17    18   ar
    15    18    19   ar
    16    19    20   ar
    17    20    24    1
    18    24    25    1
    19    25    26    1
    20    26    27    1
    21    27    28    1
    22    20    21   ar
    23    21    22   ar
    24    22    23    1
    25     4     5   ar
    26     5     6   ar
    27     6     1   ar
    28    22    17   ar
    29    28    26    1
    30    14    15    1
@<TRIPOS>MOLECULE
*****
 28 30 0 0 0
SMALL
GASTEIGER

@<TRIPOS>ATOM
      1 C           2.5585   -0.2417   19.0947 C.ar    1  UNL1        0.0191
      2 C           1.4346   -0.5840   20.0272 C.ar    1  UNL1        0.0063
      3 C           0.3292    0.4021   20.2634 C.ar    1  UNL1        0.0581
      4 C           0.3478    1.7306   19.5671 C.ar    1  UNL1        0.2297
      5 N           1.4718    2.0729   18.6346 N.ar    1  UNL1       -0.2098
      6 C           2.5771    1.0867   18.3984 C.ar    1  UNL1        0.1020
      7 C           3.7112   -2.5040   19.6453 C.2     1  UNL1       -0.0069
      8 C           3.6639   -1.2278   18.8586 C.2     1  UNL1       -0.0014
      9 C           4.8165   -3.4901   19.4091 C.3     1  UNL1        0.0939
     10 C           4.5161   -4.8158   18.7746 C.3     1  UNL1        0.0262
     11 C           8.5695   -2.2168   19.2007 C.3     1  UNL1        0.0946
     12 C           7.1638   -2.5562   18.8024 C.2     1  UNL1        0.2232
     13 O           6.6996   -2.3012   17.3991 O.2     1  UNL1       -0.2751
     14 N           6.2223   -3.1507   19.8075 N.am    1  UNL1       -0.3022
     15 H           6.5269   -3.3181   20.7285 H       1  UNL1        0.1497
     16 O          -0.7575    2.7167   19.8032 O.3     1  UNL1       -0.4352
     17 C          -1.0248    3.2261   21.1885 C.ar    1  UNL1        0.1578
     18 C           0.1194    3.5295   22.1099 C.ar    1  UNL1        0.0415
     19 C          -0.1479    4.0390   23.4951 C.ar    1  UNL1        0.0401
     20 C          -1.5594    4.2450   23.9591 C.ar    1  UNL1        0.1396
     21 C          -2.7036    3.9417   23.0378 C.ar    1  UNL1        0.0514
     22 C          -2.4363    3.4322   21.6524 C.ar    1  UNL1        0.0952
     23 CL         -3.5805    3.1288   20.7312 Cl      1  UNL1       -0.0790
     24 O          -1.8267    4.7545   25.3444 O.3     1  UNL1       -0.4754
     25 C          -2.2185    3.7990   26.4323 C.3     1  UNL1        0.2053
     26 C          -1.3733    2.5915   26.7102 C.3     1  UNL1        0.0438
     27 C          -0.3834    1.5642   26.2468 C.3     1  UNL1        0.0038
     28 C          -0.8992    1.5271   27.6548 C.3     1  UNL1        0.0038
@<TRIPOS>BOND
     1    11    12    1
     2    12    13    2
     3    12    14   am
     4    14     9    1
     5     9    10    1
     6     9     7    1
     7     7     8    2
     8     8     1    1
     9     1     2   ar
    10     2     3   ar
    11     3     4   ar
    12     4    16    1
    13    16    17    1
    14    17    18   ar
    15    18    19   ar
    16    19    20   ar
    17    20    24    1
    18    24    25    1
    19    25    26    1
    20    26    27    1
    21    27    28    1
    22    20    21   ar
    23    21    22   ar
    24    22    23    1
    25     4     5   ar
    26     5     6   ar
    27     6     1   ar
    28    22    17   ar
    29    28    26    1
    30    14    15    1
@<TRIPOS>MOLECULE
*****
 28 30 0 0 0
SMALL
GASTEIGER

@<TRIPOS>ATOM
      1 C           2.1038   -0.1045   20.9750 C.ar    1  UNL1        0.0191
      2 C           2.5442    1.2154   21.5353 C.ar    1  UNL1        0.0063
      3 C           1.5838    2.3664   21.5866 C.ar    1  UNL1        0.0581
      4 C           0.1829    2.1976   21.0776 C.ar    1  UNL1        0.2297
      5 N          -0.2575    0.8777   20.5174 N.ar    1  UNL1       -0.2098
      6 C           0.7030   -0.2733   20.4661 C.ar    1  UNL1        0.1020
      7 C           3.1234   -2.1293   19.7059 C.2     1  UNL1       -0.0069
      8 C           3.0643   -1.2555   20.9237 C.2     1  UNL1       -0.0014
      9 C           4.0839   -3.2803   19.6546 C.3     1  UNL1        0.0939
     10 C           3.5851   -4.6599   19.3412 C.3     1  UNL1        0.0262
     11 C           7.8956   -2.3399   19.0753 C.3     1  UNL1        0.0946
     12 C           6.4365   -2.5683   18.8132 C.2     1  UNL1        0.2232
     13 O           5.8709   -2.3133   17.4475 O.2     1  UNL1       -0.2751
     14 N           5.5430   -3.0518   19.9167 N.am    1  UNL1       -0.3022
     15 H           5.9142   -3.2192   20.8131 H       1  UNL1        0.1497
     16 O          -0.7775    3.3487   21.1290 O.3     1  UNL1       -0.4352
     17 C          -1.8300    3.4002   22.1964 C.ar    1  UNL1        0.1578
     18 C          -1.4311    3.4368   23.6420 C.ar    1  UNL1        0.0415
     19 C          -2.4836    3.4883   24.7094 C.ar    1  UNL1        0.0401
     20 C          -3.9351    3.5034   24.3314 C.ar    1  UNL1        0.1396
     21 C          -4.3341    3.4668   22.8860 C.ar    1  UNL1        0.0514
     22 C          -3.2815    3.4153   21.8184 C.ar    1  UNL1        0.0952
     23 CL         -3.6806    3.3787   20.3729 Cl      1  UNL1       -0.0790
     24 O          -4.9876    3.5549   25.3990 O.3     1  UNL1       -0.4754
     25 C          -5.8394    4.7798   25.5539 C.3     1  UNL1        0.2053
     26 C          -7.0181    4.9927   24.6509 C.3     1  UNL1        0.0438
     27 C          -7.8662    4.5499   23.4957 C.3     1  UNL1        0.0038
     28 C          -8.2116    5.8042   24.2423 C.3     1  UNL1        0.0038
@<TRIPOS>BOND
     1    11    12    1
     2    12    13    2
     3    12    14   am
     4    14     9    1
     5     9    10    1
     6     9     7    1
     7     7     8    2
     8     8     1    1
     9     1     2   ar
    10     2     3   ar
    11     3     4   ar
    12     4    16    1
    13    16    17    1
    14    17    18   ar
    15    18    19   ar
    16    19    20   ar
    17    20    24    1
    18    24    25    1
    19    25    26    1
    20    26    27    1
    21    27    28    1
    22    20    21   ar
    23    21    22   ar
    24    22    23    1
    25     4     5   ar
    26     5     6   ar
    27     6     1   ar
    28    22    17   ar
    29    28    26    1
    30    14    15    1
@<TRIPOS>MOLECULE
*****
 28 30 0 0 0
SMALL
GASTEIGER

@<TRIPOS>ATOM
      1 C           1.4155    1.6520   25.0857 C.ar    1  UNL1        0.0191
      2 C           0.5019    1.0809   24.0421 C.ar    1  UNL1        0.0063
      3 C           0.7538    1.3610   22.5902 C.ar    1  UNL1        0.0581
      4 C           1.9195    2.2121   22.1818 C.ar    1  UNL1        0.2297
      5 N           2.8332    2.7832   23.2254 N.ar    1  UNL1       -0.2098
      6 C           2.5812    2.5031   24.6773 C.ar    1  UNL1        0.1020
      7 C          -0.2307    1.0968   27.0174 C.2     1  UNL1       -0.0069
      8 C           1.1636    1.3720   26.5376 C.2     1  UNL1       -0.0014
      9 C          -0.4827    0.8167   28.4693 C.3     1  UNL1        0.0939
     10 C          -1.4408   -0.2660   28.8690 C.3     1  UNL1        0.0262
     11 C           2.0159    1.7922   31.3942 C.3     1  UNL1        0.0946
     12 C           1.3098    0.9896   30.3420 C.2     1  UNL1        0.2232
     13 O           1.6900   -0.4428   30.1104 O.2     1  UNL1       -0.2751
     14 N           0.2235    1.6193   29.5215 N.am    1  UNL1       -0.3022
     15 H          -0.0261    2.5595   29.6736 H       1  UNL1        0.1497
     16 O           2.1715    2.4922   20.7299 O.3     1  UNL1       -0.4352
     17 C           2.9737    1.5273   19.9082 C.ar    1  UNL1        0.1578
     18 C           4.3923    1.2190   20.2861 C.ar    1  UNL1        0.0415
     19 C           5.1946    0.2541   19.4644 C.ar    1  UNL1        0.0401
     20 C           4.5784   -0.4026   18.2648 C.ar    1  UNL1        0.1396
     21 C           3.1600   -0.0943   17.8868 C.ar    1  UNL1        0.0514
     22 C           2.3576    0.8706   18.7086 C.ar    1  UNL1        0.0952
     23 CL          0.9391    1.1789   18.3306 Cl      1  UNL1       -0.0790
     24 O           5.3808   -1.3675   17.4430 O.3     1  UNL1       -0.4754
     25 C           5.8986   -2.6312   18.0635 C.3     1  UNL1        0.2053
     26 C           4.9459   -3.5993   18.6999 C.3     1  UNL1        0.0438
     27 C           3.8190   -3.8787   19.6495 C.3     1  UNL1        0.0038
     28 C           4.4228   -4.9968   18.8525 C.3     1  UNL1        0.0038
@<TRIPOS>BOND
     1    11    12    1
     2    12    13    2
     3    12    14   am
     4    14     9    1
     5     9    10    1
     6     9     7    1
     7     7     8    2
     8     8     1    1
     9     1     2   ar
    10     2     3   ar
    11     3     4   ar
    12     4    16    1
    13    16    17    1
    14    17    18   ar
    15    18    19   ar
    16    19    20   ar
    17    20    24    1
    18    24    25    1
    19    25    26    1
    20    26    27    1
    21    27    28    1
    22    20    21   ar
    23    21    22   ar
    24    22    23    1
    25     4     5   ar
    26     5     6   ar
    27     6     1   ar
    28    22    17   ar
    29    28    26    1
    30    14    15    1
@<TRIPOS>MOLECULE
*****
 28 30 0 0 0
SMALL
GASTEIGER

@<TRIPOS>ATOM
      1 C           2.0970   -0.4542   20.0972 C.ar    1  UNL1        0.0191
      2 C           2.6184    0.8300   19.5239 C.ar    1  UNL1        0.0063
      3 C           1.7222    2.0295   19.4334 C.ar    1  UNL1        0.0581
      4 C           0.3047    1.9447   19.9164 C.ar    1  UNL1        0.2297
      5 N          -0.2167    0.6605   20.4897 N.ar    1  UNL1       -0.2098
      6 C           0.6794   -0.5390   20.5802 C.ar    1  UNL1        0.1020
      7 C           3.9099   -1.9924   19.0498 C.2     1  UNL1       -0.0069
      8 C           2.9932   -1.6537   20.1877 C.2     1  UNL1       -0.0014
      9 C           4.8061   -3.1919   19.1403 C.3     1  UNL1        0.0939
     10 C           4.2778   -4.5511   18.7886 C.3     1  UNL1        0.0262
     11 C           8.6700   -2.2880   19.0875 C.3     1  UNL1        0.0946
     12 C           7.2456   -2.4476   18.6454 C.2     1  UNL1        0.2232
     13 O           6.8362   -2.0227   17.2663 O.2     1  UNL1       -0.2751
     14 N           6.2305   -3.0322   19.5823 N.am    1  UNL1       -0.3022
     15 H           6.4992   -3.3111   20.4875 H       1  UNL1        0.1497
     16 O          -0.5915    3.1442   19.8259 O.3     1  UNL1       -0.4352
     17 C          -1.7563    3.2824   20.7609 C.ar    1  UNL1        0.1578
     18 C          -3.1570    3.1774   20.2346 C.ar    1  UNL1        0.0415
     19 C          -4.3218    3.3156   21.1696 C.ar    1  UNL1        0.0401
     20 C          -4.0858    3.5587   22.6309 C.ar    1  UNL1        0.1396
     21 C          -2.6851    3.6637   23.1571 C.ar    1  UNL1        0.0514
     22 C          -1.5203    3.5255   22.2221 C.ar    1  UNL1        0.0952
     23 CL         -0.1196    3.6304   22.7484 Cl      1  UNL1       -0.0790
     24 O          -5.2507    3.6969   23.5658 O.3     1  UNL1       -0.4754
     25 C          -5.0328    3.6406   25.0488 C.3     1  UNL1        0.2053
     26 C          -5.4238    4.8056   25.9090 C.3     1  UNL1        0.0438
     27 C          -6.4010    5.8856   26.2675 C.3     1  UNL1        0.0038
     28 C          -5.1235    5.7434   27.0405 C.3     1  UNL1        0.0038
@<TRIPOS>BOND
     1    11    12    1
     2    12    13    2
     3    12    14   am
     4    14     9    1
     5     9    10    1
     6     9     7    1
     7     7     8    2
     8     8     1    1
     9     1     2   ar
    10     2     3   ar
    11     3     4   ar
    12     4    16    1
    13    16    17    1
    14    17    18   ar
    15    18    19   ar
    16    19    20   ar
    17    20    24    1
    18    24    25    1
    19    25    26    1
    20    26    27    1
    21    27    28    1
    22    20    21   ar
    23    21    22   ar
    24    22    23    1
    25     4     5   ar
    26     5     6   ar
    27     6     1   ar
    28    22    17   ar
    29    28    26    1
    30    14    15    1
@<TRIPOS>MOLECULE
*****
 28 30 0 0 0
SMALL
GASTEIGER

@<TRIPOS>ATOM
      1 C           1.6085    0.9582   18.8331 C.ar    1  UNL1        0.0191
      2 C           1.4680    2.4344   18.6077 C.ar    1  UNL1        0.0063
      3 C           0.4417    3.2158   19.3733 C.ar    1  UNL1        0.0581
      4 C          -0.4442    2.5209   20.3644 C.ar    1  UNL1        0.2297
      5 N          -0.3037    1.0446   20.5898 N.ar    1  UNL1       -0.2098
      6 C           0.7226    0.2633   19.8242 C.ar    1  UNL1        0.1020
      7 C           3.7640   -0.4916   18.7940 C.2     1  UNL1       -0.0069
      8 C           2.6348    0.1768   18.0675 C.2     1  UNL1       -0.0014
      9 C           4.7903   -1.2730   18.0283 C.3     1  UNL1        0.0939
     10 C           5.9992   -0.5802   17.4724 C.3     1  UNL1        0.0262
     11 C           4.6484   -5.1735   18.7458 C.3     1  UNL1        0.0946
     12 C           4.8309   -3.6996   18.9556 C.2     1  UNL1        0.2232
     13 O           5.2364   -3.1782   20.3023 O.2     1  UNL1       -0.2751
     14 N           4.6079   -2.7469   17.8186 N.am    1  UNL1       -0.3022
     15 H           4.3417   -3.0891   16.9347 H       1  UNL1        0.1497
     16 O          -1.4705    3.3022   21.1300 O.3     1  UNL1       -0.4352
     17 C          -1.4745    3.2673   22.6296 C.ar    1  UNL1        0.1578
     18 C          -0.2133    2.9469   23.3758 C.ar    1  UNL1        0.0415
     19 C          -0.2173    2.9120   24.8753 C.ar    1  UNL1        0.0401
     20 C          -1.4826    3.1974   25.6288 C.ar    1  UNL1        0.1396
     21 C          -2.7437    3.5178   24.8827 C.ar    1  UNL1        0.0514
     22 C          -2.7397    3.5527   23.3830 C.ar    1  UNL1        0.0952
     23 CL         -4.0009    3.8731   22.6369 Cl      1  UNL1       -0.0790
     24 O          -1.4866    3.1625   27.1284 O.3     1  UNL1       -0.4754
     25 C          -0.4365    2.3832   27.8633 C.3     1  UNL1        0.2053
     26 C          -0.7583    1.0256   28.4142 C.3     1  UNL1        0.0438
     27 C          -0.3635   -0.3980   28.6736 C.3     1  UNL1        0.0038
     28 C          -1.7106    0.0979   29.1089 C.3     1  UNL1        0.0038
@<TRIPOS>BOND
     1    11    12    1
     2    12    13    2
     3    12    14   am
     4    14     9    1
     5     9    10    1
     6     9     7    1
     7     7     8    2
     8     8     1    1
     9     1     2   ar
    10     2     3   ar
    11     3     4   ar
    12     4    16    1
    13    16    17    1
    14    17    18   ar
    15    18    19   ar
    16    19    20   ar
    17    20    24    1
    18    24    25    1
    19    25    26    1
    20    26    27    1
    21    27    28    1
    22    20    21   ar
    23    21    22   ar
    24    22    23    1
    25     4     5   ar
    26     5     6   ar
    27     6     1   ar
    28    22    17   ar
    29    28    26    1
    30    14    15    1
@<TRIPOS>MOLECULE
*****
 28 30 0 0 0
SMALL
GASTEIGER

@<TRIPOS>ATOM
      1 C          -0.3139    2.1696   25.0965 C.ar    1  UNL1        0.0191
      2 C           0.5901    1.3033   24.2706 C.ar    1  UNL1        0.0063
      3 C           0.9909    1.7373   22.8918 C.ar    1  UNL1        0.0581
      4 C           0.4877    3.0376   22.3389 C.ar    1  UNL1        0.2297
      5 N          -0.4164    3.9040   23.1648 N.ar    1  UNL1       -0.2098
      6 C          -0.8171    3.4700   24.5436 C.ar    1  UNL1        0.1020
      7 C           0.2369    0.9378   27.3167 C.2     1  UNL1       -0.0069
      8 C          -0.7147    1.7356   26.4753 C.2     1  UNL1       -0.0014
      9 C          -0.1639    0.5038   28.6954 C.3     1  UNL1        0.0939
     10 C          -1.4115   -0.3049   28.8942 C.3     1  UNL1        0.0262
     11 C           2.8111    0.5203   31.3220 C.3     1  UNL1        0.0946
     12 C           1.9643    0.1456   30.1420 C.2     1  UNL1        0.2232
     13 O           2.3988   -0.9619   29.2285 O.2     1  UNL1       -0.2751
     14 N           0.6829    0.8785   29.8755 N.am    1  UNL1       -0.3022
     15 H           0.3977    1.6054   30.4750 H       1  UNL1        0.1497
     16 O           0.8884    3.4716   20.9602 O.3     1  UNL1       -0.4352
     17 C           1.5140    2.4878   20.0164 C.ar    1  UNL1        0.1578
     18 C           0.6471    1.5679   19.2087 C.ar    1  UNL1        0.0415
     19 C           1.2726    0.5841   18.2649 C.ar    1  UNL1        0.0401
     20 C           2.7651    0.5202   18.1287 C.ar    1  UNL1        0.1396
     21 C           3.6320    1.4400   18.9363 C.ar    1  UNL1        0.0514
     22 C           3.0064    2.4239   19.8802 C.ar    1  UNL1        0.0952
     23 CL          3.8733    3.3438   20.6878 Cl      1  UNL1       -0.0790
     24 O           3.3906   -0.4637   17.1849 O.3     1  UNL1       -0.4754
     25 C           4.3923   -1.4578   17.6930 C.3     1  UNL1        0.2053
     26 C           4.0081   -2.4240   18.7741 C.3     1  UNL1        0.0438
     27 C           3.8879   -2.7638   20.2301 C.3     1  UNL1        0.0038
     28 C           3.4627   -3.7579   19.1904 C.3     1  UNL1        0.0038
@<TRIPOS>BOND
     1    11    12    1
     2    12    13    2
     3    12    14   am
     4    14     9    1
     5     9    10    1
     6     9     7    1
     7     7     8    2
     8     8     1    1
     9     1     2   ar
    10     2     3   ar
    11     3     4   ar
    12     4    16    1
    13    16    17    1
    14    17    18   ar
    15    18    19   ar
    16    19    20   ar
    17    20    24    1
    18    24    25    1
    19    25    26    1
    20    26    27    1
    21    27    28    1
    22    20    21   ar
    23    21    22   ar
    24    22    23    1
    25     4     5   ar
    26     5     6   ar
    27     6     1   ar
    28    22    17   ar
    29    28    26    1
    30    14    15    1
@<TRIPOS>MOLECULE
*****
 28 30 0 0 0
SMALL
GASTEIGER

@<TRIPOS>ATOM
      1 C           5.5214   -3.5143   23.4221 C.ar    1  UNL1        0.0191
      2 C           5.1308   -2.5734   24.5230 C.ar    1  UNL1        0.0063
      3 C           6.0142   -2.4175   25.7252 C.ar    1  UNL1        0.0581
      4 C           7.2883   -3.2025   25.8264 C.ar    1  UNL1        0.2297
      5 N           7.6790   -4.1434   24.7255 N.ar    1  UNL1       -0.2098
      6 C           6.7956   -4.2993   23.5233 C.ar    1  UNL1        0.1020
      7 C           5.2265   -3.5973   20.8422 C.2     1  UNL1       -0.0069
      8 C           4.6380   -3.6702   22.2199 C.2     1  UNL1       -0.0014
      9 C           4.3431   -3.7532   19.6400 C.3     1  UNL1        0.0939
     10 C           4.0073   -5.1228   19.1285 C.3     1  UNL1        0.0262
     11 C           4.0544   -0.6391   17.1969 C.3     1  UNL1        0.0946
     12 C           4.6021   -1.8528   17.8875 C.2     1  UNL1        0.2232
     13 O           5.9566   -2.3796   17.5164 O.2     1  UNL1       -0.2751
     14 N           3.7954   -2.5396   18.9493 N.am    1  UNL1       -0.3022
     15 H           2.9064   -2.1938   19.1929 H       1  UNL1        0.1497
     16 O           8.1718   -3.0467   27.0286 O.3     1  UNL1       -0.4352
     17 C           7.5872   -3.1432   28.4066 C.ar    1  UNL1        0.1578
     18 C           7.1997   -1.8969   29.1459 C.ar    1  UNL1        0.0415
     19 C           6.6150   -1.9934   30.5239 C.ar    1  UNL1        0.0401
     20 C           6.4179   -3.3363   31.1626 C.ar    1  UNL1        0.1396
     21 C           6.8053   -4.5826   30.4233 C.ar    1  UNL1        0.0514
     22 C           7.3900   -4.4860   29.0452 C.ar    1  UNL1        0.0952
     23 CL          7.7775   -5.7323   28.3060 Cl      1  UNL1       -0.0790
     24 O           5.8332   -3.4328   32.5406 O.3     1  UNL1       -0.4754
     25 C           4.7331   -2.5014   32.9555 C.3     1  UNL1        0.2053
     26 C           5.0256   -1.3637   33.8882 C.3     1  UNL1        0.0438
     27 C           5.7726   -0.1018   34.2039 C.3     1  UNL1        0.0038
     28 C           4.7851   -0.6549   35.1882 C.3     1  UNL1        0.0038
@<TRIPOS>BOND
     1    11    12    1
     2    12    13    2
     3    12    14   am
     4    14     9    1
     5     9    10    1
     6     9     7    1
     7     7     8    2
     8     8     1    1
     9     1     2   ar
    10     2     3   ar
    11     3     4   ar
    12     4    16    1
    13    16    17    1
    14    17    18   ar
    15    18    19   ar
    16    19    20   ar
    17    20    24    1
    18    24    25    1
    19    25    26    1
    20    26    27    1
    21    27    28    1
    22    20    21   ar
    23    21    22   ar
    24    22    23    1
    25     4     5   ar
    26     5     6   ar
    27     6     1   ar
    28    22    17   ar
    29    28    26    1
    30    14    15    1
@<TRIPOS>MOLECULE
*****
 28 30 0 0 0
SMALL
GASTEIGER

@<TRIPOS>ATOM
      1 C           1.9532    0.2301   19.4475 C.ar    1  UNL1        0.0191
      2 C           0.7484    0.1192   20.3342 C.ar    1  UNL1        0.0063
      3 C          -0.1977    1.2761   20.4621 C.ar    1  UNL1        0.0581
      4 C           0.0610    2.5439   19.7034 C.ar    1  UNL1        0.2297
      5 N           1.2657    2.6549   18.8168 N.ar    1  UNL1       -0.2098
      6 C           2.2119    1.4979   18.6888 C.ar    1  UNL1        0.1020
      7 C           3.9406   -0.9283   18.2399 C.2     1  UNL1       -0.0069
      8 C           2.8994   -0.9268   19.3196 C.2     1  UNL1       -0.0014
      9 C           4.8867   -2.0853   18.1120 C.3     1  UNL1        0.0939
     10 C           6.3495   -1.8370   17.8914 C.3     1  UNL1        0.0262
     11 C           3.7983   -5.5882   19.6267 C.3     1  UNL1        0.0946
     12 C           4.3149   -4.1831   19.5340 C.2     1  UNL1        0.2232
     13 O           4.7763   -3.4706   20.7707 O.2     1  UNL1       -0.2751
     14 N           4.3701   -3.4904   18.2047 N.am    1  UNL1       -0.3022
     15 H           4.0672   -3.9581   17.3930 H       1  UNL1        0.1497
     16 O          -0.8852    3.7009   19.8313 O.3     1  UNL1       -0.4352
     17 C          -2.0608    3.6094   20.7584 C.ar    1  UNL1        0.1578
     18 C          -3.4189    3.2741   20.2167 C.ar    1  UNL1        0.0415
     19 C          -4.5944    3.1826   21.1438 C.ar    1  UNL1        0.0401
     20 C          -4.4120    3.4263   22.6126 C.ar    1  UNL1        0.1396
     21 C          -3.0541    3.7615   23.1543 C.ar    1  UNL1        0.0514
     22 C          -1.8784    3.8531   22.2272 C.ar    1  UNL1        0.0952
     23 CL         -0.5204    4.1883   22.7689 Cl      1  UNL1       -0.0790
     24 O          -5.5877    3.3348   23.5397 O.3     1  UNL1       -0.4754
     25 C          -5.9708    4.5141   24.3838 C.3     1  UNL1        0.2053
     26 C          -5.3579    4.6960   25.7407 C.3     1  UNL1        0.0438
     27 C          -5.2912    5.4274   27.0485 C.3     1  UNL1        0.0038
     28 C          -4.3628    4.2795   26.7830 C.3     1  UNL1        0.0038
@<TRIPOS>BOND
     1    11    12    1
     2    12    13    2
     3    12    14   am
     4    14     9    1
     5     9    10    1
     6     9     7    1
     7     7     8    2
     8     8     1    1
     9     1     2   ar
    10     2     3   ar
    11     3     4   ar
    12     4    16    1
    13    16    17    1
    14    17    18   ar
    15    18    19   ar
    16    19    20   ar
    17    20    24    1
    18    24    25    1
    19    25    26    1
    20    26    27    1
    21    27    28    1
    22    20    21   ar
    23    21    22   ar
    24    22    23    1
    25     4     5   ar
    26     5     6   ar
    27     6     1   ar
    28    22    17   ar
    29    28    26    1
    30    14    15    1
