@<TRIPOS>MOLECULE
*****
 17 20 0 0 0
SMALL
GASTEIGER

@<TRIPOS>ATOM
      1 C          -4.0397  -20.3342   20.5136 C.3     1  UNL1        0.0028
      2 C          -3.4931  -19.4819   21.6202 C.3     1  UNL1        0.0174
      3 C          -4.4070  -18.5749   22.3898 C.3     1  UNL1        0.0720
      4 N          -5.8676  -18.5202   22.0526 N.3     1  UNL1       -0.2739
      5 C          -6.7815  -17.6133   22.8221 C.3     1  UNL1        0.0733
      6 C          -8.2421  -17.5586   22.4850 C.3     1  UNL1        0.0307
      7 C          -8.7888  -18.4109   21.3782 C.3     1  UNL1        0.0055
      8 C          -7.8748  -19.3179   20.6087 C.3     1  UNL1        0.0307
      9 C          -9.3354  -19.2632   20.2716 C.3     1  UNL1        0.0733
     10 N         -10.2493  -18.3562   21.0411 N.3     1  UNL1       -0.2739
     11 C         -11.7100  -18.3016   20.7039 C.3     1  UNL1        0.0720
     12 C         -12.6239  -17.3946   21.4734 C.3     1  UNL1        0.0174
     13 C         -12.0772  -16.5423   22.5801 C.3     1  UNL1        0.0028
     14 C         -10.6166  -16.5970   22.9173 C.3     1  UNL1        0.0160
     15 C          -9.7027  -17.5040   22.1478 C.3     1  UNL1        0.0588
     16 C          -6.4142  -19.3725   20.9459 C.3     1  UNL1        0.0588
     17 C          -5.5003  -20.2795   20.1764 C.3     1  UNL1        0.0160
@<TRIPOS>BOND
     1     1     2    1
     2     2     3    1
     3     3     4    1
     4     4     5    1
     5     6     5    1
     6     6     7    1
     7     7     8    1
     8     8     9    1
     9     9    10    1
    10    10    11    1
    11    11    12    1
    12    12    13    1
    13    13    14    1
    14    15    14    1
    15     8    16    1
    16    16    17    1
    17    17     1    1
    18    16     4    1
    19    15     6    1
    20    15    10    1
@<TRIPOS>MOLECULE
*****
 17 20 0 0 0
SMALL
GASTEIGER

@<TRIPOS>ATOM
      1 C         -12.3563  -17.7956   21.2253 C.3     1  UNL1        0.0028
      2 C         -12.1895  -16.9728   22.4683 C.3     1  UNL1        0.0174
      3 C         -10.8373  -16.8397   23.1038 C.3     1  UNL1        0.0720
      4 N          -9.6519  -17.5293   22.4962 N.3     1  UNL1       -0.2739
      5 C          -8.2997  -17.3962   23.1317 C.3     1  UNL1        0.0733
      6 C          -7.1143  -18.0858   22.5242 C.3     1  UNL1        0.0307
      7 C          -7.2810  -18.9087   21.2811 C.3     1  UNL1        0.0055
      8 C          -8.6332  -19.0418   20.6456 C.3     1  UNL1        0.0307
      9 C          -7.4478  -19.7315   20.0381 C.3     1  UNL1        0.0733
     10 N          -6.0956  -19.5983   20.6736 N.3     1  UNL1       -0.2739
     11 C          -4.9102  -20.2880   20.0660 C.3     1  UNL1        0.0720
     12 C          -3.5580  -20.1549   20.7014 C.3     1  UNL1        0.0174
     13 C          -3.3912  -19.3320   21.9445 C.3     1  UNL1        0.0028
     14 C          -4.5766  -18.6424   22.5521 C.3     1  UNL1        0.0160
     15 C          -5.9288  -18.7755   21.9166 C.3     1  UNL1        0.0588
     16 C          -9.8187  -18.3521   21.2532 C.3     1  UNL1        0.0588
     17 C         -11.1709  -18.4853   20.6178 C.3     1  UNL1        0.0160
@<TRIPOS>BOND
     1     1     2    1
     2     2     3    1
     3     3     4    1
     4     4     5    1
     5     6     5    1
     6     6     7    1
     7     7     8    1
     8     8     9    1
     9     9    10    1
    10    10    11    1
    11    11    12    1
    12    12    13    1
    13    13    14    1
    14    15    14    1
    15     8    16    1
    16    16    17    1
    17    17     1    1
    18    16     4    1
    19    15     6    1
    20    15    10    1
@<TRIPOS>MOLECULE
*****
 17 20 0 0 0
SMALL
GASTEIGER

@<TRIPOS>ATOM
      1 C         -12.0148  -16.5332   22.6808 C.3     1  UNL1        0.0028
      2 C         -12.5499  -17.3903   21.5722 C.3     1  UNL1        0.0174
      3 C         -11.6233  -18.2809   20.7987 C.3     1  UNL1        0.0720
      4 N         -10.1616  -18.3145   21.1340 N.3     1  UNL1       -0.2739
      5 C          -9.2350  -19.2051   20.3605 C.3     1  UNL1        0.0733
      6 C          -7.7734  -19.2387   20.6958 C.3     1  UNL1        0.0307
      7 C          -7.2383  -18.3816   21.8045 C.3     1  UNL1        0.0055
      8 C          -8.1649  -17.4910   22.5779 C.3     1  UNL1        0.0307
      9 C          -6.7032  -17.5246   22.9131 C.3     1  UNL1        0.0733
     10 N          -5.7766  -18.4152   22.1397 N.3     1  UNL1       -0.2739
     11 C          -4.3149  -18.4488   22.4750 C.3     1  UNL1        0.0720
     12 C          -3.3883  -19.3394   21.7016 C.3     1  UNL1        0.0174
     13 C          -3.9234  -20.1965   20.5929 C.3     1  UNL1        0.0028
     14 C          -5.3851  -20.1629   20.2576 C.3     1  UNL1        0.0160
     15 C          -6.3117  -19.2723   21.0311 C.3     1  UNL1        0.0588
     16 C          -9.6266  -17.4574   22.2426 C.3     1  UNL1        0.0588
     17 C         -10.5532  -16.5668   23.0160 C.3     1  UNL1        0.0160
@<TRIPOS>BOND
     1     1     2    1
     2     2     3    1
     3     3     4    1
     4     4     5    1
     5     6     5    1
     6     6     7    1
     7     7     8    1
     8     8     9    1
     9     9    10    1
    10    10    11    1
    11    11    12    1
    12    12    13    1
    13    13    14    1
    14    15    14    1
    15     8    16    1
    16    16    17    1
    17    17     1    1
    18    16     4    1
    19    15     6    1
    20    15    10    1
@<TRIPOS>MOLECULE
*****
 17 20 0 0 0
SMALL
GASTEIGER

@<TRIPOS>ATOM
      1 C          -3.3126  -19.2606   21.9958 C.3     1  UNL1        0.0028
      2 C          -3.4530  -20.0994   20.7602 C.3     1  UNL1        0.0174
      3 C          -4.7972  -20.2663   20.1158 C.3     1  UNL1        0.0720
      4 N          -6.0009  -19.5943   20.7069 N.3     1  UNL1       -0.2739
      5 C          -7.3451  -19.7611   20.0624 C.3     1  UNL1        0.0733
      6 C          -8.5489  -19.0891   20.6535 C.3     1  UNL1        0.0307
      7 C          -8.4084  -18.2503   21.8891 C.3     1  UNL1        0.0055
      8 C          -7.0643  -18.0835   22.5336 C.3     1  UNL1        0.0307
      9 C          -8.2680  -17.4115   23.1246 C.3     1  UNL1        0.0733
     10 N          -9.6122  -17.5783   22.4802 N.3     1  UNL1       -0.2739
     11 C         -10.8160  -16.9063   23.0713 C.3     1  UNL1        0.0720
     12 C         -12.1601  -17.0731   22.4269 C.3     1  UNL1        0.0174
     13 C         -12.3005  -17.9120   21.1912 C.3     1  UNL1        0.0028
     14 C         -11.0968  -18.5839   20.6002 C.3     1  UNL1        0.0160
     15 C          -9.7526  -18.4171   21.2446 C.3     1  UNL1        0.0588
     16 C          -5.8605  -18.7555   21.9424 C.3     1  UNL1        0.0588
     17 C          -4.5163  -18.5887   22.5869 C.3     1  UNL1        0.0160
@<TRIPOS>BOND
     1     1     2    1
     2     2     3    1
     3     3     4    1
     4     4     5    1
     5     6     5    1
     6     6     7    1
     7     7     8    1
     8     8     9    1
     9     9    10    1
    10    10    11    1
    11    11    12    1
    12    12    13    1
    13    13    14    1
    14    15    14    1
    15     8    16    1
    16    16    17    1
    17    17     1    1
    18    16     4    1
    19    15     6    1
    20    15    10    1
@<TRIPOS>MOLECULE
*****
 17 20 0 0 0
SMALL
GASTEIGER

@<TRIPOS>ATOM
      1 C          -7.0770  -15.0433   27.3282 C.3     1  UNL1        0.0028
      2 C          -5.7833  -14.8915   26.5844 C.3     1  UNL1        0.0174
      3 C          -5.6407  -15.4603   25.2037 C.3     1  UNL1        0.0720
      4 N          -6.7918  -16.1809   24.5669 N.3     1  UNL1       -0.2739
      5 C          -6.6493  -16.7497   23.1862 C.3     1  UNL1        0.0733
      6 C          -7.8004  -17.4702   22.5494 C.3     1  UNL1        0.0307
      7 C          -9.0942  -17.6221   23.2932 C.3     1  UNL1        0.0055
      8 C          -9.2368  -17.0533   24.6738 C.3     1  UNL1        0.0307
      9 C         -10.3879  -17.7739   24.0369 C.3     1  UNL1        0.0733
     10 N         -10.2453  -18.3426   22.6563 N.3     1  UNL1       -0.2739
     11 C         -11.3965  -19.0632   22.0194 C.3     1  UNL1        0.0720
     12 C         -11.2539  -19.6320   20.6388 C.3     1  UNL1        0.0174
     13 C          -9.9602  -19.4802   19.8950 C.3     1  UNL1        0.0028
     14 C          -8.8090  -18.7596   20.5319 C.3     1  UNL1        0.0160
     15 C          -8.9516  -18.1908   21.9125 C.3     1  UNL1        0.0588
     16 C          -8.0855  -16.3327   25.3107 C.3     1  UNL1        0.0588
     17 C          -8.2281  -15.7639   26.6913 C.3     1  UNL1        0.0160
@<TRIPOS>BOND
     1     1     2    1
     2     2     3    1
     3     3     4    1
     4     4     5    1
     5     6     5    1
     6     6     7    1
     7     7     8    1
     8     8     9    1
     9     9    10    1
    10    10    11    1
    11    11    12    1
    12    12    13    1
    13    13    14    1
    14    15    14    1
    15     8    16    1
    16    16    17    1
    17    17     1    1
    18    16     4    1
    19    15     6    1
    20    15    10    1
@<TRIPOS>MOLECULE
*****
 17 20 0 0 0
SMALL
GASTEIGER

@<TRIPOS>ATOM
      1 C         -10.0961  -19.3736   19.7547 C.3     1  UNL1        0.0028
      2 C         -11.4051  -19.4608   20.4820 C.3     1  UNL1        0.0174
      3 C         -11.5378  -18.8818   21.8594 C.3     1  UNL1        0.0720
      4 N         -10.3616  -18.2155   22.5094 N.3     1  UNL1       -0.2739
      5 C         -10.4943  -17.6365   23.8867 C.3     1  UNL1        0.0733
      6 C          -9.3181  -16.9702   24.5368 C.3     1  UNL1        0.0307
      7 C          -8.0091  -16.8830   23.8095 C.3     1  UNL1        0.0055
      8 C          -7.8763  -17.4620   22.4321 C.3     1  UNL1        0.0307
      9 C          -6.7001  -16.7958   23.0822 C.3     1  UNL1        0.0733
     10 N          -6.8329  -16.2167   24.4595 N.3     1  UNL1       -0.2739
     11 C          -5.6566  -15.5504   25.1095 C.3     1  UNL1        0.0720
     12 C          -5.7893  -14.9714   26.4869 C.3     1  UNL1        0.0174
     13 C          -7.0983  -15.0586   27.2142 C.3     1  UNL1        0.0028
     14 C          -8.2745  -15.7249   26.5641 C.3     1  UNL1        0.0160
     15 C          -8.1418  -16.3039   25.1868 C.3     1  UNL1        0.0588
     16 C          -9.0526  -18.1283   21.7821 C.3     1  UNL1        0.0588
     17 C          -8.9199  -18.7074   20.4047 C.3     1  UNL1        0.0160
@<TRIPOS>BOND
     1     1     2    1
     2     2     3    1
     3     3     4    1
     4     4     5    1
     5     6     5    1
     6     6     7    1
     7     7     8    1
     8     8     9    1
     9     9    10    1
    10    10    11    1
    11    11    12    1
    12    12    13    1
    13    13    14    1
    14    15    14    1
    15     8    16    1
    16    16    17    1
    17    17     1    1
    18    16     4    1
    19    15     6    1
    20    15    10    1
@<TRIPOS>MOLECULE
*****
 17 20 0 0 0
SMALL
GASTEIGER

@<TRIPOS>ATOM
      1 C          -5.4957  -15.0575   26.0838 C.3     1  UNL1        0.0028
      2 C          -6.6077  -15.0648   27.0904 C.3     1  UNL1        0.0174
      3 C          -7.9081  -15.7386   26.7666 C.3     1  UNL1        0.0720
      4 N          -8.0965  -16.4051   25.4361 N.3     1  UNL1       -0.2739
      5 C          -9.3970  -17.0790   25.1123 C.3     1  UNL1        0.0733
      6 C          -9.5854  -17.7455   23.7818 C.3     1  UNL1        0.0307
      7 C          -8.4733  -17.7382   22.7751 C.3     1  UNL1        0.0055
      8 C          -7.1729  -17.0643   23.0989 C.3     1  UNL1        0.0307
      9 C          -7.3613  -17.7308   21.7684 C.3     1  UNL1        0.0733
     10 N          -8.6617  -18.4047   21.4446 N.3     1  UNL1       -0.2739
     11 C          -8.8501  -19.0712   20.1140 C.3     1  UNL1        0.0720
     12 C         -10.1505  -19.7451   19.7902 C.3     1  UNL1        0.0174
     13 C         -11.2626  -19.7524   20.7969 C.3     1  UNL1        0.0028
     14 C         -11.0742  -19.0859   22.1274 C.3     1  UNL1        0.0160
     15 C          -9.7737  -18.4120   22.4512 C.3     1  UNL1        0.0588
     16 C          -6.9845  -16.3978   24.4295 C.3     1  UNL1        0.0588
     17 C          -5.6841  -15.7240   24.7533 C.3     1  UNL1        0.0160
@<TRIPOS>BOND
     1     1     2    1
     2     2     3    1
     3     3     4    1
     4     4     5    1
     5     6     5    1
     6     6     7    1
     7     7     8    1
     8     8     9    1
     9     9    10    1
    10    10    11    1
    11    11    12    1
    12    12    13    1
    13    13    14    1
    14    15    14    1
    15     8    16    1
    16    16    17    1
    17    17     1    1
    18    16     4    1
    19    15     6    1
    20    15    10    1
@<TRIPOS>MOLECULE
*****
 17 20 0 0 0
SMALL
GASTEIGER

@<TRIPOS>ATOM
      1 C         -12.7562  -17.7752   21.6377 C.3     1  UNL1        0.0028
      2 C         -11.9752  -18.3204   20.4789 C.3     1  UNL1        0.0174
      3 C         -10.4770  -18.2482   20.4838 C.3     1  UNL1        0.0720
      4 N          -9.7597  -17.6308   21.6475 N.3     1  UNL1       -0.2739
      5 C          -8.2614  -17.5586   21.6524 C.3     1  UNL1        0.0733
      6 C          -7.5441  -16.9412   22.8161 C.3     1  UNL1        0.0307
      7 C          -8.3250  -16.3960   23.9749 C.3     1  UNL1        0.0055
      8 C          -9.8233  -16.4682   23.9700 C.3     1  UNL1        0.0307
      9 C          -9.1060  -15.8508   25.1337 C.3     1  UNL1        0.0733
     10 N          -7.6077  -15.7786   25.1386 N.3     1  UNL1       -0.2739
     11 C          -6.8904  -15.1612   26.3024 C.3     1  UNL1        0.0720
     12 C          -5.3921  -15.0890   26.3073 C.3     1  UNL1        0.0174
     13 C          -4.6112  -15.6342   25.1484 C.3     1  UNL1        0.0028
     14 C          -5.3285  -16.2516   23.9847 C.3     1  UNL1        0.0160
     15 C          -6.8268  -16.3238   23.9798 C.3     1  UNL1        0.0588
     16 C         -10.5406  -17.0856   22.8063 C.3     1  UNL1        0.0588
     17 C         -12.0388  -17.1578   22.8014 C.3     1  UNL1        0.0160
@<TRIPOS>BOND
     1     1     2    1
     2     2     3    1
     3     3     4    1
     4     4     5    1
     5     6     5    1
     6     6     7    1
     7     7     8    1
     8     8     9    1
     9     9    10    1
    10    10    11    1
    11    11    12    1
    12    12    13    1
    13    13    14    1
    14    15    14    1
    15     8    16    1
    16    16    17    1
    17    17     1    1
    18    16     4    1
    19    15     6    1
    20    15    10    1
@<TRIPOS>MOLECULE
*****
 17 20 0 0 0
SMALL
GASTEIGER

@<TRIPOS>ATOM
      1 C         -18.6198   -8.2588   19.5626 C.3     1  UNL1        0.0028
      2 C         -18.3462   -9.5331   18.8202 C.3     1  UNL1        0.0174
      3 C         -16.9727   -9.8087   18.2841 C.3     1  UNL1        0.0720
      4 N         -15.8727   -8.8099   18.4904 N.3     1  UNL1       -0.2739
      5 C         -14.4992   -9.0855   17.9543 C.3     1  UNL1        0.0733
      6 C         -13.3992   -8.0867   18.1606 C.3     1  UNL1        0.0307
      7 C         -13.6728   -6.8123   18.9030 C.3     1  UNL1        0.0055
      8 C         -15.0464   -6.5368   19.4391 C.3     1  UNL1        0.0307
      9 C         -13.9464   -5.5380   19.6454 C.3     1  UNL1        0.0733
     10 N         -12.5729   -5.8136   19.1093 N.3     1  UNL1       -0.2739
     11 C         -11.4729   -4.8147   19.3156 C.3     1  UNL1        0.0720
     12 C         -10.0994   -5.0903   18.7795 C.3     1  UNL1        0.0174
     13 C          -9.8258   -6.3647   18.0370 C.3     1  UNL1        0.0028
     14 C         -10.9257   -7.3635   17.8308 C.3     1  UNL1        0.0160
     15 C         -12.2993   -7.0879   18.3669 C.3     1  UNL1        0.0588
     16 C         -16.1463   -7.5356   19.2328 C.3     1  UNL1        0.0588
     17 C         -17.5199   -7.2600   19.7689 C.3     1  UNL1        0.0160
@<TRIPOS>BOND
     1     1     2    1
     2     2     3    1
     3     3     4    1
     4     4     5    1
     5     6     5    1
     6     6     7    1
     7     7     8    1
     8     8     9    1
     9     9    10    1
    10    10    11    1
    11    11    12    1
    12    12    13    1
    13    13    14    1
    14    15    14    1
    15     8    16    1
    16    16    17    1
    17    17     1    1
    18    16     4    1
    19    15     6    1
    20    15    10    1
