@<TRIPOS>MOLECULE
*****
 33 35 0 0 0
SMALL
GASTEIGER

@<TRIPOS>ATOM
      1 N          -8.6652  -19.5939   20.6352 N.am    1  UNL1        0.0010
      2 C          -7.4908  -18.8655   21.2186 C.2     1  UNL1        0.3902
      3 O         -10.0679  -18.6461   19.3387 O.2     1  UNL1       -0.2483
      4 C          -9.8242  -18.8226   20.0769 C.2     1  UNL1        0.3418
      5 C         -10.8212  -18.1918   21.0032 C.ar    1  UNL1        0.0736
      6 C         -11.5786  -16.9712   20.5713 C.ar    1  UNL1        0.0062
      7 C         -12.5756  -16.3404   21.4976 C.ar    1  UNL1        0.0011
      8 C         -12.8152  -16.9302   22.8558 C.ar    1  UNL1        0.0114
      9 C         -12.0579  -18.1508   23.2877 C.ar    1  UNL1        0.0579
     10 CL        -12.2976  -18.7406   24.6459 Cl      1  UNL1       -0.0822
     11 C         -11.0609  -18.7816   22.3614 C.ar    1  UNL1        0.0175
     12 N          -6.3318  -19.6368   21.7769 N.pl3   1  UNL1       -0.2434
     13 H          -6.4887  -20.4798   22.2606 H       1  UNL1        0.2647
     14 C          -4.9336  -19.1237   21.5983 C.ar    1  UNL1        0.1197
     15 C          -4.1471  -18.6599   22.7883 C.ar    1  UNL1        0.0631
     16 C          -2.7490  -18.1468   22.6096 C.ar    1  UNL1        0.1438
     17 F          -1.9624  -17.6829   23.7997 F       1  UNL1       -0.2040
     18 C          -2.1374  -18.0975   21.2408 C.ar    1  UNL1        0.0412
     19 C          -2.9239  -18.5613   20.0508 C.ar    1  UNL1        0.0627
     20 CL         -2.3123  -18.5121   18.6820 Cl      1  UNL1       -0.0821
     21 C          -4.3220  -19.0744   20.2295 C.ar    1  UNL1        0.0449
     22 N          -7.4756  -17.3658   21.2438 N.pl3   1  UNL1       -0.2286
     23 H          -7.3940  -16.8602   20.4030 H       1  UNL1        0.2662
     24 C          -7.5846  -16.6364   22.5501 C.ar    1  UNL1        0.1970
     25 C          -8.0651  -17.2175   23.8468 C.ar    1  UNL1        0.0781
     26 C          -8.0098  -16.1382   24.8871 C.ar    1  UNL1        0.1763
     27 N          -7.4951  -14.8901   24.2332 N.ar    1  UNL1       -0.1664
     28 N          -7.2324  -15.1981   22.7889 N.ar    1  UNL1       -0.2486
     29 H          -6.8890  -14.5670   22.1158 H       1  UNL1        0.1918
     30 C          -8.4006  -16.2818   26.3281 C.3     1  UNL1        0.4366
     31 F          -8.7913  -16.4253   27.7692 F       1  UNL1       -0.1643
     32 F          -9.2211  -17.4898   25.9853 F       1  UNL1       -0.1643
     33 F          -7.5801  -15.0738   26.6710 F       1  UNL1       -0.1643
@<TRIPOS>BOND
     1     3     4    2
     2     4     1    1
     3     1     2    2
     4     2    12    1
     5    12    14    1
     6    14    15   ar
     7    15    16   ar
     8    16    17    1
     9    16    18   ar
    10    18    19   ar
    11    19    20    1
    12    19    21   ar
    13     2    22    1
    14    22    24    1
    15    24    25   ar
    16    25    26   ar
    17    26    30    1
    18    30    31    1
    19    30    32    1
    20    30    33    1
    21    26    27   ar
    22    27    28   ar
    23     4     5    1
    24     5     6   ar
    25     6     7   ar
    26     7     8   ar
    27     8     9   ar
    28     9    10    1
    29     9    11   ar
    30    21    14   ar
    31    28    24   ar
    32    11     5   ar
    33    12    13    1
    34    22    23    1
    35    28    29    1
@<TRIPOS>MOLECULE
*****
 33 35 0 0 0
SMALL
GASTEIGER

@<TRIPOS>ATOM
      1 N          -7.4202  -17.3207   21.8274 N.am    1  UNL1        0.0010
      2 C          -8.5280  -16.3121   21.9035 C.2     1  UNL1        0.3902
      3 O          -8.1283  -18.8231   20.4902 O.2     1  UNL1       -0.2483
      4 C          -7.5240  -18.4786   20.8796 C.2     1  UNL1        0.3418
      5 C          -6.2937  -19.2457   20.4953 C.ar    1  UNL1        0.0736
      6 C          -6.2988  -20.7450   20.5441 C.ar    1  UNL1        0.0062
      7 C          -5.0685  -21.5121   20.1598 C.ar    1  UNL1        0.0011
      8 C          -3.8330  -20.7801   19.7265 C.ar    1  UNL1        0.0114
      9 C          -3.8278  -19.2809   19.6776 C.ar    1  UNL1        0.0579
     10 CL         -2.5924  -18.5489   19.2443 Cl      1  UNL1       -0.0822
     11 C          -5.0582  -18.5137   20.0620 C.ar    1  UNL1        0.0175
     12 N          -8.4242  -15.1541   22.8512 N.pl3   1  UNL1       -0.2434
     13 H          -8.7552  -14.2668   22.5824 H       1  UNL1        0.2647
     14 C          -7.8161  -15.3481   24.2087 C.ar    1  UNL1        0.1197
     15 C          -6.3804  -14.9843   24.4463 C.ar    1  UNL1        0.0631
     16 C          -5.7724  -15.1783   25.8037 C.ar    1  UNL1        0.1438
     17 F          -4.3367  -14.8144   26.0414 F       1  UNL1       -0.2040
     18 C          -6.6000  -15.7361   26.9235 C.ar    1  UNL1        0.0412
     19 C          -8.0356  -16.1000   26.6859 C.ar    1  UNL1        0.0627
     20 CL         -8.8632  -16.6579   27.8057 Cl      1  UNL1       -0.0821
     21 C          -8.6437  -15.9060   25.3285 C.ar    1  UNL1        0.0449
     22 N          -9.7395  -16.4616   21.0317 N.pl3   1  UNL1       -0.2286
     23 H          -9.7002  -16.1960   20.0845 H       1  UNL1        0.2662
     24 C         -11.0109  -17.0156   21.6032 C.ar    1  UNL1        0.1970
     25 C         -11.2528  -17.3631   23.0423 C.ar    1  UNL1        0.0781
     26 C         -12.6551  -17.8817   23.1645 C.ar    1  UNL1        0.1763
     27 N         -13.2797  -17.8547   21.8009 N.ar    1  UNL1       -0.1664
     28 N         -12.2636  -17.3195   20.8361 N.ar    1  UNL1       -0.2486
     29 H         -12.3956  -17.1903   19.8691 H       1  UNL1        0.1918
     30 C         -13.3165  -18.3458   24.4282 C.3     1  UNL1        0.4366
     31 F         -13.9779  -18.8099   25.6920 F       1  UNL1       -0.1643
     32 F         -14.6582  -18.0027   23.8520 F       1  UNL1       -0.1643
     33 F         -11.9748  -18.6889   25.0045 F       1  UNL1       -0.1643
@<TRIPOS>BOND
     1     3     4    2
     2     4     1    1
     3     1     2    2
     4     2    12    1
     5    12    14    1
     6    14    15   ar
     7    15    16   ar
     8    16    17    1
     9    16    18   ar
    10    18    19   ar
    11    19    20    1
    12    19    21   ar
    13     2    22    1
    14    22    24    1
    15    24    25   ar
    16    25    26   ar
    17    26    30    1
    18    30    31    1
    19    30    32    1
    20    30    33    1
    21    26    27   ar
    22    27    28   ar
    23     4     5    1
    24     5     6   ar
    25     6     7   ar
    26     7     8   ar
    27     8     9   ar
    28     9    10    1
    29     9    11   ar
    30    21    14   ar
    31    28    24   ar
    32    11     5   ar
    33    12    13    1
    34    22    23    1
    35    28    29    1
@<TRIPOS>MOLECULE
*****
 33 35 0 0 0
SMALL
GASTEIGER

@<TRIPOS>ATOM
      1 N          -8.0726  -17.3942   22.7335 N.am    1  UNL1        0.0010
      2 C          -8.1323  -18.8080   22.2358 C.2     1  UNL1        0.3902
      3 O          -6.0441  -16.7437   22.8267 O.2     1  UNL1       -0.2483
      4 C          -6.7624  -16.8063   23.1667 C.2     1  UNL1        0.3418
      5 C          -6.6388  -16.1623   24.5157 C.ar    1  UNL1        0.0736
      6 C          -5.3302  -15.5688   24.9464 C.ar    1  UNL1        0.0062
      7 C          -5.2066  -14.9248   26.2954 C.ar    1  UNL1        0.0011
      8 C          -6.3915  -14.8742   27.2138 C.ar    1  UNL1        0.0114
      9 C          -7.7001  -15.4676   26.7831 C.ar    1  UNL1        0.0579
     10 CL         -8.8850  -15.4170   27.7015 Cl      1  UNL1       -0.0822
     11 C          -7.8237  -16.1117   25.4340 C.ar    1  UNL1        0.0175
     12 N          -9.4425  -19.3959   21.8026 N.pl3   1  UNL1       -0.2434
     13 H          -9.4904  -20.3383   21.5217 H       1  UNL1        0.2647
     14 C         -10.6800  -18.5480   21.7975 C.ar    1  UNL1        0.1197
     15 C         -10.9121  -17.5667   20.6872 C.ar    1  UNL1        0.0631
     16 C         -12.1495  -16.7188   20.6821 C.ar    1  UNL1        0.1438
     17 F         -12.3817  -15.7374   19.5717 F       1  UNL1       -0.2040
     18 C         -13.1547  -16.8524   21.7874 C.ar    1  UNL1        0.0412
     19 C         -12.9226  -17.8338   22.8977 C.ar    1  UNL1        0.0627
     20 CL        -13.9278  -17.9674   24.0030 Cl      1  UNL1       -0.0821
     21 C         -11.6852  -18.6816   22.9028 C.ar    1  UNL1        0.0449
     22 N          -6.8818  -19.6338   22.1712 N.pl3   1  UNL1       -0.2286
     23 H          -6.7900  -20.4333   22.7383 H       1  UNL1        0.2662
     24 C          -5.7711  -19.2415   21.2424 C.ar    1  UNL1        0.1970
     25 C          -4.3064  -19.4664   21.4752 C.ar    1  UNL1        0.0781
     26 C          -3.5601  -18.9193   20.2945 C.ar    1  UNL1        0.1763
     27 N          -4.5636  -18.3563   19.3322 N.ar    1  UNL1       -0.1664
     28 N          -5.9300  -18.5554   19.9181 N.ar    1  UNL1       -0.2486
     29 H          -6.7817  -18.2836   19.5057 H       1  UNL1        0.1918
     30 C          -2.0717  -18.9329   20.1089 C.3     1  UNL1        0.4366
     31 F          -0.5833  -18.9464   19.9232 F       1  UNL1       -0.1643
     32 F          -2.2421  -18.4298   18.7061 F       1  UNL1       -0.1643
     33 F          -1.9013  -19.4360   21.5116 F       1  UNL1       -0.1643
@<TRIPOS>BOND
     1     3     4    2
     2     4     1    1
     3     1     2    2
     4     2    12    1
     5    12    14    1
     6    14    15   ar
     7    15    16   ar
     8    16    17    1
     9    16    18   ar
    10    18    19   ar
    11    19    20    1
    12    19    21   ar
    13     2    22    1
    14    22    24    1
    15    24    25   ar
    16    25    26   ar
    17    26    30    1
    18    30    31    1
    19    30    32    1
    20    30    33    1
    21    26    27   ar
    22    27    28   ar
    23     4     5    1
    24     5     6   ar
    25     6     7   ar
    26     7     8   ar
    27     8     9   ar
    28     9    10    1
    29     9    11   ar
    30    21    14   ar
    31    28    24   ar
    32    11     5   ar
    33    12    13    1
    34    22    23    1
    35    28    29    1
@<TRIPOS>MOLECULE
*****
 33 35 0 0 0
SMALL
GASTEIGER

@<TRIPOS>ATOM
      1 N          -9.3889  -15.1325   21.2183 N.am    1  UNL1        0.0010
      2 C          -8.2755  -15.7913   21.9776 C.2     1  UNL1        0.3902
      3 O         -10.8434  -15.8740   19.8467 O.2     1  UNL1       -0.2483
      4 C         -10.4121  -15.9701   20.5102 C.2     1  UNL1        0.3418
      5 C         -10.8026  -17.3070   21.0672 C.ar    1  UNL1        0.0736
      6 C         -10.6164  -18.5463   20.2428 C.ar    1  UNL1        0.0062
      7 C         -11.0069  -19.8832   20.7997 C.ar    1  UNL1        0.0011
      8 C         -11.5834  -19.9809   22.1810 C.ar    1  UNL1        0.0114
      9 C         -11.7696  -18.7416   23.0054 C.ar    1  UNL1        0.0579
     10 CL        -12.3462  -18.8393   24.3867 Cl      1  UNL1       -0.0822
     11 C         -11.3792  -17.4046   22.4485 C.ar    1  UNL1        0.0175
     12 N          -7.2523  -14.9538   22.6856 N.pl3   1  UNL1       -0.2434
     13 H          -6.7881  -14.2317   22.2035 H       1  UNL1        0.2647
     14 C          -6.9363  -15.2163   24.1283 C.ar    1  UNL1        0.1197
     15 C          -5.5667  -15.6836   24.5231 C.ar    1  UNL1        0.0631
     16 C          -5.2508  -15.9461   25.9657 C.ar    1  UNL1        0.1438
     17 F          -3.8812  -16.4135   26.3606 F       1  UNL1       -0.2040
     18 C          -6.3044  -15.7412   27.0136 C.ar    1  UNL1        0.0412
     19 C          -7.6739  -15.2739   26.6188 C.ar    1  UNL1        0.0627
     20 CL         -8.7275  -15.0690   27.6667 Cl      1  UNL1       -0.0821
     21 C          -7.9898  -15.0114   25.1762 C.ar    1  UNL1        0.0449
     22 N          -8.1854  -17.2878   22.0286 N.pl3   1  UNL1       -0.2286
     23 H          -8.9146  -17.8113   22.4329 H       1  UNL1        0.2662
     24 C          -6.9842  -17.9865   21.4638 C.ar    1  UNL1        0.1970
     25 C          -5.7631  -18.3998   22.2306 C.ar    1  UNL1        0.0781
     26 C          -4.8175  -19.0634   21.2737 C.ar    1  UNL1        0.1763
     27 N          -5.4543  -19.0601   19.9156 N.ar    1  UNL1       -0.1664
     28 N          -6.7934  -18.3946   20.0331 N.ar    1  UNL1       -0.2486
     29 H          -7.4345  -18.2509   19.2999 H       1  UNL1        0.1918
     30 C          -3.4715  -19.6306   21.6151 C.3     1  UNL1        0.4366
     31 F          -2.1254  -20.1978   21.9564 F       1  UNL1       -0.1643
     32 F          -3.4582  -20.3807   20.3162 F       1  UNL1       -0.1643
     33 F          -3.4847  -18.8804   22.9139 F       1  UNL1       -0.1643
@<TRIPOS>BOND
     1     3     4    2
     2     4     1    1
     3     1     2    2
     4     2    12    1
     5    12    14    1
     6    14    15   ar
     7    15    16   ar
     8    16    17    1
     9    16    18   ar
    10    18    19   ar
    11    19    20    1
    12    19    21   ar
    13     2    22    1
    14    22    24    1
    15    24    25   ar
    16    25    26   ar
    17    26    30    1
    18    30    31    1
    19    30    32    1
    20    30    33    1
    21    26    27   ar
    22    27    28   ar
    23     4     5    1
    24     5     6   ar
    25     6     7   ar
    26     7     8   ar
    27     8     9   ar
    28     9    10    1
    29     9    11   ar
    30    21    14   ar
    31    28    24   ar
    32    11     5   ar
    33    12    13    1
    34    22    23    1
    35    28    29    1
@<TRIPOS>MOLECULE
*****
 33 35 0 0 0
SMALL
GASTEIGER

@<TRIPOS>ATOM
      1 N          -7.5955  -17.3255   22.3971 N.am    1  UNL1        0.0010
      2 C          -7.7441  -18.7706   22.0234 C.2     1  UNL1        0.3902
      3 O          -5.5806  -16.8301   22.8889 O.2     1  UNL1       -0.2483
      4 C          -6.3516  -16.8542   23.0903 C.2     1  UNL1        0.3418
      5 C          -6.4358  -16.2787   24.4729 C.ar    1  UNL1        0.0736
      6 C          -5.3344  -15.4001   24.9880 C.ar    1  UNL1        0.0062
      7 C          -5.4186  -14.8247   26.3706 C.ar    1  UNL1        0.0011
      8 C          -6.6040  -15.1278   27.2383 C.ar    1  UNL1        0.0114
      9 C          -7.7053  -16.0063   26.7233 C.ar    1  UNL1        0.0579
     10 CL         -8.8908  -16.3094   27.5909 Cl      1  UNL1       -0.0822
     11 C          -7.6212  -16.5818   25.3406 C.ar    1  UNL1        0.0175
     12 N          -8.9880  -19.2419   21.3302 N.pl3   1  UNL1       -0.2434
     13 H          -8.9873  -20.0996   20.8469 H       1  UNL1        0.2647
     14 C         -10.2331  -18.4064   21.3735 C.ar    1  UNL1        0.1197
     15 C         -11.1932  -18.5499   22.5169 C.ar    1  UNL1        0.0631
     16 C         -12.4382  -17.7144   22.5601 C.ar    1  UNL1        0.1438
     17 F         -13.3984  -17.8578   23.7036 F       1  UNL1       -0.2040
     18 C         -12.7231  -16.7355   21.4599 C.ar    1  UNL1        0.0412
     19 C         -11.7630  -16.5920   20.3164 C.ar    1  UNL1        0.0627
     20 CL        -12.0479  -15.6131   19.2161 Cl      1  UNL1       -0.0821
     21 C         -10.5180  -17.4275   20.2732 C.ar    1  UNL1        0.0449
     22 N          -6.6487  -19.7443   22.3428 N.pl3   1  UNL1       -0.2286
     23 H          -6.8512  -20.5645   22.8483 H       1  UNL1        0.2662
     24 C          -5.2449  -19.4684   21.8919 C.ar    1  UNL1        0.1970
     25 C          -4.8271  -19.0583   20.5109 C.ar    1  UNL1        0.0781
     26 C          -3.3364  -18.8906   20.5083 C.ar    1  UNL1        0.1763
     27 N          -2.8331  -19.1970   21.8878 N.ar    1  UNL1       -0.1664
     28 N          -4.0126  -19.5541   22.7428 N.ar    1  UNL1       -0.2486
     29 H          -3.9832  -19.8013   23.6953 H       1  UNL1        0.1918
     30 C          -2.4966  -18.4872   19.3327 C.3     1  UNL1        0.4366
     31 F          -1.6567  -18.0839   18.1572 F       1  UNL1       -0.1643
     32 F          -3.7128  -17.9287   18.6555 F       1  UNL1       -0.1643
     33 F          -1.2803  -19.0458   20.0100 F       1  UNL1       -0.1643
@<TRIPOS>BOND
     1     3     4    2
     2     4     1    1
     3     1     2    2
     4     2    12    1
     5    12    14    1
     6    14    15   ar
     7    15    16   ar
     8    16    17    1
     9    16    18   ar
    10    18    19   ar
    11    19    20    1
    12    19    21   ar
    13     2    22    1
    14    22    24    1
    15    24    25   ar
    16    25    26   ar
    17    26    30    1
    18    30    31    1
    19    30    32    1
    20    30    33    1
    21    26    27   ar
    22    27    28   ar
    23     4     5    1
    24     5     6   ar
    25     6     7   ar
    26     7     8   ar
    27     8     9   ar
    28     9    10    1
    29     9    11   ar
    30    21    14   ar
    31    28    24   ar
    32    11     5   ar
    33    12    13    1
    34    22    23    1
    35    28    29    1
@<TRIPOS>MOLECULE
*****
 33 35 0 0 0
SMALL
GASTEIGER

@<TRIPOS>ATOM
      1 N          -7.6964  -19.6838   21.9782 N.am    1  UNL1        0.0010
      2 C          -8.0933  -19.3795   20.5639 C.2     1  UNL1        0.3902
      3 O          -5.6329  -19.9070   22.4673 O.2     1  UNL1       -0.2483
      4 C          -6.2847  -19.4496   22.4279 C.2     1  UNL1        0.3418
      5 C          -5.8746  -18.1006   22.9395 C.ar    1  UNL1        0.0736
      6 C          -4.4206  -17.7737   23.1110 C.ar    1  UNL1        0.0062
      7 C          -4.0105  -16.4247   23.6227 C.ar    1  UNL1        0.0011
      8 C          -5.0542  -15.4024   23.9628 C.ar    1  UNL1        0.0114
      9 C          -6.5081  -15.7293   23.7914 C.ar    1  UNL1        0.0579
     10 CL         -7.5518  -14.7071   24.1315 Cl      1  UNL1       -0.0822
     11 C          -6.9183  -17.0784   23.2797 C.ar    1  UNL1        0.0175
     12 N          -9.5049  -19.6137   20.1143 N.pl3   1  UNL1       -0.2434
     13 H          -9.7205  -20.3955   19.5561 H       1  UNL1        0.2647
     14 C         -10.5883  -18.6566   20.5150 C.ar    1  UNL1        0.1197
     15 C         -10.9271  -17.4940   19.6298 C.ar    1  UNL1        0.0631
     16 C         -12.0104  -16.5370   20.0306 C.ar    1  UNL1        0.1438
     17 F         -12.3492  -15.3743   19.1454 F       1  UNL1       -0.2040
     18 C         -12.7548  -16.7426   21.3165 C.ar    1  UNL1        0.0412
     19 C         -12.4160  -17.9052   22.2016 C.ar    1  UNL1        0.0627
     20 CL        -13.1605  -18.1109   23.4875 Cl      1  UNL1       -0.0821
     21 C         -11.3327  -18.8622   21.8009 C.ar    1  UNL1        0.0449
     22 N          -7.0784  -18.8412   19.5995 N.pl3   1  UNL1       -0.2286
     23 H          -7.3467  -18.1814   18.9198 H       1  UNL1        0.2662
     24 C          -5.6546  -19.3081   19.6705 C.ar    1  UNL1        0.1970
     25 C          -4.4362  -18.4364   19.5958 C.ar    1  UNL1        0.0781
     26 C          -3.2279  -19.3182   19.7079 C.ar    1  UNL1        0.1763
     27 N          -3.6997  -20.7349   19.8518 N.ar    1  UNL1       -0.1664
     28 N          -5.1995  -20.7286   19.8288 N.ar    1  UNL1       -0.2486
     29 H          -5.7827  -21.5181   19.9042 H       1  UNL1        0.1918
     30 C          -1.7988  -18.8633   19.6808 C.3     1  UNL1        0.4366
     31 F          -0.3697  -18.4084   19.6536 F       1  UNL1       -0.1643
     32 F          -1.6390  -19.2798   21.1129 F       1  UNL1       -0.1643
     33 F          -1.9586  -18.4469   18.2486 F       1  UNL1       -0.1643
@<TRIPOS>BOND
     1     3     4    2
     2     4     1    1
     3     1     2    2
     4     2    12    1
     5    12    14    1
     6    14    15   ar
     7    15    16   ar
     8    16    17    1
     9    16    18   ar
    10    18    19   ar
    11    19    20    1
    12    19    21   ar
    13     2    22    1
    14    22    24    1
    15    24    25   ar
    16    25    26   ar
    17    26    30    1
    18    30    31    1
    19    30    32    1
    20    30    33    1
    21    26    27   ar
    22    27    28   ar
    23     4     5    1
    24     5     6   ar
    25     6     7   ar
    26     7     8   ar
    27     8     9   ar
    28     9    10    1
    29     9    11   ar
    30    21    14   ar
    31    28    24   ar
    32    11     5   ar
    33    12    13    1
    34    22    23    1
    35    28    29    1
@<TRIPOS>MOLECULE
*****
 33 35 0 0 0
SMALL
GASTEIGER

@<TRIPOS>ATOM
      1 N          -6.1107  -20.6589   21.9709 N.am    1  UNL1        0.0010
      2 C          -7.5545  -20.2537   21.9334 C.2     1  UNL1        0.3902
      3 O          -5.3124  -20.8277   20.0009 O.2     1  UNL1       -0.2483
      4 C          -5.2638  -20.5316   20.7394 C.2     1  UNL1        0.3418
      5 C          -4.0220  -19.6908   20.7670 C.ar    1  UNL1        0.0736
      6 C          -3.3274  -19.4212   22.0689 C.ar    1  UNL1        0.0062
      7 C          -2.0856  -18.5803   22.0964 C.ar    1  UNL1        0.0011
      8 C          -1.5382  -18.0091   20.8220 C.ar    1  UNL1        0.0114
      9 C          -2.2327  -18.2786   19.5201 C.ar    1  UNL1        0.0579
     10 CL         -1.6854  -17.7074   18.2458 Cl      1  UNL1       -0.0822
     11 C          -3.4746  -19.1195   19.4926 C.ar    1  UNL1        0.0175
     12 N          -8.4014  -20.3810   23.1648 N.pl3   1  UNL1       -0.2434
     13 H          -8.3500  -21.1954   23.7156 H       1  UNL1        0.2647
     14 C          -9.3267  -19.2674   23.5572 C.ar    1  UNL1        0.1197
     15 C         -10.8104  -19.4426   23.4228 C.ar    1  UNL1        0.0631
     16 C         -11.7356  -18.3290   23.8151 C.ar    1  UNL1        0.1438
     17 F         -13.2193  -18.5041   23.6807 F       1  UNL1       -0.2040
     18 C         -11.1771  -17.0404   24.3419 C.ar    1  UNL1        0.0412
     19 C          -9.6935  -16.8652   24.4763 C.ar    1  UNL1        0.0627
     20 CL         -9.1350  -15.5766   25.0031 Cl      1  UNL1       -0.0821
     21 C          -8.7683  -17.9788   24.0840 C.ar    1  UNL1        0.0449
     22 N          -8.1513  -19.7212   20.6644 N.pl3   1  UNL1       -0.2286
     23 H          -8.0422  -20.2192   19.8222 H       1  UNL1        0.2662
     24 C          -8.9144  -18.4298   20.6787 C.ar    1  UNL1        0.1970
     25 C         -10.3135  -18.2269   20.1774 C.ar    1  UNL1        0.0781
     26 C         -10.6762  -16.7863   20.3857 C.ar    1  UNL1        0.1763
     27 N          -9.5011  -16.0989   21.0156 N.ar    1  UNL1       -0.1664
     28 N          -8.4123  -17.1147   21.1967 N.ar    1  UNL1       -0.2486
     29 H          -7.5240  -16.9475   21.5870 H       1  UNL1        0.1918
     30 C         -11.9841  -16.1457   20.0269 C.3     1  UNL1        0.4366
     31 F         -13.2921  -15.5050   19.6682 F       1  UNL1       -0.1643
     32 F         -11.2750  -15.2335   19.0703 F       1  UNL1       -0.1643
     33 F         -12.6933  -17.0578   20.9835 F       1  UNL1       -0.1643
@<TRIPOS>BOND
     1     3     4    2
     2     4     1    1
     3     1     2    2
     4     2    12    1
     5    12    14    1
     6    14    15   ar
     7    15    16   ar
     8    16    17    1
     9    16    18   ar
    10    18    19   ar
    11    19    20    1
    12    19    21   ar
    13     2    22    1
    14    22    24    1
    15    24    25   ar
    16    25    26   ar
    17    26    30    1
    18    30    31    1
    19    30    32    1
    20    30    33    1
    21    26    27   ar
    22    27    28   ar
    23     4     5    1
    24     5     6   ar
    25     6     7   ar
    26     7     8   ar
    27     8     9   ar
    28     9    10    1
    29     9    11   ar
    30    21    14   ar
    31    28    24   ar
    32    11     5   ar
    33    12    13    1
    34    22    23    1
    35    28    29    1
@<TRIPOS>MOLECULE
*****
 33 35 0 0 0
SMALL
GASTEIGER

@<TRIPOS>ATOM
      1 N         -14.6359   -8.9302   17.2255 N.am    1  UNL1        0.0010
      2 C         -13.7769   -7.8436   17.8013 C.2     1  UNL1        0.3902
      3 O         -15.6448  -10.3691   18.4331 O.2     1  UNL1       -0.2483
      4 C         -15.6242   -9.6464   18.0974 C.2     1  UNL1        0.3418
      5 C         -16.8983   -8.9661   18.5022 C.ar    1  UNL1        0.0736
      6 C         -17.3167   -8.9532   19.9427 C.ar    1  UNL1        0.0062
      7 C         -18.5908   -8.2729   20.3474 C.ar    1  UNL1        0.0011
      8 C         -19.4465   -7.6055   19.3119 C.ar    1  UNL1        0.0114
      9 C         -19.0281   -7.6184   17.8715 C.ar    1  UNL1        0.0579
     10 CL        -19.8837   -6.9510   16.8359 Cl      1  UNL1       -0.0822
     11 C         -17.7539   -8.2987   17.4666 C.ar    1  UNL1        0.0175
     12 N         -12.7886   -7.1274   16.9293 N.pl3   1  UNL1       -0.2434
     13 H         -12.8123   -7.2524   15.9531 H       1  UNL1        0.2647
     14 C         -11.7642   -6.2208   17.5448 C.ar    1  UNL1        0.1197
     15 C         -10.7291   -6.7809   18.4747 C.ar    1  UNL1        0.0631
     16 C          -9.7047   -5.8743   19.0901 C.ar    1  UNL1        0.1438
     17 F          -8.6695   -6.4344   20.0201 F       1  UNL1       -0.2040
     18 C          -9.7155   -4.4077   18.7756 C.ar    1  UNL1        0.0412
     19 C         -10.7506   -3.8477   17.8457 C.ar    1  UNL1        0.0627
     20 CL        -10.7613   -2.3811   17.5311 Cl      1  UNL1       -0.0821
     21 C         -11.7750   -4.7542   17.2303 C.ar    1  UNL1        0.0449
     22 N         -13.9062   -7.4732   19.2491 N.pl3   1  UNL1       -0.2286
     23 H         -13.6375   -8.1136   19.9469 H       1  UNL1        0.2662
     24 C         -14.4450   -6.1272   19.6337 C.ar    1  UNL1        0.1970
     25 C         -15.8303   -5.6211   19.3601 C.ar    1  UNL1        0.0781
     26 C         -15.9346   -4.2320   19.9167 C.ar    1  UNL1        0.1763
     27 N         -14.6137   -3.8797   20.5342 N.ar    1  UNL1       -0.1664
     28 N         -13.6931   -5.0510   20.3593 N.ar    1  UNL1       -0.2486
     29 H         -12.7594   -5.1041   20.6667 H       1  UNL1        0.1918
     30 C         -17.1468   -3.3501   19.8648 C.3     1  UNL1        0.4366
     31 F         -18.3591   -2.4682   19.8130 F       1  UNL1       -0.1643
     32 F         -16.2663   -2.1368   19.9160 F       1  UNL1       -0.1643
     33 F         -18.0273   -4.5634   19.8137 F       1  UNL1       -0.1643
@<TRIPOS>BOND
     1     3     4    2
     2     4     1    1
     3     1     2    2
     4     2    12    1
     5    12    14    1
     6    14    15   ar
     7    15    16   ar
     8    16    17    1
     9    16    18   ar
    10    18    19   ar
    11    19    20    1
    12    19    21   ar
    13     2    22    1
    14    22    24    1
    15    24    25   ar
    16    25    26   ar
    17    26    30    1
    18    30    31    1
    19    30    32    1
    20    30    33    1
    21    26    27   ar
    22    27    28   ar
    23     4     5    1
    24     5     6   ar
    25     6     7   ar
    26     7     8   ar
    27     8     9   ar
    28     9    10    1
    29     9    11   ar
    30    21    14   ar
    31    28    24   ar
    32    11     5   ar
    33    12    13    1
    34    22    23    1
    35    28    29    1
@<TRIPOS>MOLECULE
*****
 33 35 0 0 0
SMALL
GASTEIGER

@<TRIPOS>ATOM
      1 N          -9.5543  -15.5029   21.6499 N.am    1  UNL1        0.0010
      2 C          -8.2612  -16.1238   22.0889 C.2     1  UNL1        0.3902
      3 O         -11.0570  -16.5408   20.5494 O.2     1  UNL1       -0.2483
      4 C         -10.7058  -16.3749   21.2455 C.2     1  UNL1        0.3418
      5 C         -11.4489  -17.1643   22.2820 C.ar    1  UNL1        0.0736
      6 C         -12.9325  -16.9991   22.4296 C.ar    1  UNL1        0.0062
      7 C         -13.6756  -17.7886   23.4661 C.ar    1  UNL1        0.0011
      8 C         -12.9352  -18.7432   24.3552 C.ar    1  UNL1        0.0114
      9 C         -11.4517  -18.9084   24.2077 C.ar    1  UNL1        0.0579
     10 CL        -10.7113  -19.8631   25.0968 Cl      1  UNL1       -0.0822
     11 C         -10.7085  -18.1190   23.1711 C.ar    1  UNL1        0.0175
     12 N          -7.1097  -15.2518   22.4933 N.pl3   1  UNL1       -0.2434
     13 H          -6.8312  -14.5049   21.9155 H       1  UNL1        0.2647
     14 C          -6.3825  -15.5178   23.7780 C.ar    1  UNL1        0.1197
     15 C          -6.8767  -14.9132   25.0587 C.ar    1  UNL1        0.0631
     16 C          -6.1495  -15.1792   26.3433 C.ar    1  UNL1        0.1438
     17 F          -6.6437  -14.5746   27.6240 F       1  UNL1       -0.2040
     18 C          -4.9280  -16.0499   26.3473 C.ar    1  UNL1        0.0412
     19 C          -4.4338  -16.6545   25.0666 C.ar    1  UNL1        0.0627
     20 CL         -3.2123  -17.5251   25.0706 Cl      1  UNL1       -0.0821
     21 C          -5.1610  -16.3885   23.7820 C.ar    1  UNL1        0.0449
     22 N          -8.1198  -17.6167   22.1234 N.pl3   1  UNL1       -0.2286
     23 H          -8.7658  -18.1608   22.6293 H       1  UNL1        0.2662
     24 C          -6.9941  -18.2807   21.3871 C.ar    1  UNL1        0.1970
     25 C          -5.7157  -18.7779   21.9941 C.ar    1  UNL1        0.0781
     26 C          -4.8806  -19.3685   20.8967 C.ar    1  UNL1        0.1763
     27 N          -5.6431  -19.2362   19.6117 N.ar    1  UNL1       -0.1664
     28 N          -6.9492  -18.5639   19.9148 N.ar    1  UNL1       -0.2486
     29 H          -7.6534  -18.3467   19.2620 H       1  UNL1        0.1918
     30 C          -3.5218  -19.9834   21.0564 C.3     1  UNL1        0.4366
     31 F          -2.1630  -20.5983   21.2161 F       1  UNL1       -0.1643
     32 F          -3.7062  -20.7260   19.7663 F       1  UNL1       -0.1643
     33 F          -3.3374  -19.2408   22.3466 F       1  UNL1       -0.1643
@<TRIPOS>BOND
     1     3     4    2
     2     4     1    1
     3     1     2    2
     4     2    12    1
     5    12    14    1
     6    14    15   ar
     7    15    16   ar
     8    16    17    1
     9    16    18   ar
    10    18    19   ar
    11    19    20    1
    12    19    21   ar
    13     2    22    1
    14    22    24    1
    15    24    25   ar
    16    25    26   ar
    17    26    30    1
    18    30    31    1
    19    30    32    1
    20    30    33    1
    21    26    27   ar
    22    27    28   ar
    23     4     5    1
    24     5     6   ar
    25     6     7   ar
    26     7     8   ar
    27     8     9   ar
    28     9    10    1
    29     9    11   ar
    30    21    14   ar
    31    28    24   ar
    32    11     5   ar
    33    12    13    1
    34    22    23    1
    35    28    29    1
