@<TRIPOS>MOLECULE
*****
 25 28 0 0 0
SMALL
GASTEIGER

@<TRIPOS>ATOM
      1 N           7.4874   -5.5751   28.3866 N.3     1  UNL1       -0.2665
      2 C           7.1055   -6.3080   27.1348 C.3     1  UNL1        0.0899
      3 C           7.6292   -7.6915   26.8863 C.3     1  UNL1        0.0900
      4 N           8.5347   -8.3421   27.8897 N.3     1  UNL1       -0.2624
      5 C           8.9166   -7.6092   29.1415 C.3     1  UNL1        0.0900
      6 C           8.3930   -6.2257   29.3900 C.3     1  UNL1        0.0899
      7 C           6.9638   -4.1916   28.6350 C.3     1  UNL1        0.0992
      8 C           7.9724   -2.0584   32.4667 C.ar    1  UNL1       -0.0000
      9 C           6.7634   -2.9434   32.3969 C.ar    1  UNL1       -0.0003
     10 C           6.4272   -3.6544   31.1196 C.ar    1  UNL1       -0.0029
     11 C           7.3000   -3.4805   29.9123 C.ar    1  UNL1       -0.0061
     12 C           8.5091   -2.5955   29.9821 C.ar    1  UNL1       -0.0029
     13 C           8.8453   -1.8844   31.2594 C.ar    1  UNL1       -0.0003
     14 C           9.0583   -9.7256   27.6412 C.3     1  UNL1        0.1604
     15 C           8.1737  -10.9149   27.8713 C.ar    1  UNL1        0.2426
     16 N           8.6334  -12.3218   28.1144 N.ar    1  UNL1       -0.1099
     17 N           7.4179  -13.1826   28.2920 N.ar    1  UNL1       -0.1072
     18 C           6.2068  -12.3076   28.1586 C.ar    1  UNL1        0.2496
     19 O           6.6740  -10.9061   27.8986 O.2     1  UNL1       -0.4181
     20 C           4.7793  -12.7554   28.2663 C.ar    1  UNL1        0.0551
     21 C           4.2436  -13.7877   27.3189 C.ar    1  UNL1        0.0047
     22 C           2.8161  -14.2355   27.4266 C.ar    1  UNL1        0.0002
     23 C           1.9243  -13.6511   28.4817 C.ar    1  UNL1        0.0000
     24 C           2.4599  -12.6188   29.4290 C.ar    1  UNL1        0.0002
     25 C           3.8874  -12.1710   29.3213 C.ar    1  UNL1        0.0047
@<TRIPOS>BOND
     1     8     9   ar
     2     9    10   ar
     3    10    11   ar
     4    11     7    1
     5     7     1    1
     6     1     2    1
     7     2     3    1
     8     3     4    1
     9     4    14    1
    10    14    15    1
    11    15    16   ar
    12    16    17   ar
    13    17    18   ar
    14    18    20    1
    15    20    21   ar
    16    21    22   ar
    17    22    23   ar
    18    23    24   ar
    19    24    25   ar
    20    18    19   ar
    21     4     5    1
    22     5     6    1
    23    11    12   ar
    24    12    13   ar
    25    13     8   ar
    26     6     1    1
    27    19    15   ar
    28    25    20   ar
@<TRIPOS>MOLECULE
*****
 25 28 0 0 0
SMALL
GASTEIGER

@<TRIPOS>ATOM
      1 N          -4.8181  -19.6656   21.1561 N.3     1  UNL1       -0.2665
      2 C          -5.1619  -20.7162   20.1421 C.3     1  UNL1        0.0899
      3 C          -6.5302  -20.7470   19.5284 C.3     1  UNL1        0.0900
      4 N          -7.5548  -19.7272   19.9286 N.3     1  UNL1       -0.2624
      5 C          -7.2111  -18.6766   20.9425 C.3     1  UNL1        0.0900
      6 C          -5.8427  -18.6457   21.5563 C.3     1  UNL1        0.0899
      7 C          -3.4497  -19.6348   21.7697 C.3     1  UNL1        0.0992
      8 C          -0.4240  -16.6118   20.3711 C.ar    1  UNL1       -0.0000
      9 C          -0.4581  -17.9791   19.7552 C.ar    1  UNL1       -0.0003
     10 C          -1.4667  -18.9867   20.2214 C.ar    1  UNL1       -0.0029
     11 C          -2.4411  -18.6271   21.3035 C.ar    1  UNL1       -0.0061
     12 C          -2.4070  -17.2599   21.9194 C.ar    1  UNL1       -0.0029
     13 C          -1.3984  -16.2522   21.4532 C.ar    1  UNL1       -0.0003
     14 C          -8.9232  -19.7580   19.3149 C.3     1  UNL1        0.1604
     15 C         -10.0749  -19.1015   20.0166 C.ar    1  UNL1        0.2426
     16 N         -10.9595  -18.0316   19.4485 N.ar    1  UNL1       -0.1099
     17 N         -11.9755  -17.6684   20.4905 N.ar    1  UNL1       -0.1072
     18 C         -11.7189  -18.5139   21.7027 C.ar    1  UNL1        0.2496
     19 O         -10.5442  -19.3995   21.4098 O.2     1  UNL1       -0.4181
     20 C         -12.4998  -18.4797   22.9829 C.ar    1  UNL1        0.0551
     21 C         -11.8264  -18.8125   24.2813 C.ar    1  UNL1        0.0047
     22 C         -12.6073  -18.7783   25.5615 C.ar    1  UNL1        0.0002
     23 C         -14.0616  -18.4113   25.5434 C.ar    1  UNL1        0.0000
     24 C         -14.7350  -18.0785   24.2450 C.ar    1  UNL1        0.0002
     25 C         -13.9541  -18.1127   22.9648 C.ar    1  UNL1        0.0047
@<TRIPOS>BOND
     1     8     9   ar
     2     9    10   ar
     3    10    11   ar
     4    11     7    1
     5     7     1    1
     6     1     2    1
     7     2     3    1
     8     3     4    1
     9     4    14    1
    10    14    15    1
    11    15    16   ar
    12    16    17   ar
    13    17    18   ar
    14    18    20    1
    15    20    21   ar
    16    21    22   ar
    17    22    23   ar
    18    23    24   ar
    19    24    25   ar
    20    18    19   ar
    21     4     5    1
    22     5     6    1
    23    11    12   ar
    24    12    13   ar
    25    13     8   ar
    26     6     1    1
    27    19    15   ar
    28    25    20   ar
@<TRIPOS>MOLECULE
*****
 25 28 0 0 0
SMALL
GASTEIGER

@<TRIPOS>ATOM
      1 N         -13.1138   -1.9806   18.9647 N.3     1  UNL1       -0.2665
      2 C         -13.5688   -2.7691   20.1569 C.3     1  UNL1        0.0899
      3 C         -15.0339   -2.9631   20.4130 C.3     1  UNL1        0.0900
      4 N         -16.0441   -2.3687   19.4770 N.3     1  UNL1       -0.2624
      5 C         -15.5892   -1.5802   18.2849 C.3     1  UNL1        0.0900
      6 C         -14.1240   -1.3862   18.0287 C.3     1  UNL1        0.0899
      7 C         -11.6486   -1.7866   18.7085 C.3     1  UNL1        0.0992
      8 C          -9.1756   -5.1862   17.1033 C.ar    1  UNL1       -0.0000
      9 C          -9.8308   -5.3048   18.4474 C.ar    1  UNL1       -0.0003
     10 C         -10.6552   -4.1716   18.9824 C.ar    1  UNL1       -0.0029
     11 C         -10.8243   -2.9198   18.1734 C.ar    1  UNL1       -0.0061
     12 C         -10.1691   -2.8013   16.8294 C.ar    1  UNL1       -0.0029
     13 C          -9.3447   -3.9345   16.2943 C.ar    1  UNL1       -0.0003
     14 C         -17.5093   -2.5627   19.7332 C.3     1  UNL1        0.1604
     15 C         -18.0961   -3.9431   19.7232 C.ar    1  UNL1        0.2426
     16 N         -19.5033   -4.3056   20.0951 N.ar    1  UNL1       -0.1099
     17 N         -19.6556   -5.7899   19.9413 N.ar    1  UNL1       -0.1072
     18 C         -18.3425   -6.3448   19.4744 C.ar    1  UNL1        0.2496
     19 O         -17.3787   -5.2033   19.3396 O.2     1  UNL1       -0.4181
     20 C         -18.0455   -7.7876   19.1918 C.ar    1  UNL1        0.0551
     21 C         -18.7826   -8.5053   18.1003 C.ar    1  UNL1        0.0047
     22 C         -18.4855   -9.9482   17.8177 C.ar    1  UNL1        0.0002
     23 C         -17.4513  -10.6734   18.6268 C.ar    1  UNL1        0.0000
     24 C         -16.7142   -9.9557   19.7184 C.ar    1  UNL1        0.0002
     25 C         -17.0112   -8.5128   20.0009 C.ar    1  UNL1        0.0047
@<TRIPOS>BOND
     1     8     9   ar
     2     9    10   ar
     3    10    11   ar
     4    11     7    1
     5     7     1    1
     6     1     2    1
     7     2     3    1
     8     3     4    1
     9     4    14    1
    10    14    15    1
    11    15    16   ar
    12    16    17   ar
    13    17    18   ar
    14    18    20    1
    15    20    21   ar
    16    21    22   ar
    17    22    23   ar
    18    23    24   ar
    19    24    25   ar
    20    18    19   ar
    21     4     5    1
    22     5     6    1
    23    11    12   ar
    24    12    13   ar
    25    13     8   ar
    26     6     1    1
    27    19    15   ar
    28    25    20   ar
@<TRIPOS>MOLECULE
*****
 25 28 0 0 0
SMALL
GASTEIGER

@<TRIPOS>ATOM
      1 N         -12.7362   -3.5354   19.0438 N.3     1  UNL1       -0.2665
      2 C         -13.6009   -4.1500   20.1043 C.3     1  UNL1        0.0899
      3 C         -15.0511   -3.7784   20.1982 C.3     1  UNL1        0.0900
      4 N         -15.6366   -2.7921   19.2315 N.3     1  UNL1       -0.2624
      5 C         -14.7720   -2.1774   18.1711 C.3     1  UNL1        0.0900
      6 C         -13.3218   -2.5491   18.0772 C.3     1  UNL1        0.0899
      7 C         -11.2860   -3.9070   18.9500 C.3     1  UNL1        0.0992
      8 C         -10.1065   -8.1065   17.8441 C.ar    1  UNL1       -0.0000
      9 C         -11.2902   -7.4620   17.1858 C.ar    1  UNL1       -0.0003
     10 C         -11.6834   -6.0621   17.5545 C.ar    1  UNL1       -0.0029
     11 C         -10.8929   -5.3069   18.5814 C.ar    1  UNL1       -0.0061
     12 C          -9.7092   -5.9514   19.2397 C.ar    1  UNL1       -0.0029
     13 C          -9.3160   -7.3512   18.8711 C.ar    1  UNL1       -0.0003
     14 C         -17.0869   -2.4205   19.3254 C.3     1  UNL1        0.1604
     15 C         -17.4977   -1.1843   20.0691 C.ar    1  UNL1        0.2426
     16 N         -18.8803   -0.8675   20.5570 N.ar    1  UNL1       -0.1099
     17 N         -18.8352    0.4646   21.2450 N.ar    1  UNL1       -0.1072
     18 C         -17.4247    0.9712   21.1823 C.ar    1  UNL1        0.2496
     19 O         -16.5981   -0.0480   20.4556 O.2     1  UNL1       -0.4181
     20 C         -16.9280    2.2689   21.7472 C.ar    1  UNL1        0.0551
     21 C         -16.1863    3.2336   20.8702 C.ar    1  UNL1        0.0047
     22 C         -15.6896    4.5314   21.4350 C.ar    1  UNL1        0.0002
     23 C         -15.9347    4.8645   22.8770 C.ar    1  UNL1        0.0000
     24 C         -16.6764    3.8997   23.7540 C.ar    1  UNL1        0.0002
     25 C         -17.1731    2.6020   23.1891 C.ar    1  UNL1        0.0047
@<TRIPOS>BOND
     1     8     9   ar
     2     9    10   ar
     3    10    11   ar
     4    11     7    1
     5     7     1    1
     6     1     2    1
     7     2     3    1
     8     3     4    1
     9     4    14    1
    10    14    15    1
    11    15    16   ar
    12    16    17   ar
    13    17    18   ar
    14    18    20    1
    15    20    21   ar
    16    21    22   ar
    17    22    23   ar
    18    23    24   ar
    19    24    25   ar
    20    18    19   ar
    21     4     5    1
    22     5     6    1
    23    11    12   ar
    24    12    13   ar
    25    13     8   ar
    26     6     1    1
    27    19    15   ar
    28    25    20   ar
@<TRIPOS>MOLECULE
*****
 25 28 0 0 0
SMALL
GASTEIGER

@<TRIPOS>ATOM
      1 N           7.8204   -5.4570   23.3648 N.3     1  UNL1       -0.2665
      2 C           8.8479   -5.7350   22.3079 C.3     1  UNL1        0.0899
      3 C           8.9476   -4.8433   21.1058 C.3     1  UNL1        0.0900
      4 N           8.0198   -3.6736   20.9606 N.3     1  UNL1       -0.2624
      5 C           6.9923   -3.3956   22.0175 C.3     1  UNL1        0.0900
      6 C           6.8926   -4.2873   23.2196 C.3     1  UNL1        0.0899
      7 C           7.7207   -6.3487   24.5668 C.3     1  UNL1        0.0992
      8 C           7.6566   -4.5605   28.6958 C.ar    1  UNL1       -0.0000
      9 C           8.8096   -4.2847   27.7768 C.ar    1  UNL1       -0.0003
     10 C           8.8310   -4.8808   26.4005 C.ar    1  UNL1       -0.0029
     11 C           7.6993   -5.7526   25.9431 C.ar    1  UNL1       -0.0061
     12 C           6.5463   -6.0284   26.8621 C.ar    1  UNL1       -0.0029
     13 C           6.5250   -5.4323   28.2384 C.ar    1  UNL1       -0.0003
     14 C           8.1196   -2.7819   19.7585 C.3     1  UNL1        0.1604
     15 C           6.8733   -2.2780   19.0931 C.ar    1  UNL1        0.2426
     16 N           6.5974   -2.2831   17.6187 N.ar    1  UNL1       -0.1099
     17 N           5.2377   -1.6887   17.3995 N.ar    1  UNL1       -0.1072
     18 C           4.6733   -1.3162   18.7385 C.ar    1  UNL1        0.2496
     19 O           5.6842   -1.6804   19.7851 O.2     1  UNL1       -0.4181
     20 C           3.3334   -0.6896   18.9871 C.ar    1  UNL1        0.0551
     21 C           2.4326   -1.2427   20.0514 C.ar    1  UNL1        0.0047
     22 C           1.0927   -0.6161   20.3000 C.ar    1  UNL1        0.0002
     23 C           0.6535    0.5637   19.4844 C.ar    1  UNL1        0.0000
     24 C           1.5542    1.1169   18.4201 C.ar    1  UNL1        0.0002
     25 C           2.8942    0.4902   18.1715 C.ar    1  UNL1        0.0047
@<TRIPOS>BOND
     1     8     9   ar
     2     9    10   ar
     3    10    11   ar
     4    11     7    1
     5     7     1    1
     6     1     2    1
     7     2     3    1
     8     3     4    1
     9     4    14    1
    10    14    15    1
    11    15    16   ar
    12    16    17   ar
    13    17    18   ar
    14    18    20    1
    15    20    21   ar
    16    21    22   ar
    17    22    23   ar
    18    23    24   ar
    19    24    25   ar
    20    18    19   ar
    21     4     5    1
    22     5     6    1
    23    11    12   ar
    24    12    13   ar
    25    13     8   ar
    26     6     1    1
    27    19    15   ar
    28    25    20   ar
@<TRIPOS>MOLECULE
*****
 25 28 0 0 0
SMALL
GASTEIGER

@<TRIPOS>ATOM
      1 N           6.8980   -3.9039   23.0890 N.3     1  UNL1       -0.2665
      2 C           7.6738   -3.8963   21.8051 C.3     1  UNL1        0.0899
      3 C           6.9506   -3.8411   20.4921 C.3     1  UNL1        0.0900
      4 N           5.4517   -3.7935   20.4629 N.3     1  UNL1       -0.2624
      5 C           4.6759   -3.8010   21.7467 C.3     1  UNL1        0.0900
      6 C           5.3991   -3.8563   23.0597 C.3     1  UNL1        0.0899
      7 C           7.6212   -3.9591   24.4019 C.3     1  UNL1        0.0992
      8 C           7.7433   -7.7998   26.7437 C.ar    1  UNL1       -0.0000
      9 C           8.0554   -7.8057   25.2766 C.ar    1  UNL1       -0.0003
     10 C           8.0147   -6.5255   24.4960 C.ar    1  UNL1       -0.0029
     11 C           7.6619   -5.2394   25.1825 C.ar    1  UNL1       -0.0061
     12 C           7.3498   -5.2335   26.6496 C.ar    1  UNL1       -0.0029
     13 C           7.3905   -6.5137   27.4302 C.ar    1  UNL1       -0.0003
     14 C           4.7285   -3.7383   19.1499 C.3     1  UNL1        0.1604
     15 C           4.4274   -2.4133   18.5146 C.ar    1  UNL1        0.2426
     16 N           4.9993   -1.9035   17.2251 N.ar    1  UNL1       -0.1099
     17 N           4.4269   -0.5405   16.9708 N.ar    1  UNL1       -0.1072
     18 C           3.5011   -0.2079   18.1033 C.ar    1  UNL1        0.2496
     19 O           3.5014   -1.3654   19.0574 O.2     1  UNL1       -0.4181
     20 C           2.7134    1.0595   18.2550 C.ar    1  UNL1        0.0551
     21 C           1.2151    1.0097   18.3066 C.ar    1  UNL1        0.0047
     22 C           0.4274    2.2772   18.4583 C.ar    1  UNL1        0.0002
     23 C           1.1379    3.5944   18.5583 C.ar    1  UNL1        0.0000
     24 C           2.6362    3.6442   18.5067 C.ar    1  UNL1        0.0002
     25 C           3.4239    2.3768   18.3550 C.ar    1  UNL1        0.0047
@<TRIPOS>BOND
     1     8     9   ar
     2     9    10   ar
     3    10    11   ar
     4    11     7    1
     5     7     1    1
     6     1     2    1
     7     2     3    1
     8     3     4    1
     9     4    14    1
    10    14    15    1
    11    15    16   ar
    12    16    17   ar
    13    17    18   ar
    14    18    20    1
    15    20    21   ar
    16    21    22   ar
    17    22    23   ar
    18    23    24   ar
    19    24    25   ar
    20    18    19   ar
    21     4     5    1
    22     5     6    1
    23    11    12   ar
    24    12    13   ar
    25    13     8   ar
    26     6     1    1
    27    19    15   ar
    28    25    20   ar
@<TRIPOS>MOLECULE
*****
 25 28 0 0 0
SMALL
GASTEIGER

@<TRIPOS>ATOM
      1 N         -13.8154   -7.9162   17.8687 N.3     1  UNL1       -0.2665
      2 C         -12.8590   -7.2666   18.8246 C.3     1  UNL1        0.0899
      3 C         -12.1400   -6.0111   18.4290 C.3     1  UNL1        0.0900
      4 N         -12.3773   -5.4049   17.0776 N.3     1  UNL1       -0.2624
      5 C         -13.3336   -6.0544   16.1217 C.3     1  UNL1        0.0900
      6 C         -14.0526   -7.3100   16.5173 C.3     1  UNL1        0.0899
      7 C         -14.5344   -9.1717   18.2642 C.3     1  UNL1        0.0992
      8 C         -18.8203   -8.9777   19.6218 C.ar    1  UNL1       -0.0000
      9 C         -18.3788  -10.0625   18.6847 C.ar    1  UNL1       -0.0003
     10 C         -16.9502  -10.1272   18.2322 C.ar    1  UNL1       -0.0029
     11 C         -15.9630   -9.1070   18.7168 C.ar    1  UNL1       -0.0061
     12 C         -16.4046   -8.0222   19.6538 C.ar    1  UNL1       -0.0029
     13 C         -17.8332   -7.9575   20.1063 C.ar    1  UNL1       -0.0003
     14 C         -11.6582   -4.1493   16.6821 C.3     1  UNL1        0.1604
     15 C         -12.0281   -2.8415   17.3167 C.ar    1  UNL1        0.2426
     16 N         -11.0949   -1.7001   17.5924 N.ar    1  UNL1       -0.1099
     17 N         -11.8862   -0.5987   18.2332 N.ar    1  UNL1       -0.1072
     18 C         -13.3087   -1.0594   18.3536 C.ar    1  UNL1        0.2496
     19 O         -13.3963   -2.4456   17.7872 O.2     1  UNL1       -0.4181
     20 C         -14.4440   -0.2723   18.9379 C.ar    1  UNL1        0.0551
     21 C         -14.5117    1.2120   18.7320 C.ar    1  UNL1        0.0047
     22 C         -15.6470    1.9992   19.3162 C.ar    1  UNL1        0.0002
     23 C         -16.7146    1.3021   20.1063 C.ar    1  UNL1        0.0000
     24 C         -16.6469   -0.1821   20.3122 C.ar    1  UNL1        0.0002
     25 C         -15.5116   -0.9693   19.7280 C.ar    1  UNL1        0.0047
@<TRIPOS>BOND
     1     8     9   ar
     2     9    10   ar
     3    10    11   ar
     4    11     7    1
     5     7     1    1
     6     1     2    1
     7     2     3    1
     8     3     4    1
     9     4    14    1
    10    14    15    1
    11    15    16   ar
    12    16    17   ar
    13    17    18   ar
    14    18    20    1
    15    20    21   ar
    16    21    22   ar
    17    22    23   ar
    18    23    24   ar
    19    24    25   ar
    20    18    19   ar
    21     4     5    1
    22     5     6    1
    23    11    12   ar
    24    12    13   ar
    25    13     8   ar
    26     6     1    1
    27    19    15   ar
    28    25    20   ar
@<TRIPOS>MOLECULE
*****
 25 28 0 0 0
SMALL
GASTEIGER

@<TRIPOS>ATOM
      1 N         -13.4208   -7.6352   18.3685 N.3     1  UNL1       -0.2665
      2 C         -13.6415   -6.4944   19.3172 C.3     1  UNL1        0.0899
      3 C         -12.6452   -5.3755   19.3893 C.3     1  UNL1        0.0900
      4 N         -11.4281   -5.3972   18.5127 N.3     1  UNL1       -0.2624
      5 C         -11.2075   -6.5379   17.5640 C.3     1  UNL1        0.0900
      6 C         -12.2038   -7.6569   17.4919 C.3     1  UNL1        0.0899
      7 C         -14.4172   -8.7541   18.2964 C.3     1  UNL1        0.0992
      8 C         -18.7721   -7.9436   19.0885 C.ar    1  UNL1       -0.0000
      9 C         -17.8995   -8.4867   20.1809 C.ar    1  UNL1       -0.0003
     10 C         -16.4479   -8.7569   19.9169 C.ar    1  UNL1       -0.0029
     11 C         -15.8688   -8.4840   18.5604 C.ar    1  UNL1       -0.0061
     12 C         -16.7414   -7.9409   17.4679 C.ar    1  UNL1       -0.0029
     13 C         -18.1931   -7.6707   17.7320 C.ar    1  UNL1       -0.0003
     14 C         -10.4318   -4.2782   18.5849 C.3     1  UNL1        0.1604
     15 C         -10.7332   -2.9623   17.9311 C.ar    1  UNL1        0.2426
     16 N         -10.0398   -2.3964   16.7275 N.ar    1  UNL1       -0.1099
     17 N         -10.6590   -1.0656   16.4187 N.ar    1  UNL1       -0.1072
     18 C         -11.7353   -0.8089   17.4316 C.ar    1  UNL1        0.2496
     19 O         -11.7811   -1.9811   18.3663 O.2     1  UNL1       -0.4181
     20 C         -12.6117    0.4066   17.4981 C.ar    1  UNL1        0.0551
     21 C         -12.2792    1.6168   16.6767 C.ar    1  UNL1        0.0047
     22 C         -13.1556    2.8323   16.7431 C.ar    1  UNL1        0.0002
     23 C         -14.3647    2.8375   17.6310 C.ar    1  UNL1        0.0000
     24 C         -14.6972    1.6272   18.4523 C.ar    1  UNL1        0.0002
     25 C         -13.8208    0.4118   18.3859 C.ar    1  UNL1        0.0047
@<TRIPOS>BOND
     1     8     9   ar
     2     9    10   ar
     3    10    11   ar
     4    11     7    1
     5     7     1    1
     6     1     2    1
     7     2     3    1
     8     3     4    1
     9     4    14    1
    10    14    15    1
    11    15    16   ar
    12    16    17   ar
    13    17    18   ar
    14    18    20    1
    15    20    21   ar
    16    21    22   ar
    17    22    23   ar
    18    23    24   ar
    19    24    25   ar
    20    18    19   ar
    21     4     5    1
    22     5     6    1
    23    11    12   ar
    24    12    13   ar
    25    13     8   ar
    26     6     1    1
    27    19    15   ar
    28    25    20   ar
@<TRIPOS>MOLECULE
*****
 25 28 0 0 0
SMALL
GASTEIGER

@<TRIPOS>ATOM
      1 N           2.7351    0.6607   20.5187 N.3     1  UNL1       -0.2665
      2 C           2.9048    1.9589   19.7866 C.3     1  UNL1        0.0899
      3 C           1.7019    2.7787   19.4248 C.3     1  UNL1        0.0900
      4 N           0.3293    2.3003   19.7950 N.3     1  UNL1       -0.2624
      5 C           0.1595    1.0022   20.5270 C.3     1  UNL1        0.0900
      6 C           1.3625    0.1823   20.8889 C.3     1  UNL1        0.0899
      7 C           3.9380   -0.1591   20.8805 C.3     1  UNL1        0.0992
      8 C           3.9578   -4.5910   20.1010 C.ar    1  UNL1       -0.0000
      9 C           3.5920   -3.6379   19.0022 C.ar    1  UNL1       -0.0003
     10 C           3.5853   -2.1606   19.2620 C.ar    1  UNL1       -0.0029
     11 C           3.9446   -1.6364   20.6207 C.ar    1  UNL1       -0.0061
     12 C           4.3104   -2.5896   21.7196 C.ar    1  UNL1       -0.0029
     13 C           4.3171   -4.0669   21.4598 C.ar    1  UNL1       -0.0003
     14 C          -0.8737    3.1202   19.4331 C.3     1  UNL1        0.1604
     15 C          -2.0027    3.2669   20.4096 C.ar    1  UNL1        0.2426
     16 N          -3.4649    3.2524   20.0755 N.ar    1  UNL1       -0.1099
     17 N          -4.2337    3.4304   21.3511 N.ar    1  UNL1       -0.1072
     18 C          -3.2466    3.5549   22.4737 C.ar    1  UNL1        0.2496
     19 O          -1.8678    3.4538   21.8918 O.2     1  UNL1       -0.4181
     20 C          -3.5798    3.7468   23.9236 C.ar    1  UNL1        0.0551
     21 C          -4.9705    4.1372   24.3282 C.ar    1  UNL1        0.0047
     22 C          -5.3037    4.3291   25.7780 C.ar    1  UNL1        0.0002
     23 C          -4.2463    4.1305   26.8233 C.ar    1  UNL1        0.0000
     24 C          -2.8557    3.7401   26.4187 C.ar    1  UNL1        0.0002
     25 C          -2.5225    3.5483   24.9688 C.ar    1  UNL1        0.0047
@<TRIPOS>BOND
     1     8     9   ar
     2     9    10   ar
     3    10    11   ar
     4    11     7    1
     5     7     1    1
     6     1     2    1
     7     2     3    1
     8     3     4    1
     9     4    14    1
    10    14    15    1
    11    15    16   ar
    12    16    17   ar
    13    17    18   ar
    14    18    20    1
    15    20    21   ar
    16    21    22   ar
    17    22    23   ar
    18    23    24   ar
    19    24    25   ar
    20    18    19   ar
    21     4     5    1
    22     5     6    1
    23    11    12   ar
    24    12    13   ar
    25    13     8   ar
    26     6     1    1
    27    19    15   ar
    28    25    20   ar
