@<TRIPOS>MOLECULE
*****
 31 32 0 0 0
SMALL
GASTEIGER

@<TRIPOS>ATOM
      1 C          -5.9055  -15.5251   24.9866 C.3     1  UNL1        0.0949
      2 C          -5.4920  -15.0767   26.3570 C.3     1  UNL1        0.0233
      3 C          -6.6928  -15.1557   27.2526 C.3     1  UNL1        0.0233
      4 C          -7.8484  -15.6529   26.4356 C.3     1  UNL1        0.0935
      5 N          -7.3618  -15.8812   25.0352 N.am    1  UNL1       -0.2794
      6 C          -8.1867  -16.3783   23.8852 C.2     1  UNL1        0.2270
      7 O          -7.5593  -16.5585   22.5347 O.2     1  UNL1       -0.2748
      8 C          -5.0184  -15.6035   23.7796 C.3     1  UNL1        0.1091
      9 C          -3.3830  -17.0255   22.3465 C.2     1  UNL1        0.2216
     10 O          -2.6601  -15.7777   21.9335 O.2     1  UNL1       -0.2751
     11 N          -4.5622  -16.9384   23.2695 N.am    1  UNL1       -0.3027
     12 H          -5.0367  -17.7573   23.5406 H       1  UNL1        0.1495
     13 C          -1.8266  -17.6905   21.0678 C.3     1  UNL1        0.0091
     14 C          -2.9269  -18.3603   21.8364 C.3     1  UNL1        0.0689
     15 C          -4.0272  -19.0301   22.6051 C.3     1  UNL1        0.0091
     16 C          -2.4707  -19.6951   21.3264 C.3     1  UNL1        0.0091
     17 C          -9.6390  -16.6953   24.0858 C.3     1  UNL1        0.1010
     18 C         -10.0548  -18.0746   24.5041 C.3     1  UNL1        0.0644
     19 N          -9.8031  -18.5406   25.9074 N.3     1  UNL1       -0.3215
     20 H          -9.3450  -17.7977   26.4354 H       1  UNL1        0.1188
     21 H          -9.2026  -19.3649   25.8894 H       1  UNL1        0.1188
     22 C         -10.7224  -18.9877   23.5189 C.3     1  UNL1        0.0447
     23 C         -10.1369  -19.1710   22.1501 C.ar    1  UNL1        0.0090
     24 C          -8.7078  -19.6004   21.9970 C.ar    1  UNL1        0.0300
     25 C          -8.1224  -19.7837   20.6282 C.ar    1  UNL1        0.1672
     26 F          -6.6933  -20.2132   20.4750 F       1  UNL1       -0.2018
     27 C          -8.9660  -19.5376   19.4125 C.ar    1  UNL1        0.1696
     28 F          -8.3805  -19.7209   18.0437 F       1  UNL1       -0.2017
     29 C         -10.3950  -19.1082   19.5657 C.ar    1  UNL1        0.0612
     30 C         -10.9804  -18.9249   20.9344 C.ar    1  UNL1        0.1386
     31 F         -12.4095  -18.4955   21.0876 F       1  UNL1       -0.2044
@<TRIPOS>BOND
     1    13    14    1
     2    14    15    1
     3    14    16    1
     4    14     9    1
     5     9    10    2
     6     9    11   am
     7    11     8    1
     8     1     8    1
     9     1     2    1
    10     2     3    1
    11     3     4    1
    12     4     5    1
    13     5     6   am
    14     6     7    2
    15     6    17    1
    16    17    18    1
    17    18    19    1
    18    18    22    1
    19    22    23    1
    20    23    24   ar
    21    24    25   ar
    22    25    26    1
    23    25    27   ar
    24    27    28    1
    25    27    29   ar
    26    29    30   ar
    27    30    31    1
    28     5     1    1
    29    30    23   ar
    30    11    12    1
    31    19    20    1
    32    19    21    1
@<TRIPOS>MOLECULE
*****
 31 32 0 0 0
SMALL
GASTEIGER

@<TRIPOS>ATOM
      1 C          -8.1973  -15.8257   25.4786 C.3     1  UNL1        0.0949
      2 C          -8.3484  -15.8958   26.9693 C.3     1  UNL1        0.0233
      3 C          -6.9914  -15.7134   27.5820 C.3     1  UNL1        0.0233
      4 C          -6.0016  -15.5307   26.4699 C.3     1  UNL1        0.0935
      5 N          -6.7468  -15.6001   25.1699 N.am    1  UNL1       -0.2794
      6 C          -6.1470  -15.4672   23.8016 C.2     1  UNL1        0.2270
      7 O          -7.0223  -15.5587   22.5868 O.2     1  UNL1       -0.2748
      8 C          -9.3025  -15.9581   24.4732 C.3     1  UNL1        0.1091
      9 C         -10.7568  -17.4622   22.9327 C.2     1  UNL1        0.2216
     10 O         -11.7401  -16.3416   22.7670 O.2     1  UNL1       -0.2751
     11 N          -9.5380  -17.2704   23.7858 N.am    1  UNL1       -0.3027
     12 H          -8.8926  -18.0058   23.8946 H       1  UNL1        0.1495
     13 C         -11.3352  -18.0490   20.9780 C.3     1  UNL1        0.0091
     14 C         -10.9922  -18.7745   22.2454 C.3     1  UNL1        0.0689
     15 C         -10.6492  -19.4998   23.5128 C.3     1  UNL1        0.0091
     16 C         -11.2277  -20.0867   21.5581 C.3     1  UNL1        0.0091
     17 C          -4.6719  -15.2428   23.6479 C.3     1  UNL1        0.1010
     18 C          -3.8218  -16.2788   22.9739 C.3     1  UNL1        0.0644
     19 N          -2.8370  -15.8702   21.9189 N.3     1  UNL1       -0.3215
     20 H          -2.8785  -14.8595   21.7882 H       1  UNL1        0.1188
     21 H          -3.0662  -16.3363   21.0410 H       1  UNL1        0.1188
     22 C          -3.9567  -17.7233   23.3549 C.3     1  UNL1        0.0447
     23 C          -4.5464  -18.7032   22.3842 C.ar    1  UNL1        0.0090
     24 C          -6.0355  -18.8439   22.2720 C.ar    1  UNL1        0.0300
     25 C          -6.6251  -19.8237   21.3013 C.ar    1  UNL1        0.1672
     26 F          -8.1143  -19.9645   21.1890 F       1  UNL1       -0.2018
     27 C          -5.7256  -20.6628   20.4429 C.ar    1  UNL1        0.1696
     28 F          -6.3153  -21.6427   19.4722 F       1  UNL1       -0.2017
     29 C          -4.2365  -20.5220   20.5552 C.ar    1  UNL1        0.0612
     30 C          -3.6469  -19.5422   21.5258 C.ar    1  UNL1        0.1386
     31 F          -2.1577  -19.4014   21.6381 F       1  UNL1       -0.2044
@<TRIPOS>BOND
     1    13    14    1
     2    14    15    1
     3    14    16    1
     4    14     9    1
     5     9    10    2
     6     9    11   am
     7    11     8    1
     8     1     8    1
     9     1     2    1
    10     2     3    1
    11     3     4    1
    12     4     5    1
    13     5     6   am
    14     6     7    2
    15     6    17    1
    16    17    18    1
    17    18    19    1
    18    18    22    1
    19    22    23    1
    20    23    24   ar
    21    24    25   ar
    22    25    26    1
    23    25    27   ar
    24    27    28    1
    25    27    29   ar
    26    29    30   ar
    27    30    31    1
    28     5     1    1
    29    30    23   ar
    30    11    12    1
    31    19    20    1
    32    19    21    1
@<TRIPOS>MOLECULE
*****
 31 32 0 0 0
SMALL
GASTEIGER

@<TRIPOS>ATOM
      1 C          -9.9246  -17.8358   23.5841 C.3     1  UNL1        0.0949
      2 C         -10.8344  -18.6827   24.4236 C.3     1  UNL1        0.0233
      3 C         -10.6974  -20.1047   23.9659 C.3     1  UNL1        0.0233
      4 C          -9.7028  -20.1364   22.8435 C.3     1  UNL1        0.0935
      5 N          -9.2252  -18.7342   22.6075 N.am    1  UNL1       -0.2794
      6 C          -8.2240  -18.3056   21.5761 C.2     1  UNL1        0.2270
      7 O          -7.8421  -16.8600   21.4568 O.2     1  UNL1       -0.2748
      8 C          -9.7456  -16.3511   23.7007 C.3     1  UNL1        0.1091
      9 C          -7.8339  -15.9562   25.4153 C.2     1  UNL1        0.2216
     10 O          -8.6155  -16.6994   26.4579 O.2     1  UNL1       -0.2751
     11 N          -8.3990  -15.7820   24.0368 N.am    1  UNL1       -0.3027
     12 H          -7.8860  -15.2942   23.3526 H       1  UNL1        0.1495
     13 C          -6.8012  -15.5076   27.2132 C.3     1  UNL1        0.0091
     14 C          -6.4873  -15.3871   25.7513 C.3     1  UNL1        0.0689
     15 C          -6.1735  -15.2666   24.2895 C.3     1  UNL1        0.0091
     16 C          -5.1408  -14.8180   26.0873 C.3     1  UNL1        0.0091
     17 C          -7.6047  -19.3227   20.6640 C.3     1  UNL1        0.1010
     18 C          -6.3609  -20.0483   21.0841 C.3     1  UNL1        0.0644
     19 N          -6.0317  -21.3826   20.4830 N.3     1  UNL1       -0.3215
     20 H          -6.7561  -21.6417   19.8133 H       1  UNL1        0.1188
     21 H          -5.9836  -22.0853   21.2208 H       1  UNL1        0.1188
     22 C          -5.4463  -19.4395   22.1053 C.3     1  UNL1        0.0447
     23 C          -4.2170  -18.7007   21.6656 C.ar    1  UNL1        0.0090
     24 C          -3.7076  -18.8597   20.2638 C.ar    1  UNL1        0.0300
     25 C          -2.4785  -18.1209   19.8242 C.ar    1  UNL1        0.1672
     26 F          -1.9690  -18.2799   18.4223 F       1  UNL1       -0.2018
     27 C          -1.7587  -17.2231   20.7864 C.ar    1  UNL1        0.1696
     28 F          -0.5295  -16.4843   20.3468 F       1  UNL1       -0.2017
     29 C          -2.2681  -17.0641   22.1883 C.ar    1  UNL1        0.0612
     30 C          -3.4973  -17.8029   22.6279 C.ar    1  UNL1        0.1386
     31 F          -4.0067  -17.6439   24.0298 F       1  UNL1       -0.2044
@<TRIPOS>BOND
     1    13    14    1
     2    14    15    1
     3    14    16    1
     4    14     9    1
     5     9    10    2
     6     9    11   am
     7    11     8    1
     8     1     8    1
     9     1     2    1
    10     2     3    1
    11     3     4    1
    12     4     5    1
    13     5     6   am
    14     6     7    2
    15     6    17    1
    16    17    18    1
    17    18    19    1
    18    18    22    1
    19    22    23    1
    20    23    24   ar
    21    24    25   ar
    22    25    26    1
    23    25    27   ar
    24    27    28    1
    25    27    29   ar
    26    29    30   ar
    27    30    31    1
    28     5     1    1
    29    30    23   ar
    30    11    12    1
    31    19    20    1
    32    19    21    1
@<TRIPOS>MOLECULE
*****
 31 32 0 0 0
SMALL
GASTEIGER

@<TRIPOS>ATOM
      1 C          -4.8370  -16.6769   23.4816 C.3     1  UNL1        0.0949
      2 C          -5.1144  -15.4559   24.3075 C.3     1  UNL1        0.0233
      3 C          -6.6003  -15.3387   24.4769 C.3     1  UNL1        0.0233
      4 C          -7.2410  -16.4873   23.7556 C.3     1  UNL1        0.0935
      5 N          -6.1512  -17.3144   23.1405 N.am    1  UNL1       -0.2794
      6 C          -6.3422  -18.5601   22.3272 C.2     1  UNL1        0.2270
      7 O          -5.1510  -19.2845   21.7738 O.2     1  UNL1       -0.2748
      8 C          -3.4829  -17.1734   23.0692 C.3     1  UNL1        0.1091
      9 C          -2.1242  -18.0870   21.0519 C.2     1  UNL1        0.2216
     10 O          -1.6398  -19.2289   21.8954 O.2     1  UNL1       -0.2751
     11 N          -3.0458  -17.0593   21.6388 N.am    1  UNL1       -0.3027
     12 H          -3.3638  -16.3099   21.0852 H       1  UNL1        0.1495
     13 C          -3.0923  -18.2422   19.1708 C.3     1  UNL1        0.0091
     14 C          -1.6872  -17.9729   19.6215 C.3     1  UNL1        0.0689
     15 C          -0.2821  -17.7036   20.0723 C.3     1  UNL1        0.0091
     16 C          -1.2502  -17.8588   18.1912 C.3     1  UNL1        0.0091
     17 C          -7.7244  -19.0814   22.0672 C.3     1  UNL1        0.1010
     18 C          -8.2280  -19.2022   20.6593 C.3     1  UNL1        0.0644
     19 N          -7.2923  -18.9858   19.5070 N.3     1  UNL1       -0.3215
     20 H          -6.3612  -18.7672   19.8615 H       1  UNL1        0.1188
     21 H          -7.6295  -18.2106   18.9363 H       1  UNL1        0.1188
     22 C          -9.6670  -19.5395   20.4038 C.3     1  UNL1        0.0447
     23 C         -10.7383  -18.9744   21.2889 C.ar    1  UNL1        0.0090
     24 C         -10.8420  -19.4183   22.7179 C.ar    1  UNL1        0.0300
     25 C         -11.9132  -18.8532   23.6028 C.ar    1  UNL1        0.1672
     26 F         -12.0170  -19.2971   25.0319 F       1  UNL1       -0.2018
     27 C         -12.8808  -17.8444   23.0587 C.ar    1  UNL1        0.1696
     28 F         -13.9521  -17.2794   23.9437 F       1  UNL1       -0.2017
     29 C         -12.7771  -17.4005   21.6297 C.ar    1  UNL1        0.0612
     30 C         -11.7059  -17.9656   20.7447 C.ar    1  UNL1        0.1386
     31 F         -11.6021  -17.5217   19.3156 F       1  UNL1       -0.2044
@<TRIPOS>BOND
     1    13    14    1
     2    14    15    1
     3    14    16    1
     4    14     9    1
     5     9    10    2
     6     9    11   am
     7    11     8    1
     8     1     8    1
     9     1     2    1
    10     2     3    1
    11     3     4    1
    12     4     5    1
    13     5     6   am
    14     6     7    2
    15     6    17    1
    16    17    18    1
    17    18    19    1
    18    18    22    1
    19    22    23    1
    20    23    24   ar
    21    24    25   ar
    22    25    26    1
    23    25    27   ar
    24    27    28    1
    25    27    29   ar
    26    29    30   ar
    27    30    31    1
    28     5     1    1
    29    30    23   ar
    30    11    12    1
    31    19    20    1
    32    19    21    1
@<TRIPOS>MOLECULE
*****
 31 32 0 0 0
SMALL
GASTEIGER

@<TRIPOS>ATOM
      1 C          -4.1471  -17.4201   22.9940 C.3     1  UNL1        0.0949
      2 C          -2.6955  -17.7809   22.8818 C.3     1  UNL1        0.0233
      3 C          -2.5987  -19.0966   22.1679 C.3     1  UNL1        0.0233
      4 C          -3.9905  -19.5489   21.8389 C.3     1  UNL1        0.0935
      5 N          -4.9475  -18.5127   22.3495 N.am    1  UNL1       -0.2794
      6 C          -6.4424  -18.5608   22.2356 C.2     1  UNL1        0.2270
      7 O          -7.2736  -17.4455   22.7969 O.2     1  UNL1       -0.2748
      8 C          -4.7010  -16.1837   23.6378 C.3     1  UNL1        0.1091
      9 C          -6.7293  -15.4213   25.0714 C.2     1  UNL1        0.2216
     10 O          -7.1154  -14.4409   24.0037 O.2     1  UNL1       -0.2751
     11 N          -5.5222  -16.2927   24.8884 N.am    1  UNL1       -0.3027
     12 H          -5.2688  -16.9361   25.5891 H       1  UNL1        0.1495
     13 C          -8.7996  -15.6069   25.4950 C.3     1  UNL1        0.0091
     14 C          -7.5504  -15.5304   26.3220 C.3     1  UNL1        0.0689
     15 C          -6.3012  -15.4539   27.1488 C.3     1  UNL1        0.0091
     16 C          -8.3715  -15.6395   27.5724 C.3     1  UNL1        0.0091
     17 C          -7.1060  -19.7242   21.5603 C.3     1  UNL1        0.1010
     18 C          -7.9552  -19.5010   20.3442 C.3     1  UNL1        0.0644
     19 N          -7.3211  -19.0661   19.0562 N.3     1  UNL1       -0.3215
     20 H          -6.3141  -18.9718   19.1879 H       1  UNL1        0.1188
     21 H          -7.7123  -18.1683   18.7708 H       1  UNL1        0.1188
     22 C          -9.4384  -19.7127   20.4160 C.3     1  UNL1        0.0447
     23 C         -10.3217  -18.6441   20.9889 C.ar    1  UNL1        0.0090
     24 C         -10.9916  -17.6573   20.0793 C.ar    1  UNL1        0.0300
     25 C         -11.8748  -16.5889   20.6522 C.ar    1  UNL1        0.1672
     26 F         -12.5448  -15.6020   19.7426 F       1  UNL1       -0.2018
     27 C         -12.0881  -16.5072   22.1348 C.ar    1  UNL1        0.1696
     28 F         -12.9713  -15.4387   22.7077 F       1  UNL1       -0.2017
     29 C         -11.4182  -17.4940   23.0443 C.ar    1  UNL1        0.0612
     30 C         -10.5350  -18.5625   22.4714 C.ar    1  UNL1        0.1386
     31 F          -9.8650  -19.5493   23.3810 F       1  UNL1       -0.2044
@<TRIPOS>BOND
     1    13    14    1
     2    14    15    1
     3    14    16    1
     4    14     9    1
     5     9    10    2
     6     9    11   am
     7    11     8    1
     8     1     8    1
     9     1     2    1
    10     2     3    1
    11     3     4    1
    12     4     5    1
    13     5     6   am
    14     6     7    2
    15     6    17    1
    16    17    18    1
    17    18    19    1
    18    18    22    1
    19    22    23    1
    20    23    24   ar
    21    24    25   ar
    22    25    26    1
    23    25    27   ar
    24    27    28    1
    25    27    29   ar
    26    29    30   ar
    27    30    31    1
    28     5     1    1
    29    30    23   ar
    30    11    12    1
    31    19    20    1
    32    19    21    1
@<TRIPOS>MOLECULE
*****
 31 32 0 0 0
SMALL
GASTEIGER

@<TRIPOS>ATOM
      1 C          -8.1180  -15.5936   25.4879 C.3     1  UNL1        0.0949
      2 C          -8.2831  -15.2621   26.9415 C.3     1  UNL1        0.0233
      3 C          -6.9240  -15.2717   27.5764 C.3     1  UNL1        0.0233
      4 C          -5.9191  -15.6090   26.5151 C.3     1  UNL1        0.0935
      5 N          -6.6570  -15.8079   25.2244 N.am    1  UNL1       -0.2794
      6 C          -6.0418  -16.1595   23.9023 C.2     1  UNL1        0.2270
      7 O          -6.9112  -16.3270   22.6914 O.2     1  UNL1       -0.2748
      8 C          -9.2204  -15.6931   24.4756 C.3     1  UNL1        0.1091
      9 C         -10.0775  -17.2192   22.5555 C.2     1  UNL1        0.2216
     10 O         -10.0313  -16.0554   21.6100 O.2     1  UNL1       -0.2751
     11 N          -9.6720  -17.0379   23.9882 N.am    1  UNL1       -0.3027
     12 H          -9.7023  -17.8017   24.6087 H       1  UNL1        0.1495
     13 C         -10.2723  -18.1374   20.6532 C.3     1  UNL1        0.0091
     14 C         -10.5291  -18.5640   22.0681 C.3     1  UNL1        0.0689
     15 C         -10.7858  -18.9905   23.4831 C.3     1  UNL1        0.0091
     16 C         -10.9806  -19.9088   21.5808 C.3     1  UNL1        0.0091
     17 C          -4.5574  -16.3435   23.7910 C.3     1  UNL1        0.1010
     18 C          -3.9526  -17.7011   23.9943 C.3     1  UNL1        0.0644
     19 N          -3.2360  -18.0191   25.2731 N.3     1  UNL1       -0.3215
     20 H          -3.2560  -17.2039   25.8858 H       1  UNL1        0.1188
     21 H          -2.2679  -18.2666   25.0679 H       1  UNL1        0.1188
     22 C          -4.0645  -18.7407   22.9188 C.3     1  UNL1        0.0447
     23 C          -3.3817  -18.5316   21.5996 C.ar    1  UNL1        0.0090
     24 C          -2.2494  -17.5542   21.4878 C.ar    1  UNL1        0.0300
     25 C          -1.5667  -17.3451   20.1686 C.ar    1  UNL1        0.1672
     26 F          -0.4342  -16.3678   20.0567 F       1  UNL1       -0.2018
     27 C          -2.0163  -18.1134   18.9613 C.ar    1  UNL1        0.1696
     28 F          -1.3336  -17.9043   17.6421 F       1  UNL1       -0.2017
     29 C          -3.1487  -19.0907   19.0731 C.ar    1  UNL1        0.0612
     30 C          -3.8314  -19.2998   20.3923 C.ar    1  UNL1        0.1386
     31 F          -4.9638  -20.2772   20.5041 F       1  UNL1       -0.2044
@<TRIPOS>BOND
     1    13    14    1
     2    14    15    1
     3    14    16    1
     4    14     9    1
     5     9    10    2
     6     9    11   am
     7    11     8    1
     8     1     8    1
     9     1     2    1
    10     2     3    1
    11     3     4    1
    12     4     5    1
    13     5     6   am
    14     6     7    2
    15     6    17    1
    16    17    18    1
    17    18    19    1
    18    18    22    1
    19    22    23    1
    20    23    24   ar
    21    24    25   ar
    22    25    26    1
    23    25    27   ar
    24    27    28    1
    25    27    29   ar
    26    29    30   ar
    27    30    31    1
    28     5     1    1
    29    30    23   ar
    30    11    12    1
    31    19    20    1
    32    19    21    1
@<TRIPOS>MOLECULE
*****
 31 32 0 0 0
SMALL
GASTEIGER

@<TRIPOS>ATOM
      1 C          -7.0862  -16.1070   22.9982 C.3     1  UNL1        0.0949
      2 C          -6.2105  -15.2420   23.8554 C.3     1  UNL1        0.0233
      3 C          -4.9827  -16.0290   24.2066 C.3     1  UNL1        0.0233
      4 C          -5.0996  -17.3804   23.5663 C.3     1  UNL1        0.0935
      5 N          -6.3996  -17.4286   22.8195 N.am    1  UNL1       -0.2794
      6 C          -6.9214  -18.5939   22.0322 C.2     1  UNL1        0.2270
      7 O          -8.2456  -18.4950   21.3345 O.2     1  UNL1       -0.2748
      8 C          -8.4151  -15.7186   22.4210 C.3     1  UNL1        0.1091
      9 C         -10.8054  -16.6894   22.1142 C.2     1  UNL1        0.2216
     10 O         -10.6675  -16.5587   20.6262 O.2     1  UNL1       -0.2751
     11 N          -9.6792  -16.2693   23.0115 N.am    1  UNL1       -0.3027
     12 H          -9.7697  -16.3551   23.9881 H       1  UNL1        0.1495
     13 C         -11.4666  -18.6136   22.7143 C.3     1  UNL1        0.0091
     14 C         -12.0695  -17.2401   22.7048 C.3     1  UNL1        0.0689
     15 C         -12.6724  -15.8666   22.6952 C.3     1  UNL1        0.0091
     16 C         -13.3335  -17.7908   23.2954 C.3     1  UNL1        0.0091
     17 C          -6.1191  -19.8581   21.9427 C.3     1  UNL1        0.1010
     18 C          -5.8482  -20.4814   20.6054 C.3     1  UNL1        0.0644
     19 N          -6.9862  -20.7954   19.6801 N.3     1  UNL1       -0.3215
     20 H          -7.8659  -20.5215   20.1177 H       1  UNL1        0.1188
     21 H          -7.0004  -21.7967   19.4861 H       1  UNL1        0.1188
     22 C          -4.4395  -20.7906   20.1936 C.3     1  UNL1        0.0447
     23 C          -3.4088  -19.7010   20.1693 C.ar    1  UNL1        0.0090
     24 C          -3.1037  -18.9857   18.8867 C.ar    1  UNL1        0.0300
     25 C          -2.0731  -17.8961   18.8625 C.ar    1  UNL1        0.1672
     26 F          -1.7679  -17.1807   17.5798 F       1  UNL1       -0.2018
     27 C          -1.3476  -17.5218   20.1209 C.ar    1  UNL1        0.1696
     28 F          -0.3169  -16.4322   20.0966 F       1  UNL1       -0.2017
     29 C          -1.6527  -18.2371   21.4035 C.ar    1  UNL1        0.0612
     30 C          -2.6833  -19.3267   21.4278 C.ar    1  UNL1        0.1386
     31 F          -2.9885  -20.0421   22.7104 F       1  UNL1       -0.2044
@<TRIPOS>BOND
     1    13    14    1
     2    14    15    1
     3    14    16    1
     4    14     9    1
     5     9    10    2
     6     9    11   am
     7    11     8    1
     8     1     8    1
     9     1     2    1
    10     2     3    1
    11     3     4    1
    12     4     5    1
    13     5     6   am
    14     6     7    2
    15     6    17    1
    16    17    18    1
    17    18    19    1
    18    18    22    1
    19    22    23    1
    20    23    24   ar
    21    24    25   ar
    22    25    26    1
    23    25    27   ar
    24    27    28    1
    25    27    29   ar
    26    29    30   ar
    27    30    31    1
    28     5     1    1
    29    30    23   ar
    30    11    12    1
    31    19    20    1
    32    19    21    1
@<TRIPOS>MOLECULE
*****
 31 32 0 0 0
SMALL
GASTEIGER

@<TRIPOS>ATOM
      1 C          -2.9977  -18.0110   21.5931 C.3     1  UNL1        0.0949
      2 C          -2.0775  -17.2806   20.6605 C.3     1  UNL1        0.0233
      3 C          -2.5111  -17.5765   19.2553 C.3     1  UNL1        0.0233
      4 C          -3.6993  -18.4897   19.3195 C.3     1  UNL1        0.0935
      5 N          -4.0000  -18.7583   20.7643 N.am    1  UNL1       -0.2794
      6 C          -5.1084  -19.6225   21.2883 C.2     1  UNL1        0.2270
      7 O          -5.2871  -19.7983   22.7672 O.2     1  UNL1       -0.2748
      8 C          -2.9278  -17.9967   23.0913 C.3     1  UNL1        0.1091
      9 C          -4.7164  -16.2295   23.7457 C.2     1  UNL1        0.2216
     10 O          -4.0971  -15.2500   22.7932 O.2     1  UNL1       -0.2751
     11 N          -4.1318  -17.6028   23.8947 N.am    1  UNL1       -0.3027
     12 H          -4.5383  -18.2456   24.5198 H       1  UNL1        0.1495
     13 C          -6.8146  -16.3211   23.4468 C.3     1  UNL1        0.0091
     14 C          -5.9204  -15.8357   24.5490 C.3     1  UNL1        0.0689
     15 C          -5.0262  -15.3502   25.6512 C.3     1  UNL1        0.0091
     16 C          -7.1243  -15.4419   25.3523 C.3     1  UNL1        0.0091
     17 C          -6.0381  -20.3108   20.3334 C.3     1  UNL1        0.1010
     18 C          -7.4015  -19.7420   20.0727 C.3     1  UNL1        0.0644
     19 N          -8.3064  -20.3933   19.0692 N.3     1  UNL1       -0.3215
     20 H          -7.8373  -21.2029   18.6634 H       1  UNL1        0.1188
     21 H          -8.5322  -19.7260   18.3316 H       1  UNL1        0.1188
     22 C          -7.8598  -18.5222   20.8155 C.3     1  UNL1        0.0447
     23 C          -9.1995  -18.5141   21.4902 C.ar    1  UNL1        0.0090
     24 C         -10.2902  -17.6190   20.9814 C.ar    1  UNL1        0.0300
     25 C         -11.6298  -17.6110   21.6561 C.ar    1  UNL1        0.1672
     26 F         -12.7206  -16.7158   21.1472 F       1  UNL1       -0.2018
     27 C         -11.8787  -18.4981   22.8398 C.ar    1  UNL1        0.1696
     28 F         -13.2184  -18.4901   23.5145 F       1  UNL1       -0.2017
     29 C         -10.7880  -19.3933   23.3486 C.ar    1  UNL1        0.0612
     30 C          -9.4484  -19.4013   22.6739 C.ar    1  UNL1        0.1386
     31 F          -8.3576  -20.2965   23.1828 F       1  UNL1       -0.2044
@<TRIPOS>BOND
     1    13    14    1
     2    14    15    1
     3    14    16    1
     4    14     9    1
     5     9    10    2
     6     9    11   am
     7    11     8    1
     8     1     8    1
     9     1     2    1
    10     2     3    1
    11     3     4    1
    12     4     5    1
    13     5     6   am
    14     6     7    2
    15     6    17    1
    16    17    18    1
    17    18    19    1
    18    18    22    1
    19    22    23    1
    20    23    24   ar
    21    24    25   ar
    22    25    26    1
    23    25    27   ar
    24    27    28    1
    25    27    29   ar
    26    29    30   ar
    27    30    31    1
    28     5     1    1
    29    30    23   ar
    30    11    12    1
    31    19    20    1
    32    19    21    1
@<TRIPOS>MOLECULE
*****
 31 32 0 0 0
SMALL
GASTEIGER

@<TRIPOS>ATOM
      1 C          -7.1413  -16.3784   22.8470 C.3     1  UNL1        0.0949
      2 C          -6.2843  -15.4787   23.6872 C.3     1  UNL1        0.0233
      3 C          -5.0463  -16.2373   24.0643 C.3     1  UNL1        0.0233
      4 C          -5.1384  -17.6058   23.4571 C.3     1  UNL1        0.0935
      5 N          -6.4332  -17.6930   22.7047 N.am    1  UNL1       -0.2794
      6 C          -6.9321  -18.8854   21.9438 C.2     1  UNL1        0.2270
      7 O          -8.2536  -18.8247   21.2367 O.2     1  UNL1       -0.2748
      8 C          -8.4728  -16.0254   22.2532 C.3     1  UNL1        0.1091
      9 C         -10.9076  -16.9081   22.0459 C.2     1  UNL1        0.2216
     10 O         -10.8174  -16.8057   20.5520 O.2     1  UNL1       -0.2751
     11 N          -9.7353  -16.5180   22.8964 N.am    1  UNL1       -0.3027
     12 H          -9.7944  -16.5852   23.8768 H       1  UNL1        0.1495
     13 C         -12.7627  -16.0273   22.5774 C.3     1  UNL1        0.0091
     14 C         -12.1700  -17.4007   22.6891 C.3     1  UNL1        0.0689
     15 C         -11.5772  -18.7741   22.8008 C.3     1  UNL1        0.0091
     16 C         -13.4323  -17.8932   23.3323 C.3     1  UNL1        0.0091
     17 C          -6.1096  -20.1386   21.8898 C.3     1  UNL1        0.1010
     18 C          -5.6899  -20.7039   20.5653 C.3     1  UNL1        0.0644
     19 N          -6.6975  -21.3853   19.6875 N.3     1  UNL1       -0.3215
     20 H          -7.6095  -21.3735   20.1442 H       1  UNL1        0.1188
     21 H          -6.4104  -22.3507   19.5264 H       1  UNL1        0.1188
     22 C          -4.2627  -20.5877   20.1185 C.3     1  UNL1        0.0447
     23 C          -3.4564  -19.3788   20.4906 C.ar    1  UNL1        0.0090
     24 C          -2.8438  -19.2770   21.8560 C.ar    1  UNL1        0.0300
     25 C          -2.0374  -18.0682   22.2280 C.ar    1  UNL1        0.1672
     26 F          -1.4248  -17.9664   23.5934 F       1  UNL1       -0.2018
     27 C          -1.8437  -16.9611   21.2346 C.ar    1  UNL1        0.1696
     28 F          -1.0373  -15.7522   21.6067 F       1  UNL1       -0.2017
     29 C          -2.4563  -17.0628   19.8692 C.ar    1  UNL1        0.0612
     30 C          -3.2626  -18.2717   19.4972 C.ar    1  UNL1        0.1386
     31 F          -3.8753  -18.3735   18.1318 F       1  UNL1       -0.2044
@<TRIPOS>BOND
     1    13    14    1
     2    14    15    1
     3    14    16    1
     4    14     9    1
     5     9    10    2
     6     9    11   am
     7    11     8    1
     8     1     8    1
     9     1     2    1
    10     2     3    1
    11     3     4    1
    12     4     5    1
    13     5     6   am
    14     6     7    2
    15     6    17    1
    16    17    18    1
    17    18    19    1
    18    18    22    1
    19    22    23    1
    20    23    24   ar
    21    24    25   ar
    22    25    26    1
    23    25    27   ar
    24    27    28    1
    25    27    29   ar
    26    29    30   ar
    27    30    31    1
    28     5     1    1
    29    30    23   ar
    30    11    12    1
    31    19    20    1
    32    19    21    1
