@<TRIPOS>MOLECULE
*****
 42 47 0 0 0
SMALL
GASTEIGER

@<TRIPOS>ATOM
      1 N           2.7025    2.8434   35.0839 N.3     1  UNL1       -0.2676
      2 C           3.4569    1.7313   34.4175 C.3     1  UNL1        0.0746
      3 C           3.1832    1.3945   32.9817 C.3     1  UNL1        0.0449
      4 C           2.1550    2.1697   32.2123 C.3     1  UNL1        0.1391
      5 C           1.4005    3.2817   32.8787 C.3     1  UNL1        0.0449
      6 C           1.6743    3.6185   34.3145 C.3     1  UNL1        0.0746
      7 C           1.1614    2.8532   31.3203 C.2     1  UNL1        0.2529
      8 O           0.2672    3.9935   31.7075 O.2     1  UNL1       -0.2724
      9 N           1.2191    2.1961   29.9730 N.am    1  UNL1       -0.1907
     10 C           2.2484    1.1065   30.0324 C.2     1  UNL1        0.3219
     11 O           2.6318    0.1935   28.9058 O.2     1  UNL1       -0.2512
     12 N           2.8267    1.0901   31.4164 N.am    1  UNL1       -0.2222
     13 C           3.8901    0.1580   31.9166 C.ar    1  UNL1        0.1453
     14 C           3.5147   -1.1971   32.4387 C.ar    1  UNL1        0.0922
     15 C           4.5781   -2.1292   32.9389 C.ar    1  UNL1        0.2259
     16 O           4.2027   -3.4843   33.4611 O.3     1  UNL1       -0.4919
     17 N           6.0171   -1.7062   32.9171 N.ar    1  UNL1       -0.1894
     18 C           6.3926   -0.3511   32.3950 C.ar    1  UNL1        0.2027
     19 N           5.3291    0.5810   31.8947 N.ar    1  UNL1       -0.2084
     20 H           3.3038   -3.7486   33.4747 H       1  UNL1        0.2938
     21 C           0.3927    2.5640   28.7765 C.ar    1  UNL1        0.0622
     22 C           0.4692    3.9507   28.2099 C.ar    1  UNL1        0.0154
     23 C          -0.3572    4.3186   27.0133 C.ar    1  UNL1        0.0014
     24 C          -1.2601    3.2998   26.3835 C.ar    1  UNL1        0.0031
     25 C          -1.3366    1.9131   26.9501 C.ar    1  UNL1        0.0014
     26 C          -0.5102    1.5452   28.1466 C.ar    1  UNL1        0.0154
     27 C          -2.0865    3.6677   25.1869 C.ar    1  UNL1        0.0386
     28 C          -3.5693    3.8469   25.3259 C.ar    1  UNL1        0.1051
     29 N          -4.3957    4.2148   24.1294 N.ar    1  UNL1       -0.1928
     30 C          -3.7393    4.4036   22.7938 C.ar    1  UNL1        0.3167
     31 O          -4.5657    4.7715   21.5973 O.3     1  UNL1       -0.4784
     32 N          -2.2565    4.2244   22.6549 N.ar    1  UNL1       -0.1928
     33 C          -1.4301    3.8565   23.8515 C.ar    1  UNL1        0.1051
     34 H          -5.4919    4.8834   21.6841 H       1  UNL1        0.2953
     35 C           2.9762    3.1802   36.5198 C.3     1  UNL1        0.1183
     36 C           4.0151    0.6105   37.6674 C.3     1  UNL1        0.0323
     37 C           2.7367    1.2003   38.1849 C.ar    1  UNL1       -0.0069
     38 C           1.9777    0.5053   39.2761 C.ar    1  UNL1       -0.0015
     39 C           0.6993    1.0952   39.7936 C.ar    1  UNL1        0.0203
     40 C           0.1799    2.3800   39.2199 C.ar    1  UNL1        0.0985
     41 N           0.9389    3.0751   38.1285 N.ar    1  UNL1       -0.2471
     42 C           2.2172    2.4852   37.6110 C.ar    1  UNL1        0.0712
@<TRIPOS>BOND
     1    36    37    1
     2    37    38   ar
     3    38    39   ar
     4    39    40   ar
     5    40    41   ar
     6    41    42   ar
     7    42    35    1
     8    35     1    1
     9     1     2    1
    10     2     3    1
    11     3     4    1
    12     4     5    1
    13     5     6    1
    14     4     7    1
    15     7     8    2
    16     7     9   am
    17     9    21    1
    18    21    22   ar
    19    22    23   ar
    20    23    24   ar
    21    24    27    1
    22    27    28   ar
    23    28    29   ar
    24    29    30   ar
    25    30    31    1
    26    30    32   ar
    27    32    33   ar
    28    24    25   ar
    29    25    26   ar
    30     9    10   am
    31    10    11    2
    32    10    12   am
    33    12    13    1
    34    13    14   ar
    35    14    15   ar
    36    15    16    1
    37    15    17   ar
    38    17    18   ar
    39    18    19   ar
    40    42    37   ar
    41     6     1    1
    42    26    21   ar
    43    19    13   ar
    44    12     4    1
    45    33    27   ar
    46    31    34    1
    47    16    20    1
@<TRIPOS>MOLECULE
*****
 42 47 0 0 0
SMALL
GASTEIGER

@<TRIPOS>ATOM
      1 N           3.2792    1.8583   35.2725 N.3     1  UNL1       -0.2676
      2 C           3.9760    0.7836   34.4920 C.3     1  UNL1        0.0746
      3 C           3.6136    0.5447   33.0562 C.3     1  UNL1        0.0449
      4 C           2.5544    1.3806   32.4009 C.3     1  UNL1        0.1391
      5 C           1.8576    2.4554   33.1815 C.3     1  UNL1        0.0449
      6 C           2.2200    2.6943   34.6173 C.3     1  UNL1        0.0746
      7 C           1.5211    2.1327   31.6155 C.2     1  UNL1        0.2529
      8 O           0.6689    3.2556   32.1280 O.2     1  UNL1       -0.2724
      9 N           1.4898    1.5646   30.2275 N.am    1  UNL1       -0.1907
     10 C           2.5036    0.4614   30.1552 C.2     1  UNL1        0.3219
     11 O           2.8063   -0.3802   28.9511 O.2     1  UNL1       -0.2512
     12 N           3.1616    0.3477   31.4984 N.am    1  UNL1       -0.2222
     13 C           4.2377   -0.6276   31.8733 C.ar    1  UNL1        0.1453
     14 C           5.6768   -0.2929   31.6142 C.ar    1  UNL1        0.0922
     15 C           6.7529   -1.2682   31.9892 C.ar    1  UNL1        0.2259
     16 O           8.1919   -0.9335   31.7301 O.3     1  UNL1       -0.4919
     17 N           6.3900   -2.5784   32.6233 N.ar    1  UNL1       -0.1894
     18 C           4.9510   -2.9131   32.8824 C.ar    1  UNL1        0.2027
     19 N           3.8749   -1.9377   32.5074 N.ar    1  UNL1       -0.2084
     20 H           8.4186   -0.1152   31.3340 H       1  UNL1        0.2938
     21 C           0.6007    2.0197   29.1084 C.ar    1  UNL1        0.0622
     22 C          -0.2625    1.0285   28.3858 C.ar    1  UNL1        0.0154
     23 C          -1.1515    1.4836   27.2667 C.ar    1  UNL1        0.0014
     24 C          -1.1775    2.9300   26.8703 C.ar    1  UNL1        0.0031
     25 C          -0.3143    3.9213   27.5930 C.ar    1  UNL1        0.0014
     26 C           0.5748    3.4662   28.7121 C.ar    1  UNL1        0.0154
     27 C          -2.0666    3.3851   25.7512 C.ar    1  UNL1        0.0386
     28 C          -1.5543    3.3915   24.3415 C.ar    1  UNL1        0.1051
     29 N          -2.4433    3.8466   23.2224 N.ar    1  UNL1       -0.1928
     30 C          -3.8449    4.2955   23.5131 C.ar    1  UNL1        0.3167
     31 O          -4.7339    4.7506   22.3940 O.3     1  UNL1       -0.4784
     32 N          -4.3572    4.2891   24.9229 N.ar    1  UNL1       -0.1928
     33 C          -3.4680    3.8340   26.0420 C.ar    1  UNL1        0.1051
     34 H          -4.4139    4.7545   21.5134 H       1  UNL1        0.2953
     35 C           3.6416    2.0973   36.7084 C.3     1  UNL1        0.1183
     36 C           1.7737    4.2930   37.5390 C.3     1  UNL1        0.0323
     37 C           1.6955    2.9504   38.2034 C.ar    1  UNL1       -0.0069
     38 C           0.6834    2.7057   39.2831 C.ar    1  UNL1       -0.0015
     39 C           0.6052    1.3632   39.9475 C.ar    1  UNL1        0.0203
     40 C           1.5391    0.2653   39.5322 C.ar    1  UNL1        0.0985
     41 N           2.5513    0.5100   38.4525 N.ar    1  UNL1       -0.2471
     42 C           2.6295    1.8525   37.7881 C.ar    1  UNL1        0.0712
@<TRIPOS>BOND
     1    36    37    1
     2    37    38   ar
     3    38    39   ar
     4    39    40   ar
     5    40    41   ar
     6    41    42   ar
     7    42    35    1
     8    35     1    1
     9     1     2    1
    10     2     3    1
    11     3     4    1
    12     4     5    1
    13     5     6    1
    14     4     7    1
    15     7     8    2
    16     7     9   am
    17     9    21    1
    18    21    22   ar
    19    22    23   ar
    20    23    24   ar
    21    24    27    1
    22    27    28   ar
    23    28    29   ar
    24    29    30   ar
    25    30    31    1
    26    30    32   ar
    27    32    33   ar
    28    24    25   ar
    29    25    26   ar
    30     9    10   am
    31    10    11    2
    32    10    12   am
    33    12    13    1
    34    13    14   ar
    35    14    15   ar
    36    15    16    1
    37    15    17   ar
    38    17    18   ar
    39    18    19   ar
    40    42    37   ar
    41     6     1    1
    42    26    21   ar
    43    19    13   ar
    44    12     4    1
    45    33    27   ar
    46    31    34    1
    47    16    20    1
@<TRIPOS>MOLECULE
*****
 42 47 0 0 0
SMALL
GASTEIGER

@<TRIPOS>ATOM
      1 N           4.3866    0.6221   35.4424 N.3     1  UNL1       -0.2676
      2 C           5.1409   -0.2673   34.4990 C.3     1  UNL1        0.0746
      3 C           4.7325   -0.3500   33.0580 C.3     1  UNL1        0.0449
      4 C           3.5699    0.4567   32.5605 C.3     1  UNL1        0.1391
      5 C           2.8156    1.3460   33.5039 C.3     1  UNL1        0.0449
      6 C           3.2240    1.4287   34.9448 C.3     1  UNL1        0.0746
      7 C           2.4345    1.2003   31.9218 C.2     1  UNL1        0.2529
      8 O           1.5081    2.1571   32.6119 O.2     1  UNL1       -0.2724
      9 N           2.3881    0.8190   30.4717 N.am    1  UNL1       -0.1907
     10 C           3.4949   -0.1602   30.2143 C.2     1  UNL1        0.3219
     11 O           3.8150   -0.8027   28.8972 O.2     1  UNL1       -0.2512
     12 N           4.2252   -0.3842   31.5051 N.am    1  UNL1       -0.2222
     13 C           5.4040   -1.2899   31.7057 C.ar    1  UNL1        0.1453
     14 C           5.1930   -2.7115   32.1350 C.ar    1  UNL1        0.0922
     15 C           6.3718   -3.6172   32.3355 C.ar    1  UNL1        0.2259
     16 O           6.1609   -5.0389   32.7648 O.3     1  UNL1       -0.4919
     17 N           7.7616   -3.1012   32.1066 N.ar    1  UNL1       -0.1894
     18 C           7.9726   -1.6795   31.6773 C.ar    1  UNL1        0.2027
     19 N           6.7938   -0.7739   31.4768 N.ar    1  UNL1       -0.2084
     20 H           5.2928   -5.3612   32.9077 H       1  UNL1        0.2938
     21 C           1.4072    1.3277   29.4572 C.ar    1  UNL1        0.0622
     22 C           1.4265    2.7722   29.0540 C.ar    1  UNL1        0.0154
     23 C           0.4456    3.2809   28.0395 C.ar    1  UNL1        0.0014
     24 C          -0.5545    2.3450   27.4283 C.ar    1  UNL1        0.0031
     25 C          -0.5738    0.9003   27.8316 C.ar    1  UNL1        0.0014
     26 C           0.4070    0.3917   28.8461 C.ar    1  UNL1        0.0154
     27 C          -1.5354    2.8536   26.4139 C.ar    1  UNL1        0.0386
     28 C          -1.1837    2.8356   24.9558 C.ar    1  UNL1        0.1051
     29 N          -2.1646    3.3443   23.9414 N.ar    1  UNL1       -0.1928
     30 C          -3.4973    3.8710   24.3850 C.ar    1  UNL1        0.3167
     31 O          -4.4781    4.3797   23.3705 O.3     1  UNL1       -0.4784
     32 N          -3.8489    3.8890   25.8431 N.ar    1  UNL1       -0.1928
     33 C          -2.8680    3.3804   26.8576 C.ar    1  UNL1        0.1051
     34 H          -4.2584    4.3684   22.4597 H       1  UNL1        0.2953
     35 C           4.7950    0.7048   36.8834 C.3     1  UNL1        0.1183
     36 C           2.3437    0.9609   38.5940 C.3     1  UNL1        0.0323
     37 C           3.3256    2.0923   38.5162 C.ar    1  UNL1       -0.0069
     38 C           3.0819    3.3516   39.2937 C.ar    1  UNL1       -0.0015
     39 C           4.0638    4.4830   39.2159 C.ar    1  UNL1        0.0203
     40 C           5.2893    4.3549   38.3606 C.ar    1  UNL1        0.0985
     41 N           5.5331    3.0955   37.5831 N.ar    1  UNL1       -0.2471
     42 C           4.5512    1.9641   37.6609 C.ar    1  UNL1        0.0712
@<TRIPOS>BOND
     1    36    37    1
     2    37    38   ar
     3    38    39   ar
     4    39    40   ar
     5    40    41   ar
     6    41    42   ar
     7    42    35    1
     8    35     1    1
     9     1     2    1
    10     2     3    1
    11     3     4    1
    12     4     5    1
    13     5     6    1
    14     4     7    1
    15     7     8    2
    16     7     9   am
    17     9    21    1
    18    21    22   ar
    19    22    23   ar
    20    23    24   ar
    21    24    27    1
    22    27    28   ar
    23    28    29   ar
    24    29    30   ar
    25    30    31    1
    26    30    32   ar
    27    32    33   ar
    28    24    25   ar
    29    25    26   ar
    30     9    10   am
    31    10    11    2
    32    10    12   am
    33    12    13    1
    34    13    14   ar
    35    14    15   ar
    36    15    16    1
    37    15    17   ar
    38    17    18   ar
    39    18    19   ar
    40    42    37   ar
    41     6     1    1
    42    26    21   ar
    43    19    13   ar
    44    12     4    1
    45    33    27   ar
    46    31    34    1
    47    16    20    1
@<TRIPOS>MOLECULE
*****
 42 47 0 0 0
SMALL
GASTEIGER

@<TRIPOS>ATOM
      1 N           6.3477   -2.2836   24.0905 N.3     1  UNL1       -0.2676
      2 C           5.9091   -2.1900   22.6592 C.3     1  UNL1        0.0746
      3 C           4.6643   -1.4320   22.3043 C.3     1  UNL1        0.0449
      4 C           3.8581   -0.7677   23.3807 C.3     1  UNL1        0.1391
      5 C           4.2967   -0.8613   24.8121 C.3     1  UNL1        0.0449
      6 C           5.5415   -1.6193   25.1670 C.3     1  UNL1        0.0746
      7 C           2.9547   -0.0557   24.3435 C.2     1  UNL1        0.2529
      8 O           3.1376    0.0235   25.8302 O.2     1  UNL1       -0.2724
      9 N           1.8364    0.5634   23.5585 N.am    1  UNL1       -0.1907
     10 C           2.0486    0.2339   22.1105 C.2     1  UNL1        0.3219
     11 O           1.1663    0.6534   20.9724 O.2     1  UNL1       -0.2512
     12 N           3.2981   -0.5888   22.0007 N.am    1  UNL1       -0.2222
     13 C           3.8846   -1.1364   20.7334 C.ar    1  UNL1        0.1453
     14 C           3.4729   -2.4921   20.2409 C.ar    1  UNL1        0.0922
     15 C           4.0595   -3.0396   18.9736 C.ar    1  UNL1        0.2259
     16 O           3.6478   -4.3953   18.4811 O.3     1  UNL1       -0.4919
     17 N           5.0578   -2.2315   18.1987 N.ar    1  UNL1       -0.1894
     18 C           5.4695   -0.8758   18.6912 C.ar    1  UNL1        0.2027
     19 N           4.8829   -0.3282   19.9585 N.ar    1  UNL1       -0.2084
     20 H           3.0242   -4.9001   18.9651 H       1  UNL1        0.2938
     21 C           0.7046    1.3703   24.1224 C.ar    1  UNL1        0.0622
     22 C           0.2074    1.0967   25.5108 C.ar    1  UNL1        0.0154
     23 C          -0.9244    1.9035   26.0747 C.ar    1  UNL1        0.0014
     24 C          -1.5590    2.9839   25.2502 C.ar    1  UNL1        0.0031
     25 C          -1.0618    3.2575   23.8617 C.ar    1  UNL1        0.0014
     26 C           0.0700    2.4507   23.2978 C.ar    1  UNL1        0.0154
     27 C          -2.6908    3.7908   25.8141 C.ar    1  UNL1        0.0386
     28 C          -4.0663    3.6644   25.2292 C.ar    1  UNL1        0.1051
     29 N          -5.1981    4.4713   25.7931 N.ar    1  UNL1       -0.1928
     30 C          -4.9545    5.4045   26.9419 C.ar    1  UNL1        0.3167
     31 O          -6.0863    6.2114   27.5058 O.3     1  UNL1       -0.4784
     32 N          -3.5790    5.5309   27.5268 N.ar    1  UNL1       -0.1928
     33 C          -2.4471    4.7240   26.9629 C.ar    1  UNL1        0.1051
     34 H          -6.9455    6.1325   27.1405 H       1  UNL1        0.2953
     35 C           7.5926   -3.0415   24.4455 C.3     1  UNL1        0.1183
     36 C           8.7206   -5.2728   22.7874 C.3     1  UNL1        0.0323
     37 C           8.0599   -5.5738   24.1000 C.ar    1  UNL1       -0.0069
     38 C           7.9633   -6.9904   24.5835 C.ar    1  UNL1       -0.0015
     39 C           7.3026   -7.2914   25.8961 C.ar    1  UNL1        0.0203
     40 C           6.7386   -6.1758   26.7252 C.ar    1  UNL1        0.0985
     41 N           6.8352   -4.7592   26.2416 N.ar    1  UNL1       -0.2471
     42 C           7.4959   -4.4581   24.9290 C.ar    1  UNL1        0.0712
@<TRIPOS>BOND
     1    36    37    1
     2    37    38   ar
     3    38    39   ar
     4    39    40   ar
     5    40    41   ar
     6    41    42   ar
     7    42    35    1
     8    35     1    1
     9     1     2    1
    10     2     3    1
    11     3     4    1
    12     4     5    1
    13     5     6    1
    14     4     7    1
    15     7     8    2
    16     7     9   am
    17     9    21    1
    18    21    22   ar
    19    22    23   ar
    20    23    24   ar
    21    24    27    1
    22    27    28   ar
    23    28    29   ar
    24    29    30   ar
    25    30    31    1
    26    30    32   ar
    27    32    33   ar
    28    24    25   ar
    29    25    26   ar
    30     9    10   am
    31    10    11    2
    32    10    12   am
    33    12    13    1
    34    13    14   ar
    35    14    15   ar
    36    15    16    1
    37    15    17   ar
    38    17    18   ar
    39    18    19   ar
    40    42    37   ar
    41     6     1    1
    42    26    21   ar
    43    19    13   ar
    44    12     4    1
    45    33    27   ar
    46    31    34    1
    47    16    20    1
@<TRIPOS>MOLECULE
*****
 42 47 0 0 0
SMALL
GASTEIGER

@<TRIPOS>ATOM
      1 N           6.5063   -2.4584   23.4430 N.3     1  UNL1       -0.2676
      2 C           7.0117   -3.6251   24.2388 C.3     1  UNL1        0.0746
      3 C           6.8433   -3.6457   25.7291 C.3     1  UNL1        0.0449
      4 C           6.1694   -2.4996   26.4237 C.3     1  UNL1        0.1391
      5 C           5.6640   -1.3329   25.6279 C.3     1  UNL1        0.0449
      6 C           5.8325   -1.3123   24.1375 C.3     1  UNL1        0.0746
      7 C           5.5196   -1.4314   27.2524 C.2     1  UNL1        0.2529
      8 O           4.9241   -0.1551   26.7362 O.2     1  UNL1       -0.2724
      9 N           5.5698   -1.8636   28.6880 N.am    1  UNL1       -0.1907
     10 C           6.2507   -3.1990   28.7464 C.2     1  UNL1        0.3219
     11 O           6.5146   -4.0005   29.9865 O.2     1  UNL1       -0.2512
     12 N           6.6213   -3.5920   27.3471 N.am    1  UNL1       -0.2222
     13 C           7.3209   -4.8555   26.9421 C.ar    1  UNL1        0.1453
     14 C           6.5607   -6.1472   26.8809 C.ar    1  UNL1        0.0922
     15 C           7.2604   -7.4107   26.4760 C.ar    1  UNL1        0.2259
     16 O           6.5003   -8.7023   26.4148 O.3     1  UNL1       -0.4919
     17 N           8.7202   -7.3826   26.1321 N.ar    1  UNL1       -0.1894
     18 C           9.4803   -6.0909   26.1933 C.ar    1  UNL1        0.2027
     19 N           8.7807   -4.8274   26.5983 N.ar    1  UNL1       -0.2084
     20 H           5.5884   -8.7199   26.6296 H       1  UNL1        0.2938
     21 C           5.0333   -1.0954   29.8593 C.ar    1  UNL1        0.0622
     22 C           3.5866   -0.7016   29.8988 C.ar    1  UNL1        0.0154
     23 C           3.0501    0.0666   31.0702 C.ar    1  UNL1        0.0014
     24 C           3.9604    0.4409   32.2020 C.ar    1  UNL1        0.0031
     25 C           5.4073    0.0471   32.1625 C.ar    1  UNL1        0.0014
     26 C           5.9437   -0.7211   30.9911 C.ar    1  UNL1        0.0154
     27 C           3.4240    1.2091   33.3733 C.ar    1  UNL1        0.0386
     28 C           2.2399    2.1133   33.1985 C.ar    1  UNL1        0.1051
     29 N           1.7034    2.8815   34.3699 N.ar    1  UNL1       -0.1928
     30 C           2.3510    2.7455   35.7161 C.ar    1  UNL1        0.3167
     31 O           1.8146    3.5137   36.8875 O.3     1  UNL1       -0.4784
     32 N           3.5351    1.8414   35.8909 N.ar    1  UNL1       -0.1928
     33 C           4.0716    1.0732   34.7195 C.ar    1  UNL1        0.1051
     34 H           1.0749    4.0785   36.7783 H       1  UNL1        0.2953
     35 C           6.6747   -2.4378   21.9526 C.3     1  UNL1        0.1183
     36 C           4.8240   -0.3963   20.7663 C.3     1  UNL1        0.0323
     37 C           4.6220   -1.8530   20.4711 C.ar    1  UNL1       -0.0069
     38 C           3.4948   -2.2891   19.5829 C.ar    1  UNL1       -0.0015
     39 C           3.2928   -3.7458   19.2877 C.ar    1  UNL1        0.0203
     40 C           4.2181   -4.7665   19.8808 C.ar    1  UNL1        0.0985
     41 N           5.3455   -4.3305   20.7691 N.ar    1  UNL1       -0.2471
     42 C           5.5475   -2.8738   21.0643 C.ar    1  UNL1        0.0712
@<TRIPOS>BOND
     1    36    37    1
     2    37    38   ar
     3    38    39   ar
     4    39    40   ar
     5    40    41   ar
     6    41    42   ar
     7    42    35    1
     8    35     1    1
     9     1     2    1
    10     2     3    1
    11     3     4    1
    12     4     5    1
    13     5     6    1
    14     4     7    1
    15     7     8    2
    16     7     9   am
    17     9    21    1
    18    21    22   ar
    19    22    23   ar
    20    23    24   ar
    21    24    27    1
    22    27    28   ar
    23    28    29   ar
    24    29    30   ar
    25    30    31    1
    26    30    32   ar
    27    32    33   ar
    28    24    25   ar
    29    25    26   ar
    30     9    10   am
    31    10    11    2
    32    10    12   am
    33    12    13    1
    34    13    14   ar
    35    14    15   ar
    36    15    16    1
    37    15    17   ar
    38    17    18   ar
    39    18    19   ar
    40    42    37   ar
    41     6     1    1
    42    26    21   ar
    43    19    13   ar
    44    12     4    1
    45    33    27   ar
    46    31    34    1
    47    16    20    1
@<TRIPOS>MOLECULE
*****
 42 47 0 0 0
SMALL
GASTEIGER

@<TRIPOS>ATOM
      1 N          -2.6848    3.8974   20.6488 N.3     1  UNL1       -0.2676
      2 C          -3.8395    4.4034   21.4615 C.3     1  UNL1        0.0746
      3 C          -3.7954    4.3224   22.9587 C.3     1  UNL1        0.0449
      4 C          -2.5967    3.7354   23.6431 C.3     1  UNL1        0.1391
      5 C          -1.4420    3.2294   22.8303 C.3     1  UNL1        0.0449
      6 C          -1.4860    3.3104   21.3332 C.3     1  UNL1        0.0746
      7 C          -1.4715    3.1773   24.4631 C.2     1  UNL1        0.2529
      8 O          -0.1929    2.6021   23.9300 O.2     1  UNL1       -0.2724
      9 N          -1.8495    3.2952   25.9100 N.am    1  UNL1       -0.1907
     10 C          -3.2083    3.9263   25.9841 C.2     1  UNL1        0.3219
     11 O          -3.9713    4.2317   27.2388 O.2     1  UNL1       -0.2512
     12 N          -3.6701    4.1984   24.5831 N.am    1  UNL1       -0.2222
     13 C          -4.9759    4.8235   24.1909 C.ar    1  UNL1        0.1453
     14 C          -6.1984    3.9692   24.0309 C.ar    1  UNL1        0.0922
     15 C          -7.5042    4.5945   23.6386 C.ar    1  UNL1        0.2259
     16 O          -8.7268    3.7402   23.4786 O.3     1  UNL1       -0.4919
     17 N          -7.5876    6.0741   23.4064 N.ar    1  UNL1       -0.1894
     18 C          -6.3651    6.9284   23.5664 C.ar    1  UNL1        0.2027
     19 N          -5.0593    6.3031   23.9587 N.ar    1  UNL1       -0.2084
     20 H          -8.6747    2.8160   23.6236 H       1  UNL1        0.2938
     21 C          -1.0152    2.8588   27.0777 C.ar    1  UNL1        0.0622
     22 C          -0.2222    3.8693   27.8521 C.ar    1  UNL1        0.0154
     23 C           0.6121    3.4328   29.0198 C.ar    1  UNL1        0.0014
     24 C           0.6533    1.9859   29.4130 C.ar    1  UNL1        0.0031
     25 C          -0.1398    0.9754   28.6385 C.ar    1  UNL1        0.0014
     26 C          -0.9741    1.4118   27.4708 C.ar    1  UNL1        0.0154
     27 C           1.4876    1.5495   30.5806 C.ar    1  UNL1        0.0386
     28 C           1.3481    2.2434   31.9032 C.ar    1  UNL1        0.1051
     29 N           2.1824    1.8069   33.0708 N.ar    1  UNL1       -0.1928
     30 C           3.1563    0.6765   32.9160 C.ar    1  UNL1        0.3167
     31 O           3.9906    0.2401   34.0837 O.3     1  UNL1       -0.4784
     32 N           3.2958   -0.0174   31.5935 N.ar    1  UNL1       -0.1928
     33 C           2.4615    0.4191   30.4258 C.ar    1  UNL1        0.1051
     34 H           3.9034    0.6735   34.9098 H       1  UNL1        0.2953
     35 C          -2.7288    3.9784   19.1516 C.3     1  UNL1        0.1183
     36 C          -5.5562    3.5645   18.2378 C.3     1  UNL1        0.0323
     37 C          -4.8857    4.8895   18.0256 C.ar    1  UNL1       -0.0069
     38 C          -5.6289    6.0075   17.3565 C.ar    1  UNL1       -0.0015
     39 C          -4.9584    7.3324   17.1442 C.ar    1  UNL1        0.0203
     40 C          -3.5448    7.5393   17.6011 C.ar    1  UNL1        0.0985
     41 N          -2.8015    6.4213   18.2703 N.ar    1  UNL1       -0.2471
     42 C          -3.4720    5.0964   18.4825 C.ar    1  UNL1        0.0712
@<TRIPOS>BOND
     1    36    37    1
     2    37    38   ar
     3    38    39   ar
     4    39    40   ar
     5    40    41   ar
     6    41    42   ar
     7    42    35    1
     8    35     1    1
     9     1     2    1
    10     2     3    1
    11     3     4    1
    12     4     5    1
    13     5     6    1
    14     4     7    1
    15     7     8    2
    16     7     9   am
    17     9    21    1
    18    21    22   ar
    19    22    23   ar
    20    23    24   ar
    21    24    27    1
    22    27    28   ar
    23    28    29   ar
    24    29    30   ar
    25    30    31    1
    26    30    32   ar
    27    32    33   ar
    28    24    25   ar
    29    25    26   ar
    30     9    10   am
    31    10    11    2
    32    10    12   am
    33    12    13    1
    34    13    14   ar
    35    14    15   ar
    36    15    16    1
    37    15    17   ar
    38    17    18   ar
    39    18    19   ar
    40    42    37   ar
    41     6     1    1
    42    26    21   ar
    43    19    13   ar
    44    12     4    1
    45    33    27   ar
    46    31    34    1
    47    16    20    1
@<TRIPOS>MOLECULE
*****
 42 47 0 0 0
SMALL
GASTEIGER

@<TRIPOS>ATOM
      1 N          -2.4643    4.0331   20.6696 N.3     1  UNL1       -0.2676
      2 C          -3.6143    4.5101   21.5062 C.3     1  UNL1        0.0746
      3 C          -3.5755    4.3476   22.9968 C.3     1  UNL1        0.0449
      4 C          -2.3867    3.7080   23.6509 C.3     1  UNL1        0.1391
      5 C          -1.2367    3.2310   22.8143 C.3     1  UNL1        0.0449
      6 C          -1.2755    3.3935   21.3236 C.3     1  UNL1        0.0746
      7 C          -1.2715    3.0909   24.4418 C.2     1  UNL1        0.2529
      8 O           0.0007    2.5281   23.8809 O.2     1  UNL1       -0.2724
      9 N          -1.6519    3.1356   25.8922 N.am    1  UNL1       -0.1907
     10 C          -3.0022    3.7803   25.9975 C.2     1  UNL1        0.3219
     11 O          -3.7645    4.0277   27.2654 O.2     1  UNL1       -0.2512
     12 N          -3.4564    4.1340   24.6124 N.am    1  UNL1       -0.2222
     13 C          -4.7525    4.7973   24.2520 C.ar    1  UNL1        0.1453
     14 C          -5.9767    3.9667   24.0043 C.ar    1  UNL1        0.0922
     15 C          -7.2728    4.6301   23.6438 C.ar    1  UNL1        0.2259
     16 O          -8.4970    3.7995   23.3961 O.3     1  UNL1       -0.4919
     17 N          -7.3448    6.1242   23.5311 N.ar    1  UNL1       -0.1894
     18 C          -6.1206    6.9548   23.7787 C.ar    1  UNL1        0.2027
     19 N          -4.8245    6.2914   24.1392 N.ar    1  UNL1       -0.2084
     20 H          -8.4521    2.8662   23.4666 H       1  UNL1        0.2938
     21 C          -0.8268    2.6252   27.0362 C.ar    1  UNL1        0.0622
     22 C          -1.0329    1.2295   27.5455 C.ar    1  UNL1        0.0154
     23 C          -0.2079    0.7191   28.6895 C.ar    1  UNL1        0.0014
     24 C           0.8233    1.6044   29.3242 C.ar    1  UNL1        0.0031
     25 C           1.0294    3.0002   28.8148 C.ar    1  UNL1        0.0014
     26 C           0.2043    3.5106   27.6708 C.ar    1  UNL1        0.0154
     27 C           1.6483    1.0940   30.4682 C.ar    1  UNL1        0.0386
     28 C           2.3011   -0.2536   30.3796 C.ar    1  UNL1        0.1051
     29 N           3.1261   -0.7640   31.5236 N.ar    1  UNL1       -0.1928
     30 C           3.2984    0.0733   32.7563 C.ar    1  UNL1        0.3167
     31 O           4.1235   -0.4371   33.9003 O.3     1  UNL1       -0.4784
     32 N           2.6457    1.4209   32.8449 N.ar    1  UNL1       -0.1928
     33 C           1.8206    1.9313   31.7008 C.ar    1  UNL1        0.1051
     34 H           4.5312   -1.2789   33.8449 H       1  UNL1        0.2953
     35 C          -2.5030    4.1956   19.1789 C.3     1  UNL1        0.1183
     36 C          -0.0397    3.0600   17.8973 C.3     1  UNL1        0.0323
     37 C          -0.2926    4.5380   17.8571 C.ar    1  UNL1       -0.0069
     38 C           0.6860    5.4482   17.1762 C.ar    1  UNL1       -0.0015
     39 C           0.4331    6.9262   17.1361 C.ar    1  UNL1        0.0203
     40 C          -0.7986    7.4940   17.7769 C.ar    1  UNL1        0.0985
     41 N          -1.7774    6.5837   18.4578 N.ar    1  UNL1       -0.2471
     42 C          -1.5244    5.1058   18.4980 C.ar    1  UNL1        0.0712
@<TRIPOS>BOND
     1    36    37    1
     2    37    38   ar
     3    38    39   ar
     4    39    40   ar
     5    40    41   ar
     6    41    42   ar
     7    42    35    1
     8    35     1    1
     9     1     2    1
    10     2     3    1
    11     3     4    1
    12     4     5    1
    13     5     6    1
    14     4     7    1
    15     7     8    2
    16     7     9   am
    17     9    21    1
    18    21    22   ar
    19    22    23   ar
    20    23    24   ar
    21    24    27    1
    22    27    28   ar
    23    28    29   ar
    24    29    30   ar
    25    30    31    1
    26    30    32   ar
    27    32    33   ar
    28    24    25   ar
    29    25    26   ar
    30     9    10   am
    31    10    11    2
    32    10    12   am
    33    12    13    1
    34    13    14   ar
    35    14    15   ar
    36    15    16    1
    37    15    17   ar
    38    17    18   ar
    39    18    19   ar
    40    42    37   ar
    41     6     1    1
    42    26    21   ar
    43    19    13   ar
    44    12     4    1
    45    33    27   ar
    46    31    34    1
    47    16    20    1
@<TRIPOS>MOLECULE
*****
 42 47 0 0 0
SMALL
GASTEIGER

@<TRIPOS>ATOM
      1 N           2.5664   -0.5922   21.3160 N.3     1  UNL1       -0.2676
      2 C           1.8296    0.6973   21.5262 C.3     1  UNL1        0.0746
      3 C           1.7012    1.2714   22.9060 C.3     1  UNL1        0.0449
      4 C           2.3097    0.5561   24.0756 C.3     1  UNL1        0.1391
      5 C           3.0466   -0.7334   23.8654 C.3     1  UNL1        0.0449
      6 C           3.1749   -1.3076   22.4856 C.3     1  UNL1        0.0746
      7 C           2.8627   -0.0429   25.3348 C.2     1  UNL1        0.2529
      8 O           3.6411   -1.3212   25.4352 O.2     1  UNL1       -0.2724
      9 N           2.5006    0.8609   26.4760 N.am    1  UNL1       -0.1907
     10 C           1.7238    2.0184   25.9220 C.2     1  UNL1        0.3219
     11 O           1.1634    3.1632   26.7126 O.2     1  UNL1       -0.2512
     12 N           1.6059    1.8301   24.4386 N.am    1  UNL1       -0.2222
     13 C           0.9068    2.7534   23.4853 C.ar    1  UNL1        0.1453
     14 C          -0.5480    2.5543   23.1790 C.ar    1  UNL1        0.0922
     15 C          -1.2469    3.4777   22.2258 C.ar    1  UNL1        0.2259
     16 O          -2.7017    3.2786   21.9194 O.3     1  UNL1       -0.4919
     17 N          -0.4911    4.6004   21.5788 N.ar    1  UNL1       -0.1894
     18 C           0.9637    4.7995   21.8851 C.ar    1  UNL1        0.2027
     19 N           1.6626    3.8761   22.8384 N.ar    1  UNL1       -0.2084
     20 H          -3.1739    2.5773   22.3235 H       1  UNL1        0.2938
     21 C           2.8533    0.6450   27.9178 C.ar    1  UNL1        0.0622
     22 C           2.0790   -0.3424   28.7396 C.ar    1  UNL1        0.0154
     23 C           2.4318   -0.5583   30.1814 C.ar    1  UNL1        0.0014
     24 C           3.5587    0.2133   30.8015 C.ar    1  UNL1        0.0031
     25 C           4.3330    1.2008   29.9797 C.ar    1  UNL1        0.0014
     26 C           3.9803    1.4166   28.5378 C.ar    1  UNL1        0.0154
     27 C           3.9114   -0.0026   32.2434 C.ar    1  UNL1        0.0386
     28 C           3.8782    1.1489   33.2041 C.ar    1  UNL1        0.1051
     29 N           4.2309    0.9330   34.6460 N.ar    1  UNL1       -0.1928
     30 C           4.6168   -0.4344   35.1272 C.ar    1  UNL1        0.3167
     31 O           4.9696   -0.6502   36.5690 O.3     1  UNL1       -0.4784
     32 N           4.6501   -1.5858   34.1664 N.ar    1  UNL1       -0.1928
     33 C           4.2973   -1.3699   32.7245 C.ar    1  UNL1        0.1051
     34 H           4.9488    0.0691   37.1692 H       1  UNL1        0.2953
     35 C           2.6948   -1.1664   19.9362 C.3     1  UNL1        0.1183
     36 C           3.4525   -3.9833   19.2354 C.3     1  UNL1        0.0323
     37 C           4.4311   -2.8673   19.0184 C.ar    1  UNL1       -0.0069
     38 C           5.7885   -3.1598   18.4511 C.ar    1  UNL1       -0.0015
     39 C           6.7670   -2.0438   18.2341 C.ar    1  UNL1        0.0203
     40 C           6.3882   -0.6354   18.5845 C.ar    1  UNL1        0.0985
     41 N           5.0307   -0.3429   19.1519 N.ar    1  UNL1       -0.2471
     42 C           4.0522   -1.4588   19.3688 C.ar    1  UNL1        0.0712
@<TRIPOS>BOND
     1    36    37    1
     2    37    38   ar
     3    38    39   ar
     4    39    40   ar
     5    40    41   ar
     6    41    42   ar
     7    42    35    1
     8    35     1    1
     9     1     2    1
    10     2     3    1
    11     3     4    1
    12     4     5    1
    13     5     6    1
    14     4     7    1
    15     7     8    2
    16     7     9   am
    17     9    21    1
    18    21    22   ar
    19    22    23   ar
    20    23    24   ar
    21    24    27    1
    22    27    28   ar
    23    28    29   ar
    24    29    30   ar
    25    30    31    1
    26    30    32   ar
    27    32    33   ar
    28    24    25   ar
    29    25    26   ar
    30     9    10   am
    31    10    11    2
    32    10    12   am
    33    12    13    1
    34    13    14   ar
    35    14    15   ar
    36    15    16    1
    37    15    17   ar
    38    17    18   ar
    39    18    19   ar
    40    42    37   ar
    41     6     1    1
    42    26    21   ar
    43    19    13   ar
    44    12     4    1
    45    33    27   ar
    46    31    34    1
    47    16    20    1
@<TRIPOS>MOLECULE
*****
 42 47 0 0 0
SMALL
GASTEIGER

@<TRIPOS>ATOM
      1 N           3.9602   -1.6979   22.7830 N.3     1  UNL1       -0.2676
      2 C           5.1833   -2.4535   23.2109 C.3     1  UNL1        0.0746
      3 C           5.6194   -2.4237   24.6458 C.3     1  UNL1        0.0449
      4 C           4.8324   -1.6385   25.6527 C.3     1  UNL1        0.1391
      5 C           3.6093   -0.8829   25.2248 C.3     1  UNL1        0.0449
      6 C           3.1732   -0.9126   23.7899 C.3     1  UNL1        0.0746
      7 C           4.1498   -0.9013   26.7666 C.2     1  UNL1        0.2529
      8 O           2.9113   -0.0644   26.6411 O.2     1  UNL1       -0.2724
      9 N           4.9232   -1.1479   28.0280 N.am    1  UNL1       -0.1907
     10 C           6.0838   -2.0375   27.6937 C.2     1  UNL1        0.3219
     11 O           7.1187   -2.5364   28.6580 O.2     1  UNL1       -0.2512
     12 N           6.0277   -2.3407   26.2257 N.am    1  UNL1       -0.2222
     13 C           6.9966   -3.1959   25.4644 C.ar    1  UNL1        0.1453
     14 C           6.8436   -4.6881   25.4682 C.ar    1  UNL1        0.0922
     15 C           7.8126   -5.5433   24.7068 C.ar    1  UNL1        0.2259
     16 O           7.6597   -7.0354   24.7106 O.3     1  UNL1       -0.4919
     17 N           8.9346   -4.9063   23.9415 N.ar    1  UNL1       -0.1894
     18 C           9.0875   -3.4142   23.9377 C.ar    1  UNL1        0.2027
     19 N           8.1185   -2.5590   24.6991 N.ar    1  UNL1       -0.2084
     20 H           6.9589   -7.4333   25.1886 H       1  UNL1        0.2938
     21 C           4.5939   -0.6009   29.3853 C.ar    1  UNL1        0.0622
     22 C           3.2082   -0.7526   29.9390 C.ar    1  UNL1        0.0154
     23 C           2.8789   -0.2056   31.2964 C.ar    1  UNL1        0.0014
     24 C           3.9353    0.4929   32.1000 C.ar    1  UNL1        0.0031
     25 C           5.3211    0.6446   31.5463 C.ar    1  UNL1        0.0014
     26 C           5.6504    0.0977   30.1889 C.ar    1  UNL1        0.0154
     27 C           3.6060    1.0399   33.4573 C.ar    1  UNL1        0.0386
     28 C           2.4696    2.0052   33.6215 C.ar    1  UNL1        0.1051
     29 N           2.1403    2.5522   34.9788 N.ar    1  UNL1       -0.1928
     30 C           2.9473    2.1338   36.1721 C.ar    1  UNL1        0.3167
     31 O           2.6180    2.6807   37.5294 O.3     1  UNL1       -0.4784
     32 N           4.0837    1.1685   36.0079 N.ar    1  UNL1       -0.1928
     33 C           4.4130    0.6215   34.6505 C.ar    1  UNL1        0.1051
     34 H           1.9082    3.2838   37.6320 H       1  UNL1        0.2953
     35 C           3.5241   -1.7277   21.3480 C.3     1  UNL1        0.1183
     36 C           3.5185   -4.0079   19.3985 C.3     1  UNL1        0.0323
     37 C           4.5458   -2.9214   19.2789 C.ar    1  UNL1       -0.0069
     38 C           5.5702   -2.9750   18.1846 C.ar    1  UNL1       -0.0015
     39 C           6.5975   -1.8885   18.0650 C.ar    1  UNL1        0.0203
     40 C           6.6003   -0.7484   19.0398 C.ar    1  UNL1        0.0985
     41 N           5.5758   -0.6948   20.1342 N.ar    1  UNL1       -0.2471
     42 C           4.5485   -1.7813   20.2537 C.ar    1  UNL1        0.0712
@<TRIPOS>BOND
     1    36    37    1
     2    37    38   ar
     3    38    39   ar
     4    39    40   ar
     5    40    41   ar
     6    41    42   ar
     7    42    35    1
     8    35     1    1
     9     1     2    1
    10     2     3    1
    11     3     4    1
    12     4     5    1
    13     5     6    1
    14     4     7    1
    15     7     8    2
    16     7     9   am
    17     9    21    1
    18    21    22   ar
    19    22    23   ar
    20    23    24   ar
    21    24    27    1
    22    27    28   ar
    23    28    29   ar
    24    29    30   ar
    25    30    31    1
    26    30    32   ar
    27    32    33   ar
    28    24    25   ar
    29    25    26   ar
    30     9    10   am
    31    10    11    2
    32    10    12   am
    33    12    13    1
    34    13    14   ar
    35    14    15   ar
    36    15    16    1
    37    15    17   ar
    38    17    18   ar
    39    18    19   ar
    40    42    37   ar
    41     6     1    1
    42    26    21   ar
    43    19    13   ar
    44    12     4    1
    45    33    27   ar
    46    31    34    1
    47    16    20    1
