@<TRIPOS>MOLECULE
*****
 27 30 0 0 0
SMALL
GASTEIGER

@<TRIPOS>ATOM
      1 C          -5.8152  -15.6415   26.1399 C.ar    1  UNL1        0.1386
      2 C          -4.8731  -16.8003   26.2807 C.ar    1  UNL1        0.0369
      3 C          -4.1436  -17.3240   25.0794 C.ar    1  UNL1        0.0043
      4 C          -4.3560  -16.6890   23.7370 C.ar    1  UNL1        0.0153
      5 C          -5.2981  -15.5302   23.5962 C.ar    1  UNL1        0.0043
      6 C          -6.0277  -15.0065   24.7977 C.ar    1  UNL1        0.0369
      7 C          -3.6265  -17.2128   22.5356 C.2     1  UNL1        0.0766
      8 N          -2.3657  -16.5443   22.0734 N.2     1  UNL1       -0.1801
      9 N          -1.6361  -17.0680   20.8721 N.am    1  UNL1       -0.1793
     10 C          -0.3753  -16.3995   20.4099 C.3     1  UNL1        0.1428
     11 C          -2.1673  -18.2603   20.1328 C.2     1  UNL1        0.2442
     12 O          -1.4376  -18.7840   18.9314 O.2     1  UNL1       -0.2731
     13 C          -3.4280  -18.9288   20.5951 C.3     1  UNL1        0.0840
     14 C          -4.1864  -20.1124   20.0717 C.3     1  UNL1        0.0095
     15 C          -5.3848  -20.3201   20.9496 C.3     1  UNL1        0.0009
     16 C          -5.3670  -19.2649   22.0156 C.3     1  UNL1        0.0065
     17 C          -4.1576  -18.4050   21.7965 C.3     1  UNL1        0.0505
     18 O          -6.5447  -15.1178   27.3413 O.3     1  UNL1       -0.4754
     19 C          -8.0098  -15.3931   27.5081 C.3     1  UNL1        0.2068
     20 C          -8.6157  -16.6234   26.9005 C.3     1  UNL1        0.0646
     21 C          -9.1285  -16.5892   25.4912 C.3     1  UNL1        0.0759
     22 C          -8.2817  -17.1631   22.3923 C.3     1  UNL1        0.0173
     23 C          -8.9559  -18.1336   23.3163 C.3     1  UNL1        0.0576
     24 C          -9.3592  -19.5382   22.9781 C.3     1  UNL1        0.0174
     25 C          -9.9977  -20.1424   24.1934 C.3     1  UNL1        0.0187
     26 C          -9.9890  -19.1113   25.2827 C.3     1  UNL1        0.0721
     27 N          -9.3452  -17.8697   24.7407 N.3     1  UNL1       -0.2738
@<TRIPOS>BOND
     1    23    22    1
     2    23    24    1
     3    24    25    1
     4    25    26    1
     5    26    27    1
     6    27    21    1
     7    21    20    1
     8    20    19    1
     9    19    18    1
    10    18     1    1
    11     1     2   ar
    12     2     3   ar
    13     3     4   ar
    14     4     7    1
    15     7     8    2
    16     8     9    1
    17     9    10    1
    18     9    11   am
    19    11    12    2
    20    11    13    1
    21    13    14    1
    22    14    15    1
    23    15    16    1
    24    16    17    1
    25     4     5   ar
    26     5     6   ar
    27    27    23    1
    28     6     1   ar
    29    17     7    1
    30    17    13    1
@<TRIPOS>MOLECULE
*****
 27 30 0 0 0
SMALL
GASTEIGER

@<TRIPOS>ATOM
      1 C          -5.0089  -16.7464   23.4624 C.ar    1  UNL1        0.1386
      2 C          -5.9436  -15.6329   23.8321 C.ar    1  UNL1        0.0369
      3 C          -7.3865  -15.6994   23.4278 C.ar    1  UNL1        0.0043
      4 C          -7.8948  -16.8795   22.6537 C.ar    1  UNL1        0.0153
      5 C          -6.9603  -17.9929   22.2840 C.ar    1  UNL1        0.0043
      6 C          -5.5173  -17.9263   22.6883 C.ar    1  UNL1        0.0369
      7 C          -9.3378  -16.9460   22.2494 C.2     1  UNL1        0.0766
      8 N          -9.7902  -16.2974   20.9748 N.2     1  UNL1       -0.1801
      9 N         -11.2331  -16.3639   20.5704 N.am    1  UNL1       -0.1793
     10 C         -11.6855  -15.7153   19.2957 C.3     1  UNL1        0.1428
     11 C         -12.2237  -17.0790   21.4408 C.2     1  UNL1        0.2442
     12 O         -13.6667  -17.1455   21.0364 O.2     1  UNL1       -0.2731
     13 C         -11.7713  -17.7275   22.7154 C.3     1  UNL1        0.0840
     14 C         -12.5128  -18.4968   23.7682 C.3     1  UNL1        0.0095
     15 C         -11.5280  -18.9058   24.8232 C.3     1  UNL1        0.0009
     16 C         -10.1780  -18.3892   24.4224 C.3     1  UNL1        0.0065
     17 C         -10.3284  -17.6610   23.1197 C.3     1  UNL1        0.0505
     18 O          -3.5661  -16.6798   23.8667 O.3     1  UNL1       -0.4754
     19 C          -2.4987  -17.1315   22.9144 C.3     1  UNL1        0.2068
     20 C          -2.0560  -18.5646   22.9090 C.3     1  UNL1        0.0646
     21 C          -2.2084  -19.3920   21.6670 C.3     1  UNL1        0.0759
     22 C           0.1228  -17.8649   19.9693 C.3     1  UNL1        0.0173
     23 C          -1.3107  -18.0202   19.5559 C.3     1  UNL1        0.0576
     24 C          -1.9244  -17.5008   18.2895 C.3     1  UNL1        0.0174
     25 C          -3.3751  -17.8818   18.2872 C.3     1  UNL1        0.0187
     26 C          -3.6581  -18.6366   19.5522 C.3     1  UNL1        0.0721
     27 N          -2.3823  -18.7222   20.3363 N.3     1  UNL1       -0.2738
@<TRIPOS>BOND
     1    23    22    1
     2    23    24    1
     3    24    25    1
     4    25    26    1
     5    26    27    1
     6    27    21    1
     7    21    20    1
     8    20    19    1
     9    19    18    1
    10    18     1    1
    11     1     2   ar
    12     2     3   ar
    13     3     4   ar
    14     4     7    1
    15     7     8    2
    16     8     9    1
    17     9    10    1
    18     9    11   am
    19    11    12    2
    20    11    13    1
    21    13    14    1
    22    14    15    1
    23    15    16    1
    24    16    17    1
    25     4     5   ar
    26     5     6   ar
    27    27    23    1
    28     6     1   ar
    29    17     7    1
    30    17    13    1
@<TRIPOS>MOLECULE
*****
 27 30 0 0 0
SMALL
GASTEIGER

@<TRIPOS>ATOM
      1 C         -15.8163   -9.4215   18.5952 C.ar    1  UNL1        0.1386
      2 C         -14.7320   -9.1503   17.5948 C.ar    1  UNL1        0.0369
      3 C         -13.9676   -7.8609   17.6482 C.ar    1  UNL1        0.0043
      4 C         -14.2874   -6.8424   18.7021 C.ar    1  UNL1        0.0153
      5 C         -15.3717   -7.1135   19.7025 C.ar    1  UNL1        0.0043
      6 C         -16.1361   -8.4031   19.6490 C.ar    1  UNL1        0.0369
      7 C         -13.5230   -5.5529   18.7555 C.2     1  UNL1        0.0766
      8 N         -14.2562   -4.2447   18.7279 N.2     1  UNL1       -0.1801
      9 N         -13.4919   -2.9552   18.7814 N.am    1  UNL1       -0.1793
     10 C         -14.2252   -1.6469   18.7538 C.3     1  UNL1        0.1428
     11 C         -11.9941   -2.9739   18.8623 C.2     1  UNL1        0.2442
     12 O         -11.2297   -1.6844   18.9158 O.2     1  UNL1       -0.2731
     13 C         -11.2609   -4.2822   18.8899 C.3     1  UNL1        0.0840
     14 C          -9.7996   -4.6123   18.9660 C.3     1  UNL1        0.0095
     15 C          -9.6610   -6.1059   18.9596 C.3     1  UNL1        0.0009
     16 C         -11.0365   -6.6988   18.8796 C.3     1  UNL1        0.0065
     17 C         -12.0253   -5.5717   18.8365 C.3     1  UNL1        0.0505
     18 O         -16.5807  -10.7109   18.5417 O.3     1  UNL1       -0.4754
     19 C         -18.0642  -10.6948   18.3203 C.3     1  UNL1        0.2068
     20 C         -18.6490   -9.8621   17.2183 C.3     1  UNL1        0.0646
     21 C         -19.2662   -8.5311   17.5306 C.3     1  UNL1        0.0759
     22 C         -19.4289   -5.8292   19.3534 C.3     1  UNL1        0.0173
     23 C         -18.5574   -6.0290   18.1490 C.3     1  UNL1        0.0576
     24 C         -17.6078   -5.0221   17.5710 C.3     1  UNL1        0.0174
     25 C         -16.9461   -5.6416   16.3759 C.3     1  UNL1        0.0187
     26 C         -17.4868   -7.0315   16.2153 C.3     1  UNL1        0.0721
     27 N         -18.4827   -7.2710   17.3111 N.3     1  UNL1       -0.2738
@<TRIPOS>BOND
     1    23    22    1
     2    23    24    1
     3    24    25    1
     4    25    26    1
     5    26    27    1
     6    27    21    1
     7    21    20    1
     8    20    19    1
     9    19    18    1
    10    18     1    1
    11     1     2   ar
    12     2     3   ar
    13     3     4   ar
    14     4     7    1
    15     7     8    2
    16     8     9    1
    17     9    10    1
    18     9    11   am
    19    11    12    2
    20    11    13    1
    21    13    14    1
    22    14    15    1
    23    15    16    1
    24    16    17    1
    25     4     5   ar
    26     5     6   ar
    27    27    23    1
    28     6     1   ar
    29    17     7    1
    30    17    13    1
@<TRIPOS>MOLECULE
*****
 27 30 0 0 0
SMALL
GASTEIGER

@<TRIPOS>ATOM
      1 C         -11.3679   -5.6573   18.8484 C.ar    1  UNL1        0.1386
      2 C         -11.6460   -6.8906   18.0410 C.ar    1  UNL1        0.0369
      3 C         -12.9945   -7.5438   18.1099 C.ar    1  UNL1        0.0043
      4 C         -14.0650   -6.9637   18.9862 C.ar    1  UNL1        0.0153
      5 C         -13.7869   -5.7305   19.7935 C.ar    1  UNL1        0.0043
      6 C         -12.4383   -5.0773   19.7246 C.ar    1  UNL1        0.0369
      7 C         -15.4135   -7.6170   19.0550 C.2     1  UNL1        0.0766
      8 N         -15.5318   -9.1075   18.9349 N.2     1  UNL1       -0.1801
      9 N         -16.8803   -9.7607   19.0038 N.am    1  UNL1       -0.1793
     10 C         -16.9986  -11.2513   18.8836 C.3     1  UNL1        0.1428
     11 C         -18.1105   -8.9235   19.1927 C.2     1  UNL1        0.2442
     12 O         -19.4591   -9.5769   19.2616 O.2     1  UNL1       -0.2731
     13 C         -17.9922   -7.4330   19.3129 C.3     1  UNL1        0.0840
     14 C         -19.0194   -6.3568   19.5039 C.3     1  UNL1        0.0095
     15 C         -18.3058   -5.0384   19.5531 C.3     1  UNL1        0.0009
     16 C         -16.8375   -5.2998   19.3925 C.3     1  UNL1        0.0065
     17 C         -16.6437   -6.7798   19.2440 C.3     1  UNL1        0.0505
     18 O         -10.0194   -5.0041   18.7795 O.3     1  UNL1       -0.4754
     19 C          -9.2296   -5.0466   17.5049 C.3     1  UNL1        0.2068
     20 C          -9.4698   -4.0191   16.4390 C.3     1  UNL1        0.0646
     21 C         -10.3312   -2.8255   16.7283 C.3     1  UNL1        0.0759
     22 C         -12.3639   -1.0922   18.6026 C.3     1  UNL1        0.0173
     23 C         -12.7574   -2.1757   17.6428 C.3     1  UNL1        0.0576
     24 C         -14.1543   -2.6526   17.3759 C.3     1  UNL1        0.0174
     25 C         -14.0833   -3.7441   16.3496 C.3     1  UNL1        0.0187
     26 C         -12.6425   -3.9418   15.9821 C.3     1  UNL1        0.0721
     27 N         -11.8230   -2.9724   16.7812 N.3     1  UNL1       -0.2738
@<TRIPOS>BOND
     1    23    22    1
     2    23    24    1
     3    24    25    1
     4    25    26    1
     5    26    27    1
     6    27    21    1
     7    21    20    1
     8    20    19    1
     9    19    18    1
    10    18     1    1
    11     1     2   ar
    12     2     3   ar
    13     3     4   ar
    14     4     7    1
    15     7     8    2
    16     8     9    1
    17     9    10    1
    18     9    11   am
    19    11    12    2
    20    11    13    1
    21    13    14    1
    22    14    15    1
    23    15    16    1
    24    16    17    1
    25     4     5   ar
    26     5     6   ar
    27    27    23    1
    28     6     1   ar
    29    17     7    1
    30    17    13    1
@<TRIPOS>MOLECULE
*****
 27 30 0 0 0
SMALL
GASTEIGER

@<TRIPOS>ATOM
      1 C         -14.1187   -6.1397   18.9551 C.ar    1  UNL1        0.1386
      2 C         -15.2074   -5.4635   18.1756 C.ar    1  UNL1        0.0369
      3 C         -15.2966   -3.9664   18.1554 C.ar    1  UNL1        0.0043
      4 C         -14.2970   -3.1452   18.9148 C.ar    1  UNL1        0.0153
      5 C         -13.2083   -3.8212   19.6943 C.ar    1  UNL1        0.0043
      6 C         -13.1192   -5.3185   19.7144 C.ar    1  UNL1        0.0369
      7 C         -14.3862   -1.6480   18.8946 C.2     1  UNL1        0.0766
      8 N         -15.5282   -0.9554   19.5775 N.2     1  UNL1       -0.1801
      9 N         -15.6174    0.5417   19.5573 N.am    1  UNL1       -0.1793
     10 C         -16.7594    1.2343   20.2402 C.3     1  UNL1        0.1428
     11 C         -14.5646    1.3465   18.8543 C.2     1  UNL1        0.2442
     12 O         -14.6539    2.8437   18.8342 O.2     1  UNL1       -0.2731
     13 C         -13.4227    0.6539   18.1714 C.3     1  UNL1        0.0840
     14 C         -12.2452    1.1782   17.4042 C.3     1  UNL1        0.0095
     15 C         -11.4282    0.0049   16.9502 C.3     1  UNL1        0.0009
     16 C         -12.1008   -1.2444   17.4368 C.3     1  UNL1        0.0065
     17 C         -13.3335   -0.8433   18.1916 C.3     1  UNL1        0.0505
     18 O         -14.0295   -7.6368   18.9752 O.3     1  UNL1       -0.4754
     19 C         -13.8379   -8.3941   17.6946 C.3     1  UNL1        0.2068
     20 C         -13.1968   -7.7240   16.5157 C.3     1  UNL1        0.0646
     21 C         -11.7020   -7.6414   16.4212 C.3     1  UNL1        0.0759
     22 C          -9.5247   -7.7103   18.8510 C.3     1  UNL1        0.0173
     23 C          -9.9779   -6.4888   18.1076 C.3     1  UNL1        0.0576
     24 C          -9.5100   -5.0845   18.3506 C.3     1  UNL1        0.0174
     25 C         -10.2215   -4.1850   17.3840 C.3     1  UNL1        0.0187
     26 C         -11.1293   -5.0333   16.5435 C.3     1  UNL1        0.0721
     27 N         -10.9788   -6.4572   16.9907 N.3     1  UNL1       -0.2738
@<TRIPOS>BOND
     1    23    22    1
     2    23    24    1
     3    24    25    1
     4    25    26    1
     5    26    27    1
     6    27    21    1
     7    21    20    1
     8    20    19    1
     9    19    18    1
    10    18     1    1
    11     1     2   ar
    12     2     3   ar
    13     3     4   ar
    14     4     7    1
    15     7     8    2
    16     8     9    1
    17     9    10    1
    18     9    11   am
    19    11    12    2
    20    11    13    1
    21    13    14    1
    22    14    15    1
    23    15    16    1
    24    16    17    1
    25     4     5   ar
    26     5     6   ar
    27    27    23    1
    28     6     1   ar
    29    17     7    1
    30    17    13    1
@<TRIPOS>MOLECULE
*****
 27 30 0 0 0
SMALL
GASTEIGER

@<TRIPOS>ATOM
      1 C          -5.4883  -20.2543   20.3341 C.ar    1  UNL1        0.1386
      2 C          -6.5822  -20.0486   19.3284 C.ar    1  UNL1        0.0369
      3 C          -7.9040  -19.4878   19.7621 C.ar    1  UNL1        0.0043
      4 C          -8.1321  -19.1327   21.2016 C.ar    1  UNL1        0.0153
      5 C          -7.0384  -19.3384   22.2073 C.ar    1  UNL1        0.0043
      6 C          -5.7165  -19.8992   21.7735 C.ar    1  UNL1        0.0369
      7 C          -9.4541  -18.5719   21.6353 C.2     1  UNL1        0.0766
      8 N         -10.1819  -17.6002   20.7544 N.2     1  UNL1       -0.1801
      9 N         -11.5037  -17.0394   21.1881 N.am    1  UNL1       -0.1793
     10 C         -12.2315  -16.0676   20.3071 C.3     1  UNL1        0.1428
     11 C         -12.0979  -17.4503   22.5027 C.2     1  UNL1        0.2442
     12 O         -13.4198  -16.8895   22.9363 O.2     1  UNL1       -0.2731
     13 C         -11.3700  -18.4221   23.3836 C.3     1  UNL1        0.0840
     14 C         -11.7051  -19.0080   24.7232 C.3     1  UNL1        0.0095
     15 C         -10.5903  -19.9309   25.1173 C.3     1  UNL1        0.0009
     16 C          -9.5662  -19.9154   24.0214 C.3     1  UNL1        0.0065
     17 C         -10.0481  -18.9829   22.9499 C.3     1  UNL1        0.0505
     18 O          -4.1665  -20.8151   19.9004 O.3     1  UNL1       -0.4754
     19 C          -3.0553  -19.8911   19.4985 C.3     1  UNL1        0.2068
     20 C          -1.8711  -19.7055   20.4002 C.3     1  UNL1        0.0646
     21 C          -2.0759  -19.4403   21.8623 C.3     1  UNL1        0.0759
     22 C          -1.3057  -16.4583   20.7836 C.3     1  UNL1        0.0173
     23 C          -2.3461  -16.7814   21.8148 C.3     1  UNL1        0.0576
     24 C          -3.2150  -15.7906   22.5311 C.3     1  UNL1        0.0174
     25 C          -4.1060  -16.5489   23.4697 C.3     1  UNL1        0.0187
     26 C          -3.7878  -18.0084   23.3334 C.3     1  UNL1        0.0721
     27 N          -2.7001  -18.1522   22.3106 N.3     1  UNL1       -0.2738
@<TRIPOS>BOND
     1    23    22    1
     2    23    24    1
     3    24    25    1
     4    25    26    1
     5    26    27    1
     6    27    21    1
     7    21    20    1
     8    20    19    1
     9    19    18    1
    10    18     1    1
    11     1     2   ar
    12     2     3   ar
    13     3     4   ar
    14     4     7    1
    15     7     8    2
    16     8     9    1
    17     9    10    1
    18     9    11   am
    19    11    12    2
    20    11    13    1
    21    13    14    1
    22    14    15    1
    23    15    16    1
    24    16    17    1
    25     4     5   ar
    26     5     6   ar
    27    27    23    1
    28     6     1   ar
    29    17     7    1
    30    17    13    1
@<TRIPOS>MOLECULE
*****
 27 30 0 0 0
SMALL
GASTEIGER

@<TRIPOS>ATOM
      1 C         -11.2605   -3.1406   17.5573 C.ar    1  UNL1        0.1386
      2 C         -11.3876   -2.5397   18.9258 C.ar    1  UNL1        0.0369
      3 C         -12.7405   -2.1796   19.4641 C.ar    1  UNL1        0.0043
      4 C         -13.9665   -2.4204   18.6340 C.ar    1  UNL1        0.0153
      5 C         -13.8395   -3.0213   17.2655 C.ar    1  UNL1        0.0043
      6 C         -12.4865   -3.3814   16.7272 C.ar    1  UNL1        0.0369
      7 C         -15.3195   -2.0603   19.1724 C.2     1  UNL1        0.0766
      8 N         -15.6126   -0.6468   19.5799 N.2     1  UNL1       -0.1801
      9 N         -16.9654   -0.2867   20.1182 N.am    1  UNL1       -0.1793
     10 C         -17.2586    1.1269   20.5257 C.3     1  UNL1        0.1428
     11 C         -18.0254   -1.3400   20.2492 C.2     1  UNL1        0.2442
     12 O         -19.3783   -0.9798   20.7876 O.2     1  UNL1       -0.2731
     13 C         -17.7322   -2.7536   19.8417 C.3     1  UNL1        0.0840
     14 C         -18.5713   -3.9968   19.8562 C.3     1  UNL1        0.0095
     15 C         -17.7370   -5.1253   19.3268 C.3     1  UNL1        0.0009
     16 C         -16.3822   -4.5795   18.9850 C.3     1  UNL1        0.0065
     17 C         -16.3793   -3.1137   19.3033 C.3     1  UNL1        0.0505
     18 O          -9.9077   -3.5007   17.0189 O.3     1  UNL1       -0.4754
     19 C          -9.3773   -4.8930   17.1933 C.3     1  UNL1        0.2068
     20 C          -9.5330   -5.5956   18.5092 C.3     1  UNL1        0.0646
     21 C         -10.2571   -6.9075   18.5780 C.3     1  UNL1        0.0759
     22 C         -13.1303   -5.8707   19.7265 C.3     1  UNL1        0.0173
     23 C         -12.9070   -6.5903   18.4294 C.3     1  UNL1        0.0576
     24 C         -13.9652   -6.9596   17.4325 C.3     1  UNL1        0.0174
     25 C         -13.2986   -7.6644   16.2885 C.3     1  UNL1        0.0187
     26 C         -11.8283   -7.7307   16.5784 C.3     1  UNL1        0.0721
     27 N         -11.5863   -7.0669   17.9015 N.3     1  UNL1       -0.2738
@<TRIPOS>BOND
     1    23    22    1
     2    23    24    1
     3    24    25    1
     4    25    26    1
     5    26    27    1
     6    27    21    1
     7    21    20    1
     8    20    19    1
     9    19    18    1
    10    18     1    1
    11     1     2   ar
    12     2     3   ar
    13     3     4   ar
    14     4     7    1
    15     7     8    2
    16     8     9    1
    17     9    10    1
    18     9    11   am
    19    11    12    2
    20    11    13    1
    21    13    14    1
    22    14    15    1
    23    15    16    1
    24    16    17    1
    25     4     5   ar
    26     5     6   ar
    27    27    23    1
    28     6     1   ar
    29    17     7    1
    30    17    13    1
@<TRIPOS>MOLECULE
*****
 27 30 0 0 0
SMALL
GASTEIGER

@<TRIPOS>ATOM
      1 C         -18.1364   -5.6231   17.4364 C.ar    1  UNL1        0.1386
      2 C         -17.1283   -5.6568   16.3260 C.ar    1  UNL1        0.0369
      3 C         -15.6728   -5.4573   16.6281 C.ar    1  UNL1        0.0043
      4 C         -15.2250   -5.2241   18.0407 C.ar    1  UNL1        0.0153
      5 C         -16.2330   -5.1904   19.1511 C.ar    1  UNL1        0.0043
      6 C         -17.6886   -5.3899   18.8488 C.ar    1  UNL1        0.0369
      7 C         -13.7694   -5.0246   18.3428 C.2     1  UNL1        0.0766
      8 N         -12.8586   -6.2106   18.4615 N.2     1  UNL1       -0.1801
      9 N         -11.4031   -6.0112   18.7636 N.am    1  UNL1       -0.1793
     10 C         -10.4923   -7.1972   18.8823 C.3     1  UNL1        0.1428
     11 C         -10.8580   -4.6257   18.9471 C.2     1  UNL1        0.2442
     12 O          -9.4023   -4.4263   19.2492 O.2     1  UNL1       -0.2731
     13 C         -11.7688   -3.4398   18.8284 C.3     1  UNL1        0.0840
     14 C         -11.5197   -1.9662   18.9574 C.3     1  UNL1        0.0095
     15 C         -12.8215   -1.2550   18.7349 C.3     1  UNL1        0.0009
     16 C         -13.8751   -2.2889   18.4685 C.3     1  UNL1        0.0065
     17 C         -13.2244   -3.6392   18.5263 C.3     1  UNL1        0.0505
     18 O         -19.5919   -5.8225   17.1342 O.3     1  UNL1       -0.4754
     19 C         -20.1750   -7.2046   17.1318 C.3     1  UNL1        0.2068
     20 C         -19.5344   -8.2875   16.3152 C.3     1  UNL1        0.0646
     21 C         -18.8583   -9.4403   16.9965 C.3     1  UNL1        0.0759
     22 C         -19.3460   -9.0538   20.1999 C.3     1  UNL1        0.0173
     23 C         -18.0212   -9.0080   19.4979 C.3     1  UNL1        0.0576
     24 C         -16.6880   -8.7765   20.1452 C.3     1  UNL1        0.0174
     25 C         -15.6399   -8.8111   19.0728 C.3     1  UNL1        0.0187
     26 C         -16.3253   -9.0639   17.7627 C.3     1  UNL1        0.0721
     27 N         -17.7970   -9.1856   18.0254 N.3     1  UNL1       -0.2738
@<TRIPOS>BOND
     1    23    22    1
     2    23    24    1
     3    24    25    1
     4    25    26    1
     5    26    27    1
     6    27    21    1
     7    21    20    1
     8    20    19    1
     9    19    18    1
    10    18     1    1
    11     1     2   ar
    12     2     3   ar
    13     3     4   ar
    14     4     7    1
    15     7     8    2
    16     8     9    1
    17     9    10    1
    18     9    11   am
    19    11    12    2
    20    11    13    1
    21    13    14    1
    22    14    15    1
    23    15    16    1
    24    16    17    1
    25     4     5   ar
    26     5     6   ar
    27    27    23    1
    28     6     1   ar
    29    17     7    1
    30    17    13    1
@<TRIPOS>MOLECULE
*****
 27 30 0 0 0
SMALL
GASTEIGER

@<TRIPOS>ATOM
      1 C          -5.5805  -16.2757   23.5362 C.ar    1  UNL1        0.1386
      2 C          -6.0434  -17.4388   22.7098 C.ar    1  UNL1        0.0369
      3 C          -7.5082  -17.7383   22.5904 C.ar    1  UNL1        0.0043
      4 C          -8.5105  -16.8746   23.2974 C.ar    1  UNL1        0.0153
      5 C          -8.0477  -15.7115   24.1238 C.ar    1  UNL1        0.0043
      6 C          -6.5827  -15.4120   24.2432 C.ar    1  UNL1        0.0369
      7 C          -9.9754  -17.1741   23.1779 C.2     1  UNL1        0.0766
      8 N         -10.6817  -17.9135   24.2754 N.2     1  UNL1       -0.1801
      9 N         -12.1465  -18.2130   24.1559 N.am    1  UNL1       -0.1793
     10 C         -12.8528  -18.9524   25.2535 C.3     1  UNL1        0.1428
     11 C         -12.9053  -17.7731   22.9390 C.2     1  UNL1        0.2442
     12 O         -14.3703  -18.0726   22.8196 O.2     1  UNL1       -0.2731
     13 C         -12.1990  -17.0336   21.8415 C.3     1  UNL1        0.0840
     14 C         -12.6805  -16.4786   20.5338 C.3     1  UNL1        0.0095
     15 C         -11.5131  -15.8361   19.8451 C.3     1  UNL1        0.0009
     16 C         -10.3102  -15.9940   20.7271 C.3     1  UNL1        0.0065
     17 C         -10.7341  -16.7341   21.9610 C.3     1  UNL1        0.0505
     18 O          -4.1157  -15.9762   23.6557 O.3     1  UNL1       -0.4754
     19 C          -3.1240  -16.7411   22.8300 C.3     1  UNL1        0.2068
     20 C          -2.7824  -18.1567   23.1891 C.3     1  UNL1        0.0646
     21 C          -2.2342  -19.0840   22.1451 C.3     1  UNL1        0.0759
     22 C          -4.3155  -19.0932   19.6317 C.3     1  UNL1        0.0173
     23 C          -2.9069  -18.5780   19.6082 C.3     1  UNL1        0.0576
     24 C          -2.2078  -17.9766   18.4252 C.3     1  UNL1        0.0174
     25 C          -0.8190  -17.6007   18.8493 C.3     1  UNL1        0.0187
     26 C          -0.6599  -17.9698   20.2944 C.3     1  UNL1        0.0721
     27 N          -1.9502  -18.5738   20.7635 N.3     1  UNL1       -0.2738
@<TRIPOS>BOND
     1    23    22    1
     2    23    24    1
     3    24    25    1
     4    25    26    1
     5    26    27    1
     6    27    21    1
     7    21    20    1
     8    20    19    1
     9    19    18    1
    10    18     1    1
    11     1     2   ar
    12     2     3   ar
    13     3     4   ar
    14     4     7    1
    15     7     8    2
    16     8     9    1
    17     9    10    1
    18     9    11   am
    19    11    12    2
    20    11    13    1
    21    13    14    1
    22    14    15    1
    23    15    16    1
    24    16    17    1
    25     4     5   ar
    26     5     6   ar
    27    27    23    1
    28     6     1   ar
    29    17     7    1
    30    17    13    1
