@<TRIPOS>MOLECULE
*****
 24 26 0 0 0
SMALL
GASTEIGER

@<TRIPOS>ATOM
      1 C         -11.5109   -3.4505   18.3165 C.3     1  UNL1        0.0061
      2 C         -12.5788   -4.2424   19.0111 C.3     1  UNL1        0.0373
      3 C         -13.2922   -5.4082   19.6289 C.3     1  UNL1        0.0075
      4 C         -14.6553   -5.2222   20.2267 C.3     1  UNL1        0.0219
      5 C         -15.3050   -3.8703   20.2067 C.3     1  UNL1        0.0950
      6 N         -14.5915   -2.7045   19.5889 N.am    1  UNL1       -0.2637
      7 C         -15.2411   -1.3526   19.5689 C.2     1  UNL1        0.3077
      8 O         -14.5276   -0.1867   18.9511 O.2     1  UNL1       -0.2522
      9 N         -16.6042   -1.1666   20.1667 N.am    1  UNL1       -0.2681
     10 C         -13.2284   -2.8905   18.9911 C.3     1  UNL1        0.0989
     11 H         -17.0725   -1.9318   20.5722 H       1  UNL1        0.1564
     12 C         -17.2538    0.1853   20.1466 C.ar    1  UNL1        0.0516
     13 C         -17.0530    1.1309   21.2937 C.ar    1  UNL1        0.0156
     14 C         -17.7024    2.4828   21.2737 C.ar    1  UNL1        0.0127
     15 C         -18.5528    2.8892   20.1067 C.ar    1  UNL1        0.0578
     16 CL        -19.2023    4.2412   20.0867 Cl      1  UNL1       -0.0822
     17 C         -18.7536    1.9437   18.9597 C.ar    1  UNL1        0.0127
     18 C         -18.1040    0.5917   18.9797 C.ar    1  UNL1        0.0156
     19 C         -11.5583   -5.3193   18.7899 C.ar    1  UNL1       -0.0212
     20 C         -11.9420   -6.5807   18.0746 C.ar    1  UNL1       -0.0042
     21 C         -10.9214   -7.6575   17.8534 C.ar    1  UNL1       -0.0003
     22 C          -9.5172   -7.4729   18.3474 C.ar    1  UNL1       -0.0000
     23 C          -9.1335   -6.2115   19.0627 C.ar    1  UNL1       -0.0003
     24 C         -10.1540   -5.1347   19.2839 C.ar    1  UNL1       -0.0042
@<TRIPOS>BOND
     1     1     2    1
     2     2    19    1
     3    19    20   ar
     4    20    21   ar
     5    21    22   ar
     6    22    23   ar
     7    23    24   ar
     8     2     3    1
     9     3     4    1
    10     4     5    1
    11     5     6    1
    12     6     7   am
    13     7     8    2
    14     7     9   am
    15     9    12    1
    16    12    13   ar
    17    13    14   ar
    18    14    15   ar
    19    15    16    1
    20    15    17   ar
    21    17    18   ar
    22     6    10    1
    23    10     2    1
    24    24    19   ar
    25    18    12   ar
    26     9    11    1
@<TRIPOS>MOLECULE
*****
 24 26 0 0 0
SMALL
GASTEIGER

@<TRIPOS>ATOM
      1 C           3.1899   -0.1155   22.4581 C.3     1  UNL1        0.0061
      2 C           3.6413   -1.3967   21.8218 C.3     1  UNL1        0.0373
      3 C           3.8380   -2.4629   20.7852 C.3     1  UNL1        0.0075
      4 C           4.6113   -3.7032   21.1224 C.3     1  UNL1        0.0219
      5 C           5.1879   -3.8773   22.4961 C.3     1  UNL1        0.0950
      6 N           4.9912   -2.8111   23.5327 N.am    1  UNL1       -0.2637
      7 C           5.5678   -2.9852   24.9065 C.2     1  UNL1        0.3077
      8 O           5.3711   -1.9190   25.9431 O.2     1  UNL1       -0.2522
      9 N           6.3411   -4.2255   25.2436 N.am    1  UNL1       -0.2681
     10 C           4.2179   -1.5708   23.1956 C.3     1  UNL1        0.0989
     11 H           6.4702   -4.9253   24.5633 H       1  UNL1        0.1564
     12 C           6.9177   -4.3995   26.6174 C.ar    1  UNL1        0.0516
     13 C           6.1871   -5.2197   27.6390 C.ar    1  UNL1        0.0156
     14 C           6.7636   -5.3938   29.0127 C.ar    1  UNL1        0.0127
     15 C           8.0707   -4.7477   29.3650 C.ar    1  UNL1        0.0578
     16 CL          8.6472   -4.9218   30.7388 Cl      1  UNL1       -0.0822
     17 C           8.8013   -3.9276   28.3435 C.ar    1  UNL1        0.0127
     18 C           8.2248   -3.7535   26.9696 C.ar    1  UNL1        0.0156
     19 C           2.9078   -0.7776   20.6690 C.ar    1  UNL1       -0.0212
     20 C           1.4698   -0.3793   20.8219 C.ar    1  UNL1       -0.0042
     21 C           0.7365    0.2398   19.6691 C.ar    1  UNL1       -0.0003
     22 C           1.4412    0.4605   18.3635 C.ar    1  UNL1       -0.0000
     23 C           2.8792    0.0621   18.2106 C.ar    1  UNL1       -0.0003
     24 C           3.6125   -0.5569   19.3634 C.ar    1  UNL1       -0.0042
@<TRIPOS>BOND
     1     1     2    1
     2     2    19    1
     3    19    20   ar
     4    20    21   ar
     5    21    22   ar
     6    22    23   ar
     7    23    24   ar
     8     2     3    1
     9     3     4    1
    10     4     5    1
    11     5     6    1
    12     6     7   am
    13     7     8    2
    14     7     9   am
    15     9    12    1
    16    12    13   ar
    17    13    14   ar
    18    14    15   ar
    19    15    16    1
    20    15    17   ar
    21    17    18   ar
    22     6    10    1
    23    10     2    1
    24    24    19   ar
    25    18    12   ar
    26     9    11    1
@<TRIPOS>MOLECULE
*****
 24 26 0 0 0
SMALL
GASTEIGER

@<TRIPOS>ATOM
      1 C           4.2283   -2.3882   20.2659 C.3     1  UNL1        0.0061
      2 C           3.8029   -1.6159   21.4795 C.3     1  UNL1        0.0373
      3 C           3.1207   -0.5807   22.3238 C.3     1  UNL1        0.0075
      4 C           3.3256   -0.5710   23.8097 C.3     1  UNL1        0.0219
      5 C           4.2125   -1.5965   24.4513 C.3     1  UNL1        0.0950
      6 N           4.8946   -2.6318   23.6070 N.am    1  UNL1       -0.2637
      7 C           5.7816   -3.6573   24.2485 C.2     1  UNL1        0.3077
      8 O           6.4637   -4.6925   23.4041 O.2     1  UNL1       -0.2522
      9 N           5.9864   -3.6476   25.7345 N.am    1  UNL1       -0.2681
     10 C           4.6898   -2.6415   22.1211 C.3     1  UNL1        0.0989
     11 H           5.5387   -2.9681   26.2887 H       1  UNL1        0.1564
     12 C           6.8734   -4.6731   26.3759 C.ar    1  UNL1        0.0516
     13 C           6.4480   -6.1110   26.4189 C.ar    1  UNL1        0.0156
     14 C           7.3349   -7.1366   27.0603 C.ar    1  UNL1        0.0127
     15 C           8.6471   -6.7244   27.6588 C.ar    1  UNL1        0.0578
     16 CL          9.5341   -7.7501   28.3003 Cl      1  UNL1       -0.0822
     17 C           9.0725   -5.2867   27.6159 C.ar    1  UNL1        0.0127
     18 C           8.1856   -4.2610   26.9744 C.ar    1  UNL1        0.0156
     19 C           3.0636   -0.8586   20.4164 C.ar    1  UNL1       -0.0212
     20 C           3.7904   -0.3772   19.1957 C.ar    1  UNL1       -0.0042
     21 C           3.0511    0.3801   18.1328 C.ar    1  UNL1       -0.0003
     22 C           1.5852    0.6560   18.2905 C.ar    1  UNL1       -0.0000
     23 C           0.8585    0.1747   19.5111 C.ar    1  UNL1       -0.0003
     24 C           1.5977   -0.5826   20.5741 C.ar    1  UNL1       -0.0042
@<TRIPOS>BOND
     1     1     2    1
     2     2    19    1
     3    19    20   ar
     4    20    21   ar
     5    21    22   ar
     6    22    23   ar
     7    23    24   ar
     8     2     3    1
     9     3     4    1
    10     4     5    1
    11     5     6    1
    12     6     7   am
    13     7     8    2
    14     7     9   am
    15     9    12    1
    16    12    13   ar
    17    13    14   ar
    18    14    15   ar
    19    15    16    1
    20    15    17   ar
    21    17    18   ar
    22     6    10    1
    23    10     2    1
    24    24    19   ar
    25    18    12   ar
    26     9    11    1
@<TRIPOS>MOLECULE
*****
 24 26 0 0 0
SMALL
GASTEIGER

@<TRIPOS>ATOM
      1 C           5.3759   -3.5683   22.7276 C.3     1  UNL1        0.0061
      2 C           4.3921   -2.4673   22.4629 C.3     1  UNL1        0.0373
      3 C           3.4692   -1.5514   21.7151 C.3     1  UNL1        0.0075
      4 C           2.7128   -0.4850   22.4504 C.3     1  UNL1        0.0219
      5 C           2.8795   -0.3344   23.9335 C.3     1  UNL1        0.0950
      6 N           3.8025   -1.2503   24.6813 N.am    1  UNL1       -0.2637
      7 C           3.9692   -1.0997   26.1644 C.2     1  UNL1        0.3077
      8 O           4.8922   -2.0156   26.9122 O.2     1  UNL1       -0.2522
      9 N           3.2129   -0.0332   26.8997 N.am    1  UNL1       -0.2681
     10 C           4.5588   -2.3167   23.9461 C.3     1  UNL1        0.0989
     11 H           2.6071    0.5679   26.4089 H       1  UNL1        0.1564
     12 C           3.3796    0.1173   28.3827 C.ar    1  UNL1        0.0516
     13 C           2.4583   -0.6079   29.3184 C.ar    1  UNL1        0.0156
     14 C           2.6250   -0.4574   30.8014 C.ar    1  UNL1        0.0127
     15 C           3.7129    0.4182   31.3489 C.ar    1  UNL1        0.0578
     16 CL          3.8796    0.5687   32.8321 Cl      1  UNL1       -0.0822
     17 C           4.6342    1.1433   30.4133 C.ar    1  UNL1        0.0127
     18 C           4.4675    0.9929   28.9302 C.ar    1  UNL1        0.0156
     19 C           4.5671   -3.0003   21.0717 C.ar    1  UNL1       -0.0212
     20 C           3.9179   -4.2935   20.6768 C.ar    1  UNL1       -0.0042
     21 C           4.0929   -4.8264   19.2857 C.ar    1  UNL1       -0.0003
     22 C           4.9172   -4.0661   18.2894 C.ar    1  UNL1       -0.0000
     23 C           5.5664   -2.7729   18.6843 C.ar    1  UNL1       -0.0003
     24 C           5.3914   -2.2400   20.0755 C.ar    1  UNL1       -0.0042
@<TRIPOS>BOND
     1     1     2    1
     2     2    19    1
     3    19    20   ar
     4    20    21   ar
     5    21    22   ar
     6    22    23   ar
     7    23    24   ar
     8     2     3    1
     9     3     4    1
    10     4     5    1
    11     5     6    1
    12     6     7   am
    13     7     8    2
    14     7     9   am
    15     9    12    1
    16    12    13   ar
    17    13    14   ar
    18    14    15   ar
    19    15    16    1
    20    15    17   ar
    21    17    18   ar
    22     6    10    1
    23    10     2    1
    24    24    19   ar
    25    18    12   ar
    26     9    11    1
@<TRIPOS>MOLECULE
*****
 24 26 0 0 0
SMALL
GASTEIGER

@<TRIPOS>ATOM
      1 C           6.4890   -3.4951   27.4514 C.3     1  UNL1        0.0061
      2 C           7.2537   -4.5422   26.6971 C.3     1  UNL1        0.0373
      3 C           8.1512   -5.7142   26.4309 C.3     1  UNL1        0.0075
      4 C           8.4008   -6.1628   25.0215 C.3     1  UNL1        0.0219
      5 C           7.7529   -5.4393   23.8783 C.3     1  UNL1        0.0950
      6 N           6.8554   -4.2673   24.1445 N.am    1  UNL1       -0.2637
      7 C           6.2075   -3.5439   23.0013 C.2     1  UNL1        0.3077
      8 O           5.3100   -2.3719   23.2676 O.2     1  UNL1       -0.2522
      9 N           6.4571   -3.9925   21.5919 N.am    1  UNL1       -0.2681
     10 C           6.6058   -3.8187   25.5539 C.3     1  UNL1        0.0989
     11 H           7.0461   -4.7617   21.4171 H       1  UNL1        0.1564
     12 C           5.8092   -3.2690   20.4488 C.ar    1  UNL1        0.0516
     13 C           6.5868   -2.2509   19.6683 C.ar    1  UNL1        0.0156
     14 C           5.9389   -1.5275   18.5252 C.ar    1  UNL1        0.0127
     15 C           4.5135   -1.8219   18.1625 C.ar    1  UNL1        0.0578
     16 CL          3.8656   -1.0983   17.0194 Cl      1  UNL1       -0.0822
     17 C           3.7359   -2.8398   18.9430 C.ar    1  UNL1        0.0127
     18 C           4.3838   -3.5634   20.0862 C.ar    1  UNL1        0.0156
     19 C           7.6360   -4.9020   28.1023 C.ar    1  UNL1       -0.0212
     20 C           6.5838   -5.3417   29.0766 C.ar    1  UNL1       -0.0042
     21 C           6.9661   -5.7015   30.4817 C.ar    1  UNL1       -0.0003
     22 C           8.4007   -5.6215   30.9125 C.ar    1  UNL1       -0.0000
     23 C           9.4530   -5.1818   29.9382 C.ar    1  UNL1       -0.0003
     24 C           9.0706   -4.8221   28.5331 C.ar    1  UNL1       -0.0042
@<TRIPOS>BOND
     1     1     2    1
     2     2    19    1
     3    19    20   ar
     4    20    21   ar
     5    21    22   ar
     6    22    23   ar
     7    23    24   ar
     8     2     3    1
     9     3     4    1
    10     4     5    1
    11     5     6    1
    12     6     7   am
    13     7     8    2
    14     7     9   am
    15     9    12    1
    16    12    13   ar
    17    13    14   ar
    18    14    15   ar
    19    15    16    1
    20    15    17   ar
    21    17    18   ar
    22     6    10    1
    23    10     2    1
    24    24    19   ar
    25    18    12   ar
    26     9    11    1
@<TRIPOS>MOLECULE
*****
 24 26 0 0 0
SMALL
GASTEIGER

@<TRIPOS>ATOM
      1 C           7.3348   -3.8420   25.7653 C.3     1  UNL1        0.0061
      2 C           7.6416   -4.9918   26.6785 C.3     1  UNL1        0.0373
      3 C           8.0809   -6.3518   27.1338 C.3     1  UNL1        0.0075
      4 C           8.0323   -6.7070   28.5904 C.3     1  UNL1        0.0219
      5 C           7.5444   -5.7022   29.5915 C.3     1  UNL1        0.0950
      6 N           7.1051   -4.3422   29.1362 N.am    1  UNL1       -0.2637
      7 C           6.6172   -3.3374   30.1374 C.2     1  UNL1        0.3077
      8 O           6.1780   -1.9774   29.6820 O.2     1  UNL1       -0.2522
      9 N           6.5686   -3.6926   31.5939 N.am    1  UNL1       -0.2681
     10 C           7.1537   -3.9869   27.6797 C.3     1  UNL1        0.0989
     11 H           6.8570   -4.5853   31.8928 H       1  UNL1        0.1564
     12 C           6.0808   -2.6878   32.5950 C.ar    1  UNL1        0.0516
     13 C           4.6869   -2.7883   33.1403 C.ar    1  UNL1        0.0156
     14 C           4.1990   -1.7836   34.1413 C.ar    1  UNL1        0.0127
     15 C           5.1048   -0.6782   34.5972 C.ar    1  UNL1        0.0578
     16 CL          4.6168    0.3267   35.5984 Cl      1  UNL1       -0.0822
     17 C           6.4985   -0.5777   34.0520 C.ar    1  UNL1        0.0127
     18 C           6.9865   -1.5825   33.0509 C.ar    1  UNL1        0.0156
     19 C           8.0230   -5.5973   25.3601 C.ar    1  UNL1       -0.0212
     20 C           8.0784   -4.7412   24.1297 C.ar    1  UNL1       -0.0042
     21 C           8.4597   -5.3467   22.8114 C.ar    1  UNL1       -0.0003
     22 C           8.7856   -6.8083   22.7236 C.ar    1  UNL1       -0.0000
     23 C           8.7302   -7.6643   23.9540 C.ar    1  UNL1       -0.0003
     24 C           8.3489   -7.0588   25.2723 C.ar    1  UNL1       -0.0042
@<TRIPOS>BOND
     1     1     2    1
     2     2    19    1
     3    19    20   ar
     4    20    21   ar
     5    21    22   ar
     6    22    23   ar
     7    23    24   ar
     8     2     3    1
     9     3     4    1
    10     4     5    1
    11     5     6    1
    12     6     7   am
    13     7     8    2
    14     7     9   am
    15     9    12    1
    16    12    13   ar
    17    13    14   ar
    18    14    15   ar
    19    15    16    1
    20    15    17   ar
    21    17    18   ar
    22     6    10    1
    23    10     2    1
    24    24    19   ar
    25    18    12   ar
    26     9    11    1
@<TRIPOS>MOLECULE
*****
 24 26 0 0 0
SMALL
GASTEIGER

@<TRIPOS>ATOM
      1 C           3.9370   -1.4190   22.0806 C.3     1  UNL1        0.0061
      2 C           2.8646   -0.9985   21.1197 C.3     1  UNL1        0.0373
      3 C           2.0471   -0.9239   19.8644 C.3     1  UNL1        0.0075
      4 C           0.8683    0.0008   19.7908 C.3     1  UNL1        0.0219
      5 C           0.5071    0.8509   20.9727 C.3     1  UNL1        0.0950
      6 N           1.3246    0.7764   22.2280 N.am    1  UNL1       -0.2637
      7 C           0.9633    1.6265   23.4099 C.2     1  UNL1        0.3077
      8 O           1.7809    1.5519   24.6653 O.2     1  UNL1       -0.2522
      9 N          -0.2155    2.5512   23.3363 N.am    1  UNL1       -0.2681
     10 C           2.5033   -0.1483   22.3016 C.3     1  UNL1        0.0989
     11 H          -0.7521    2.6001   22.5124 H       1  UNL1        0.1564
     12 C          -0.5767    3.4012   24.5182 C.ar    1  UNL1        0.0516
     13 C           0.0779    4.7374   24.7090 C.ar    1  UNL1        0.0156
     14 C          -0.2832    5.5875   25.8908 C.ar    1  UNL1        0.0127
     15 C          -1.2989    5.1016   26.8820 C.ar    1  UNL1        0.0578
     16 CL         -1.6601    5.9517   28.0639 Cl      1  UNL1       -0.0822
     17 C          -1.9535    3.7655   26.6912 C.ar    1  UNL1        0.0127
     18 C          -1.5923    2.9153   25.5093 C.ar    1  UNL1        0.0156
     19 C           3.5983   -1.9947   20.2716 C.ar    1  UNL1       -0.0212
     20 C           3.7363   -3.4152   20.7330 C.ar    1  UNL1       -0.0042
     21 C           4.4700   -4.4113   19.8849 C.ar    1  UNL1       -0.0003
     22 C           5.0657   -3.9869   18.5753 C.ar    1  UNL1       -0.0000
     23 C           4.9277   -2.5664   18.1139 C.ar    1  UNL1       -0.0003
     24 C           4.1940   -1.5702   18.9620 C.ar    1  UNL1       -0.0042
@<TRIPOS>BOND
     1     1     2    1
     2     2    19    1
     3    19    20   ar
     4    20    21   ar
     5    21    22   ar
     6    22    23   ar
     7    23    24   ar
     8     2     3    1
     9     3     4    1
    10     4     5    1
    11     5     6    1
    12     6     7   am
    13     7     8    2
    14     7     9   am
    15     9    12    1
    16    12    13   ar
    17    13    14   ar
    18    14    15   ar
    19    15    16    1
    20    15    17   ar
    21    17    18   ar
    22     6    10    1
    23    10     2    1
    24    24    19   ar
    25    18    12   ar
    26     9    11    1
@<TRIPOS>MOLECULE
*****
 24 26 0 0 0
SMALL
GASTEIGER

@<TRIPOS>ATOM
      1 C           4.7823   -2.2869   22.4916 C.3     1  UNL1        0.0061
      2 C           3.7261   -1.3903   21.9167 C.3     1  UNL1        0.0373
      3 C           2.8615   -0.7004   20.9036 C.3     1  UNL1        0.0075
      4 C           1.8121    0.2733   21.3518 C.3     1  UNL1        0.0219
      5 C           1.6275    0.5570   22.8132 C.3     1  UNL1        0.0950
      6 N           2.4922   -0.1329   23.8262 N.am    1  UNL1       -0.2637
      7 C           2.3075    0.1509   25.2876 C.2     1  UNL1        0.3077
      8 O           3.1722   -0.5391   26.3006 O.2     1  UNL1       -0.2522
      9 N           1.2582    1.1245   25.7358 N.am    1  UNL1       -0.2681
     10 C           3.5415   -1.1065   23.3780 C.3     1  UNL1        0.0989
     11 H           0.6907    1.5774   25.0709 H       1  UNL1        0.1564
     12 C           1.0736    1.4082   27.1971 C.ar    1  UNL1        0.0516
     13 C          -0.0112    0.7127   27.9649 C.ar    1  UNL1        0.0156
     14 C          -0.1958    0.9963   29.4261 C.ar    1  UNL1        0.0127
     15 C           0.7043    1.9755   30.1197 C.ar    1  UNL1        0.0578
     16 CL          0.5197    2.2591   31.5811 Cl      1  UNL1       -0.0822
     17 C           1.7891    2.6710   29.3519 C.ar    1  UNL1        0.0127
     18 C           1.9738    2.3874   27.8906 C.ar    1  UNL1        0.0156
     19 C           4.2776   -1.9854   20.6550 C.ar    1  UNL1       -0.0212
     20 C           3.9373   -3.3975   20.2807 C.ar    1  UNL1       -0.0042
     21 C           4.4887   -3.9926   19.0191 C.ar    1  UNL1       -0.0003
     22 C           5.3806   -3.1756   18.1318 C.ar    1  UNL1       -0.0000
     23 C           5.7209   -1.7636   18.5062 C.ar    1  UNL1       -0.0003
     24 C           5.1694   -1.1685   19.7678 C.ar    1  UNL1       -0.0042
@<TRIPOS>BOND
     1     1     2    1
     2     2    19    1
     3    19    20   ar
     4    20    21   ar
     5    21    22   ar
     6    22    23   ar
     7    23    24   ar
     8     2     3    1
     9     3     4    1
    10     4     5    1
    11     5     6    1
    12     6     7   am
    13     7     8    2
    14     7     9   am
    15     9    12    1
    16    12    13   ar
    17    13    14   ar
    18    14    15   ar
    19    15    16    1
    20    15    17   ar
    21    17    18   ar
    22     6    10    1
    23    10     2    1
    24    24    19   ar
    25    18    12   ar
    26     9    11    1
@<TRIPOS>MOLECULE
*****
 24 26 0 0 0
SMALL
GASTEIGER

@<TRIPOS>ATOM
      1 C           3.0956   -1.0266   21.4625 C.3     1  UNL1        0.0061
      2 C           2.4833   -0.3495   20.2723 C.3     1  UNL1        0.0373
      3 C           2.1975    0.0004   18.8420 C.3     1  UNL1        0.0075
      4 C           1.1842    1.0574   18.5165 C.3     1  UNL1        0.0219
      5 C           0.4567    1.7646   19.6214 C.3     1  UNL1        0.0950
      6 N           0.7425    1.4147   21.0517 N.am    1  UNL1       -0.2637
      7 C           0.0150    2.1219   22.1566 C.2     1  UNL1        0.3077
      8 O           0.3009    1.7720   23.5869 O.2     1  UNL1       -0.2522
      9 N          -0.9982    3.1789   21.8310 N.am    1  UNL1       -0.2681
     10 C           1.7558    0.3577   21.3772 C.3     1  UNL1        0.0989
     11 H          -1.1858    3.4086   20.8923 H       1  UNL1        0.1564
     12 C          -1.7256    3.8860   22.9359 C.ar    1  UNL1        0.0516
     13 C          -1.0506    4.9933   23.6899 C.ar    1  UNL1        0.0156
     14 C          -1.7779    5.7005   24.7947 C.ar    1  UNL1        0.0127
     15 C          -3.1803    5.3004   25.1458 C.ar    1  UNL1        0.0578
     16 CL         -3.9077    6.0076   26.2508 Cl      1  UNL1       -0.0822
     17 C          -3.8554    4.1931   24.3919 C.ar    1  UNL1        0.0127
     18 C          -3.1280    3.4860   23.2870 C.ar    1  UNL1        0.0156
     19 C           3.4234   -1.2919   19.5808 C.ar    1  UNL1       -0.0212
     20 C           3.2255   -2.7736   19.7040 C.ar    1  UNL1       -0.0042
     21 C           4.1656   -3.7159   19.0125 C.ar    1  UNL1       -0.0003
     22 C           5.3037   -3.1764   18.1978 C.ar    1  UNL1       -0.0000
     23 C           5.5017   -1.6947   18.0746 C.ar    1  UNL1       -0.0003
     24 C           4.5615   -0.7524   18.7661 C.ar    1  UNL1       -0.0042
@<TRIPOS>BOND
     1     1     2    1
     2     2    19    1
     3    19    20   ar
     4    20    21   ar
     5    21    22   ar
     6    22    23   ar
     7    23    24   ar
     8     2     3    1
     9     3     4    1
    10     4     5    1
    11     5     6    1
    12     6     7   am
    13     7     8    2
    14     7     9   am
    15     9    12    1
    16    12    13   ar
    17    13    14   ar
    18    14    15   ar
    19    15    16    1
    20    15    17   ar
    21    17    18   ar
    22     6    10    1
    23    10     2    1
    24    24    19   ar
    25    18    12   ar
    26     9    11    1
