@<TRIPOS>MOLECULE
*****
 44 47 0 0 0
SMALL
GASTEIGER

@<TRIPOS>ATOM
      1 C         -14.5590   -2.3112   18.6483 C.3     1  UNL1        0.0678
      2 C         -14.5620   -3.3719   19.7089 C.2     1  UNL1        0.1889
      3 O         -13.8404   -3.1401   21.0034 O.2     1  UNL1       -0.2898
      4 C         -15.2865   -4.6643   19.4751 C.ar    1  UNL1        0.0989
      5 C         -16.6757   -4.9922   19.9363 C.ar    1  UNL1        0.0219
      6 C         -16.9969   -6.3863   19.4853 C.ar    1  UNL1        0.0185
      7 C         -18.2197   -7.2387   19.6527 C.ar    1  UNL1        0.0129
      8 C         -18.2518   -8.6248   19.0803 C.ar    1  UNL1        0.0578
      9 CL        -19.4747   -9.4773   19.2478 Cl      1  UNL1       -0.0822
     10 C         -17.0611   -9.1585   18.3404 C.ar    1  UNL1        0.0129
     11 C         -15.8383   -8.3061   18.1730 C.ar    1  UNL1        0.0184
     12 C         -15.8062   -6.9200   18.7454 C.ar    1  UNL1        0.0641
     13 N         -14.7491   -5.8557   18.7391 N.ar    1  UNL1       -0.3038
     14 C         -13.3928   -5.9639   18.1077 C.ar    1  UNL1        0.0640
     15 C         -13.2360   -5.7663   16.6290 C.ar    1  UNL1        0.0175
     16 C         -11.8796   -5.8745   15.9976 C.ar    1  UNL1        0.0014
     17 C         -10.6802   -6.1803   16.8448 C.ar    1  UNL1        0.0039
     18 C         -10.8370   -6.3779   18.3234 C.ar    1  UNL1        0.0729
     19 C         -12.1934   -6.2697   18.9548 C.ar    1  UNL1        0.0214
     20 C          -9.6376   -6.6837   19.1706 C.3     1  UNL1        0.4186
     21 F          -8.4381   -6.9895   20.0178 F       1  UNL1       -0.1659
     22 F          -9.7079   -8.1221   18.7510 F       1  UNL1       -0.1659
     23 F          -9.5672   -5.2453   19.5902 F       1  UNL1       -0.1659
     24 C         -13.3263   -2.0755   17.8268 C.3     1  UNL1        0.0081
     25 C         -12.0061   -1.8512   18.5027 C.3     1  UNL1        0.0005
     26 C         -10.7959   -2.6174   18.0575 C.3     1  UNL1        0.0000
     27 C          -9.1270   -3.2886   16.1828 C.3     1  UNL1        0.0000
     28 C         -10.2679   -2.4422   16.6645 C.3     1  UNL1        0.0000
     29 C         -15.7888   -1.4862   18.4092 C.3     1  UNL1        0.0341
     30 C         -15.9631   -0.1765   19.1194 C.ar    1  UNL1       -0.0217
     31 C         -15.2557    1.0480   18.6191 C.ar    1  UNL1       -0.0041
     32 C         -15.4300    2.3576   19.3293 C.ar    1  UNL1        0.0042
     33 C         -16.3118    2.4428   20.5398 C.ar    1  UNL1        0.0533
     34 C         -17.0191    1.2184   21.0401 C.ar    1  UNL1        0.0042
     35 C         -16.8448   -0.0913   20.3299 C.ar    1  UNL1       -0.0041
     36 C         -16.4861    3.7525   21.2499 C.2     1  UNL1        0.2459
     37 O         -17.7767    4.5067   21.1263 O.2     1  UNL1       -0.2701
     38 N         -15.3697    4.3080   22.0838 N.am    1  UNL1       -0.3005
     39 H         -14.5226    3.8129   22.1649 H       1  UNL1        0.1498
     40 C         -15.5440    5.6176   22.7939 C.3     1  UNL1        0.0956
     41 C         -15.0918    5.7654   24.2164 C.3     1  UNL1        0.0629
     42 C         -13.6846    5.4112   24.5967 C.2     1  UNL1        0.0520
     43 O         -13.1343    5.8453   25.9229 O.co2   1  UNL1       -0.5491
     44 O         -12.8279    4.6230   23.6509 O.co2   1  UNL1       -0.5491
@<TRIPOS>UNITY_ATOM_ATTR
43 1
charge -1
@<TRIPOS>BOND
     1    27    28    1
     2    28    26    1
     3    26    25    1
     4    25    24    1
     5     1    24    1
     6     1    29    1
     7    29    30    1
     8    30    31   ar
     9    31    32   ar
    10    32    33   ar
    11    33    36    1
    12    36    37    2
    13    36    38   am
    14    38    40    1
    15    40    41    1
    16    41    42    1
    17    42    43   ar
    18    42    44   ar
    19    33    34   ar
    20    34    35   ar
    21     1     2    1
    22     2     3    2
    23     2     4    1
    24     4     5   ar
    25     5     6   ar
    26     6     7   ar
    27     7     8   ar
    28     8     9    1
    29     8    10   ar
    30    10    11   ar
    31    11    12   ar
    32    12    13   ar
    33    13    14    1
    34    14    15   ar
    35    15    16   ar
    36    16    17   ar
    37    17    18   ar
    38    18    20    1
    39    20    21    1
    40    20    22    1
    41    20    23    1
    42    18    19   ar
    43    35    30   ar
    44    13     4   ar
    45    19    14   ar
    46    12     6   ar
    47    38    39    1
@<TRIPOS>MOLECULE
*****
 44 47 0 0 0
SMALL
GASTEIGER

@<TRIPOS>ATOM
      1 C           4.2377   -2.2032   18.4782 C.3     1  UNL1        0.0678
      2 C           3.8241   -1.0128   17.6647 C.2     1  UNL1        0.1889
      3 O           4.0130   -1.0192   16.1767 O.2     1  UNL1       -0.2898
      4 C           3.2217    0.1839   18.3392 C.ar    1  UNL1        0.0989
      5 C           1.7867    0.6130   18.2571 C.ar    1  UNL1        0.0219
      6 C           1.6266    1.8560   19.0813 C.ar    1  UNL1        0.0185
      7 C           0.4369    2.7228   19.3696 C.ar    1  UNL1        0.0129
      8 C           0.5833    3.9287   20.2495 C.ar    1  UNL1        0.0578
      9 CL         -0.6065    4.7956   20.5379 Cl      1  UNL1       -0.0822
     10 C           1.9193    4.2679   20.8410 C.ar    1  UNL1        0.0129
     11 C           3.1090    3.4011   20.5527 C.ar    1  UNL1        0.0184
     12 C           2.9627    2.1951   19.6729 C.ar    1  UNL1        0.0641
     13 N           3.9485    1.1618   19.2142 N.ar    1  UNL1       -0.3038
     14 C           5.4053    1.1145   19.5684 C.ar    1  UNL1        0.0640
     15 C           6.4263    1.6684   18.6191 C.ar    1  UNL1        0.0175
     16 C           7.8831    1.6211   18.9733 C.ar    1  UNL1        0.0014
     17 C           8.3190    1.0201   20.2767 C.ar    1  UNL1        0.0039
     18 C           7.2980    0.4663   21.2259 C.ar    1  UNL1        0.0729
     19 C           5.8412    0.5135   20.8717 C.ar    1  UNL1        0.0214
     20 C           7.7339   -0.1347   22.5292 C.3     1  UNL1        0.4186
     21 F           8.1698   -0.7358   23.8326 F       1  UNL1       -0.1659
     22 F           9.0124   -0.5912   21.8912 F       1  UNL1       -0.1659
     23 F           6.4554    0.3217   23.1673 F       1  UNL1       -0.1659
     24 C           5.5595   -2.8642   18.2218 C.3     1  UNL1        0.0081
     25 C           6.8045   -2.0345   18.1130 C.3     1  UNL1        0.0005
     26 C           7.9890   -2.3421   18.9803 C.3     1  UNL1        0.0000
     27 C           8.9560   -3.9199   20.8039 C.3     1  UNL1        0.0000
     28 C           7.8094   -3.1325   20.2425 C.3     1  UNL1        0.0000
     29 C           3.3294   -2.7326   19.5483 C.3     1  UNL1        0.0341
     30 C           3.5539   -2.3479   20.9806 C.ar    1  UNL1       -0.0217
     31 C           4.5268   -3.1206   21.8211 C.ar    1  UNL1       -0.0041
     32 C           4.7513   -2.7359   23.2534 C.ar    1  UNL1        0.0042
     33 C           4.0030   -1.5785   23.8453 C.ar    1  UNL1        0.0533
     34 C           3.0301   -0.8058   23.0048 C.ar    1  UNL1        0.0042
     35 C           2.8055   -1.1904   21.5724 C.ar    1  UNL1       -0.0041
     36 C           4.2275   -1.1938   25.2776 C.2     1  UNL1        0.2459
     37 O           5.6046   -1.2690   25.8674 O.2     1  UNL1       -0.2701
     38 N           3.0748   -0.7338   26.1202 N.am    1  UNL1       -0.3005
     39 H           2.1709   -0.6844   25.7331 H       1  UNL1        0.1498
     40 C           3.2993   -0.3491   27.5525 C.3     1  UNL1        0.0956
     41 C           2.2446    0.4131   28.2985 C.3     1  UNL1        0.0629
     42 C           1.4866   -0.2486   29.4110 C.2     1  UNL1        0.0520
     43 O          -0.0090   -0.3440   29.3465 O.co2   1  UNL1       -0.5491
     44 O           2.2241   -0.8148   30.5880 O.co2   1  UNL1       -0.5491
@<TRIPOS>UNITY_ATOM_ATTR
43 1
charge -1
@<TRIPOS>BOND
     1    27    28    1
     2    28    26    1
     3    26    25    1
     4    25    24    1
     5     1    24    1
     6     1    29    1
     7    29    30    1
     8    30    31   ar
     9    31    32   ar
    10    32    33   ar
    11    33    36    1
    12    36    37    2
    13    36    38   am
    14    38    40    1
    15    40    41    1
    16    41    42    1
    17    42    43   ar
    18    42    44   ar
    19    33    34   ar
    20    34    35   ar
    21     1     2    1
    22     2     3    2
    23     2     4    1
    24     4     5   ar
    25     5     6   ar
    26     6     7   ar
    27     7     8   ar
    28     8     9    1
    29     8    10   ar
    30    10    11   ar
    31    11    12   ar
    32    12    13   ar
    33    13    14    1
    34    14    15   ar
    35    15    16   ar
    36    16    17   ar
    37    17    18   ar
    38    18    20    1
    39    20    21    1
    40    20    22    1
    41    20    23    1
    42    18    19   ar
    43    35    30   ar
    44    13     4   ar
    45    19    14   ar
    46    12     6   ar
    47    38    39    1
@<TRIPOS>MOLECULE
*****
 44 47 0 0 0
SMALL
GASTEIGER

@<TRIPOS>ATOM
      1 C           4.2352   -2.1726   18.4909 C.3     1  UNL1        0.0678
      2 C           3.7719   -1.0100   17.6643 C.2     1  UNL1        0.1889
      3 O           3.9529   -1.0289   16.1754 O.2     1  UNL1       -0.2898
      4 C           3.1274    0.1716   18.3265 C.ar    1  UNL1        0.0989
      5 C           1.6625    0.4944   18.3222 C.ar    1  UNL1        0.0219
      6 C           1.4644    1.7601   19.1023 C.ar    1  UNL1        0.0185
      7 C           0.2351    2.5536   19.4325 C.ar    1  UNL1        0.0129
      8 C           0.3482    3.8066   20.2493 C.ar    1  UNL1        0.0578
      9 CL         -0.8812    4.6002   20.5796 Cl      1  UNL1       -0.0822
     10 C           1.6907    4.2662   20.7358 C.ar    1  UNL1        0.0129
     11 C           2.9200    3.4727   20.4055 C.ar    1  UNL1        0.0184
     12 C           2.8069    2.2197   19.5888 C.ar    1  UNL1        0.0641
     13 N           3.8346    1.2379   19.1093 N.ar    1  UNL1       -0.3038
     14 C           5.3105    1.3099   19.3674 C.ar    1  UNL1        0.0640
     15 C           6.2285    1.8690   18.3209 C.ar    1  UNL1        0.0175
     16 C           7.7044    1.9409   18.5790 C.ar    1  UNL1        0.0014
     17 C           8.2623    1.4538   19.8834 C.ar    1  UNL1        0.0039
     18 C           7.3444    0.8948   20.9297 C.ar    1  UNL1        0.0729
     19 C           5.8685    0.8228   20.6717 C.ar    1  UNL1        0.0214
     20 C           7.9023    0.4077   22.2341 C.3     1  UNL1        0.4186
     21 F           8.4603   -0.0794   23.5385 F       1  UNL1       -0.1659
     22 F           6.8042   -0.6102   22.3237 F       1  UNL1       -0.1659
     23 F           9.0004    1.4256   22.1445 F       1  UNL1       -0.1659
     24 C           5.5854   -2.7777   18.2440 C.3     1  UNL1        0.0081
     25 C           6.8052   -1.9050   18.2195 C.3     1  UNL1        0.0005
     26 C           7.9284   -2.1588   19.1807 C.3     1  UNL1        0.0000
     27 C           8.6055   -3.1711   21.4757 C.3     1  UNL1        0.0000
     28 C           7.8045   -3.2433   20.2096 C.3     1  UNL1        0.0000
     29 C           3.3484   -2.7303   19.5645 C.3     1  UNL1        0.0341
     30 C           3.6151   -2.4015   21.0035 C.ar    1  UNL1       -0.0217
     31 C           4.5203   -3.2776   21.8178 C.ar    1  UNL1       -0.0041
     32 C           4.7870   -2.9487   23.2568 C.ar    1  UNL1        0.0042
     33 C           4.1484   -1.7437   23.8815 C.ar    1  UNL1        0.0533
     34 C           3.2432   -0.8677   23.0673 C.ar    1  UNL1        0.0042
     35 C           2.9765   -1.1965   21.6283 C.ar    1  UNL1       -0.0041
     36 C           4.4151   -1.4149   25.3205 C.2     1  UNL1        0.2459
     37 O           3.9794   -0.0935   25.8811 O.2     1  UNL1       -0.2701
     38 N           5.1174   -2.4074   26.1990 N.am    1  UNL1       -0.3005
     39 H           5.4034   -3.2746   25.8311 H       1  UNL1        0.1498
     40 C           5.3841   -2.0785   27.6380 C.3     1  UNL1        0.0956
     41 C           6.2420   -2.9865   28.4683 C.3     1  UNL1        0.0629
     42 C           6.4512   -4.4114   28.0488 C.2     1  UNL1        0.0520
     43 O           6.4149   -5.5076   29.0721 O.co2   1  UNL1       -0.5491
     44 O           6.6967   -4.7402   26.6060 O.co2   1  UNL1       -0.5491
@<TRIPOS>UNITY_ATOM_ATTR
43 1
charge -1
@<TRIPOS>BOND
     1    27    28    1
     2    28    26    1
     3    26    25    1
     4    25    24    1
     5     1    24    1
     6     1    29    1
     7    29    30    1
     8    30    31   ar
     9    31    32   ar
    10    32    33   ar
    11    33    36    1
    12    36    37    2
    13    36    38   am
    14    38    40    1
    15    40    41    1
    16    41    42    1
    17    42    43   ar
    18    42    44   ar
    19    33    34   ar
    20    34    35   ar
    21     1     2    1
    22     2     3    2
    23     2     4    1
    24     4     5   ar
    25     5     6   ar
    26     6     7   ar
    27     7     8   ar
    28     8     9    1
    29     8    10   ar
    30    10    11   ar
    31    11    12   ar
    32    12    13   ar
    33    13    14    1
    34    14    15   ar
    35    15    16   ar
    36    16    17   ar
    37    17    18   ar
    38    18    20    1
    39    20    21    1
    40    20    22    1
    41    20    23    1
    42    18    19   ar
    43    35    30   ar
    44    13     4   ar
    45    19    14   ar
    46    12     6   ar
    47    38    39    1
@<TRIPOS>MOLECULE
*****
 44 47 0 0 0
SMALL
GASTEIGER

@<TRIPOS>ATOM
      1 C           5.0584   -2.9976   21.0697 C.3     1  UNL1        0.0678
      2 C           6.2717   -2.6271   21.8700 C.2     1  UNL1        0.1889
      3 O           7.3922   -1.8667   21.2249 O.2     1  UNL1       -0.2898
      4 C           6.3645   -3.0169   23.3155 C.ar    1  UNL1        0.0989
      5 C           6.9612   -4.2850   23.8502 C.ar    1  UNL1        0.0219
      6 C           6.8423   -4.2590   25.3452 C.ar    1  UNL1        0.0185
      7 C           7.2578   -5.2387   26.4023 C.ar    1  UNL1        0.0129
      8 C           7.0030   -4.9342   27.8488 C.ar    1  UNL1        0.0578
      9 CL          7.4185   -5.9139   28.9060 Cl      1  UNL1       -0.0822
     10 C           6.3328   -3.6500   28.2382 C.ar    1  UNL1        0.0129
     11 C           5.9173   -2.6703   27.1811 C.ar    1  UNL1        0.0184
     12 C           6.1721   -2.9748   25.7346 C.ar    1  UNL1        0.0641
     13 N           5.8768   -2.2072   24.4802 N.ar    1  UNL1       -0.3038
     14 C           5.2107   -0.8653   24.4038 C.ar    1  UNL1        0.0640
     15 C           6.0348    0.3702   24.1929 C.ar    1  UNL1        0.0175
     16 C           5.3687    1.7120   24.1166 C.ar    1  UNL1        0.0014
     17 C           3.8785    1.8184   24.2511 C.ar    1  UNL1        0.0039
     18 C           3.0545    0.5829   24.4620 C.ar    1  UNL1        0.0729
     19 C           3.7206   -0.7589   24.5384 C.ar    1  UNL1        0.0214
     20 C           1.5643    0.6892   24.5966 C.3     1  UNL1        0.4186
     21 F           0.0742    0.7956   24.7311 F       1  UNL1       -0.1659
     22 F           1.7059    0.7878   26.0866 F       1  UNL1       -0.1659
     23 F           1.4228    0.5906   23.1065 F       1  UNL1       -0.1659
     24 C           5.1957   -3.8803   19.8647 C.3     1  UNL1        0.0081
     25 C           4.9545   -3.3210   18.4939 C.3     1  UNL1        0.0005
     26 C           5.7569   -2.1497   18.0099 C.3     1  UNL1        0.0000
     27 C           3.8108   -0.8515   16.8798 C.3     1  UNL1        0.0000
     28 C           5.0735   -0.8535   17.6895 C.3     1  UNL1        0.0000
     29 C           3.7078   -2.4855   21.4743 C.3     1  UNL1        0.0341
     30 C           3.1646   -1.2320   20.8550 C.ar    1  UNL1       -0.0217
     31 C           1.8342   -1.2532   20.1623 C.ar    1  UNL1       -0.0041
     32 C           1.2910    0.0003   19.5429 C.ar    1  UNL1        0.0042
     33 C           2.0782    1.2751   19.6162 C.ar    1  UNL1        0.0533
     34 C           3.4085    1.2963   20.3089 C.ar    1  UNL1        0.0042
     35 C           3.9517    0.0428   20.9283 C.ar    1  UNL1       -0.0041
     36 C           1.5350    2.5286   18.9969 C.2     1  UNL1        0.2459
     37 O           2.4732    3.6001   18.5262 O.2     1  UNL1       -0.2701
     38 N           0.0534    2.7106   18.8483 N.am    1  UNL1       -0.3005
     39 H          -0.5624    2.0073   19.1572 H       1  UNL1        0.1498
     40 C          -0.4898    3.9641   18.2289 C.3     1  UNL1        0.0956
     41 C          -1.8032    4.5212   18.6921 C.3     1  UNL1        0.0629
     42 C          -2.7374    3.6681   19.4980 C.2     1  UNL1        0.0520
     43 O          -2.1984    2.7857   20.5847 O.co2   1  UNL1       -0.5491
     44 O          -4.2106    3.6974   19.2173 O.co2   1  UNL1       -0.5491
@<TRIPOS>UNITY_ATOM_ATTR
43 1
charge -1
@<TRIPOS>BOND
     1    27    28    1
     2    28    26    1
     3    26    25    1
     4    25    24    1
     5     1    24    1
     6     1    29    1
     7    29    30    1
     8    30    31   ar
     9    31    32   ar
    10    32    33   ar
    11    33    36    1
    12    36    37    2
    13    36    38   am
    14    38    40    1
    15    40    41    1
    16    41    42    1
    17    42    43   ar
    18    42    44   ar
    19    33    34   ar
    20    34    35   ar
    21     1     2    1
    22     2     3    2
    23     2     4    1
    24     4     5   ar
    25     5     6   ar
    26     6     7   ar
    27     7     8   ar
    28     8     9    1
    29     8    10   ar
    30    10    11   ar
    31    11    12   ar
    32    12    13   ar
    33    13    14    1
    34    14    15   ar
    35    15    16   ar
    36    16    17   ar
    37    17    18   ar
    38    18    20    1
    39    20    21    1
    40    20    22    1
    41    20    23    1
    42    18    19   ar
    43    35    30   ar
    44    13     4   ar
    45    19    14   ar
    46    12     6   ar
    47    38    39    1
@<TRIPOS>MOLECULE
*****
 44 47 0 0 0
SMALL
GASTEIGER

@<TRIPOS>ATOM
      1 C           4.5662   -1.3816   25.0433 C.3     1  UNL1        0.0678
      2 C           6.0221   -1.6556   25.2779 C.2     1  UNL1        0.1889
      3 O           6.9851   -0.5154   25.4279 O.2     1  UNL1       -0.2898
      4 C           6.5151   -3.0697   25.3626 C.ar    1  UNL1        0.0989
      5 C           6.5658   -3.9131   26.6020 C.ar    1  UNL1        0.0219
      6 C           7.1259   -5.2534   26.2282 C.ar    1  UNL1        0.0185
      7 C           7.4051   -6.4856   27.0367 C.ar    1  UNL1        0.0129
      8 C           7.9797   -7.7027   26.3748 C.ar    1  UNL1        0.0578
      9 CL          8.2589   -8.9350   27.1834 Cl      1  UNL1       -0.0822
     10 C           8.2752   -7.6878   24.9043 C.ar    1  UNL1        0.0129
     11 C           7.9961   -6.4556   24.0957 C.ar    1  UNL1        0.0184
     12 C           7.4214   -5.2385   24.7576 C.ar    1  UNL1        0.0641
     13 N           7.0439   -3.8889   24.2227 N.ar    1  UNL1       -0.3038
     14 C           7.1726   -3.4377   22.7980 C.ar    1  UNL1        0.0640
     15 C           8.2946   -2.5256   22.3985 C.ar    1  UNL1        0.0175
     16 C           8.4233   -2.0744   20.9738 C.ar    1  UNL1        0.0014
     17 C           7.4302   -2.5352   19.9485 C.ar    1  UNL1        0.0039
     18 C           6.3083   -3.4473   20.3479 C.ar    1  UNL1        0.0729
     19 C           6.1796   -3.8985   21.7726 C.ar    1  UNL1        0.0214
     20 C           5.3152   -3.9081   19.3226 C.3     1  UNL1        0.4186
     21 F           4.3221   -4.3690   18.2973 F       1  UNL1       -0.1659
     22 F           6.1171   -3.2397   18.2455 F       1  UNL1       -0.1659
     23 F           4.5133   -4.5765   20.3997 F       1  UNL1       -0.1659
     24 C           3.7781   -0.5997   26.0520 C.3     1  UNL1        0.0081
     25 C           3.6635    0.8904   25.9226 C.3     1  UNL1        0.0005
     26 C           2.3956    1.5031   25.4059 C.3     1  UNL1        0.0000
     27 C           1.6769    1.4648   22.9095 C.3     1  UNL1        0.0000
     28 C           1.6528    0.8507   24.2779 C.3     1  UNL1        0.0000
     29 C           3.8982   -1.8897   23.7999 C.3     1  UNL1        0.0341
     30 C           4.1674   -1.2288   22.4805 C.ar    1  UNL1       -0.0217
     31 C           3.2965   -1.5333   21.2977 C.ar    1  UNL1       -0.0041
     32 C           3.5656   -0.8725   19.9783 C.ar    1  UNL1        0.0042
     33 C           4.7056    0.0928   19.8416 C.ar    1  UNL1        0.0533
     34 C           5.5764    0.3973   21.0244 C.ar    1  UNL1        0.0042
     35 C           5.3073   -0.2635   22.3438 C.ar    1  UNL1       -0.0041
     36 C           4.9747    0.7536   18.5222 C.2     1  UNL1        0.2459
     37 O           4.1563    1.9358   18.0948 O.2     1  UNL1       -0.2701
     38 N           6.0622    0.2323   17.6303 N.am    1  UNL1       -0.3005
     39 H           6.5993   -0.5436   17.9108 H       1  UNL1        0.1498
     40 C           6.3313    0.8931   16.3109 C.3     1  UNL1        0.0956
     41 C           7.5820    1.6981   16.1166 C.3     1  UNL1        0.0629
     42 C           8.0921    2.5706   17.2250 C.2     1  UNL1        0.0520
     43 O           8.3231    4.0328   16.9826 O.co2   1  UNL1       -0.5491
     44 O           8.3711    1.9810   18.5757 O.co2   1  UNL1       -0.5491
@<TRIPOS>UNITY_ATOM_ATTR
43 1
charge -1
@<TRIPOS>BOND
     1    27    28    1
     2    28    26    1
     3    26    25    1
     4    25    24    1
     5     1    24    1
     6     1    29    1
     7    29    30    1
     8    30    31   ar
     9    31    32   ar
    10    32    33   ar
    11    33    36    1
    12    36    37    2
    13    36    38   am
    14    38    40    1
    15    40    41    1
    16    41    42    1
    17    42    43   ar
    18    42    44   ar
    19    33    34   ar
    20    34    35   ar
    21     1     2    1
    22     2     3    2
    23     2     4    1
    24     4     5   ar
    25     5     6   ar
    26     6     7   ar
    27     7     8   ar
    28     8     9    1
    29     8    10   ar
    30    10    11   ar
    31    11    12   ar
    32    12    13   ar
    33    13    14    1
    34    14    15   ar
    35    15    16   ar
    36    16    17   ar
    37    17    18   ar
    38    18    20    1
    39    20    21    1
    40    20    22    1
    41    20    23    1
    42    18    19   ar
    43    35    30   ar
    44    13     4   ar
    45    19    14   ar
    46    12     6   ar
    47    38    39    1
@<TRIPOS>MOLECULE
*****
 44 47 0 0 0
SMALL
GASTEIGER

@<TRIPOS>ATOM
      1 C         -15.2821   -2.6513   19.1492 C.3     1  UNL1        0.0678
      2 C         -14.7113   -3.7896   19.9419 C.2     1  UNL1        0.1889
      3 O         -13.8488   -3.5128   21.1374 O.2     1  UNL1       -0.2898
      4 C         -15.0031   -5.2048   19.5390 C.ar    1  UNL1        0.0989
      5 C         -16.3247   -5.9029   19.6655 C.ar    1  UNL1        0.0219
      6 C         -16.1628   -7.2998   19.1436 C.ar    1  UNL1        0.0185
      7 C         -17.1263   -8.4427   19.0192 C.ar    1  UNL1        0.0129
      8 C         -16.6681   -9.7509   18.4459 C.ar    1  UNL1        0.0578
      9 CL        -17.6316  -10.8938   18.3215 Cl      1  UNL1       -0.0822
     10 C         -15.2465   -9.9161   17.9969 C.ar    1  UNL1        0.0129
     11 C         -14.2830   -8.7732   18.1212 C.ar    1  UNL1        0.0184
     12 C         -14.7412   -7.4651   18.6946 C.ar    1  UNL1        0.0641
     13 N         -14.0244   -6.1703   18.9390 N.ar    1  UNL1       -0.3038
     14 C         -12.5822   -5.8902   18.6365 C.ar    1  UNL1        0.0640
     15 C         -11.5283   -6.8868   19.0190 C.ar    1  UNL1        0.0175
     16 C         -10.0861   -6.6067   18.7165 C.ar    1  UNL1        0.0014
     17 C          -9.6977   -5.3301   18.0314 C.ar    1  UNL1        0.0039
     18 C         -10.7515   -4.3335   17.6488 C.ar    1  UNL1        0.0729
     19 C         -12.1938   -4.6136   17.9514 C.ar    1  UNL1        0.0214
     20 C         -10.3631   -3.0569   16.9637 C.3     1  UNL1        0.4186
     21 F          -9.9747   -1.7803   16.2787 F       1  UNL1       -0.1659
     22 F         -11.7669   -2.5498   17.1129 F       1  UNL1       -0.1659
     23 F          -8.9594   -3.5640   16.8146 F       1  UNL1       -0.1659
     24 C         -15.6963   -2.8637   17.7232 C.3     1  UNL1        0.0081
     25 C         -17.1468   -2.8004   17.3462 C.3     1  UNL1        0.0005
     26 C         -18.1993   -3.1690   18.3494 C.3     1  UNL1        0.0000
     27 C         -19.5509   -2.3959   20.4291 C.3     1  UNL1        0.0000
     28 C         -18.9329   -2.0946   19.0960 C.3     1  UNL1        0.0000
     29 C         -15.4387   -1.3005   19.7824 C.3     1  UNL1        0.0341
     30 C         -14.9206   -0.0794   19.0822 C.ar    1  UNL1       -0.0217
     31 C         -15.7342    1.1809   19.0714 C.ar    1  UNL1       -0.0041
     32 C         -15.2161    2.4020   18.3712 C.ar    1  UNL1        0.0042
     33 C         -13.8845    2.3630   17.6817 C.ar    1  UNL1        0.0533
     34 C         -13.0710    1.1029   17.6925 C.ar    1  UNL1        0.0042
     35 C         -13.5891   -0.1184   18.3927 C.ar    1  UNL1       -0.0041
     36 C         -13.3665    3.5842   16.9815 C.2     1  UNL1        0.2459
     37 O         -12.2520    3.4613   15.9851 O.2     1  UNL1       -0.2701
     38 N         -13.9629    4.9283   17.2778 N.am    1  UNL1       -0.3005
     39 H         -14.6943    5.0090   17.9318 H       1  UNL1        0.1498
     40 C         -13.4448    6.1495   16.5776 C.3     1  UNL1        0.0956
     41 C         -12.1997    6.8252   17.0707 C.3     1  UNL1        0.0629
     42 C         -11.7872    6.6828   18.5058 C.2     1  UNL1        0.0520
     43 O         -10.3385    6.7780   18.8827 O.co2   1  UNL1       -0.5491
     44 O         -12.8235    6.4453   19.5640 O.co2   1  UNL1       -0.5491
@<TRIPOS>UNITY_ATOM_ATTR
43 1
charge -1
@<TRIPOS>BOND
     1    27    28    1
     2    28    26    1
     3    26    25    1
     4    25    24    1
     5     1    24    1
     6     1    29    1
     7    29    30    1
     8    30    31   ar
     9    31    32   ar
    10    32    33   ar
    11    33    36    1
    12    36    37    2
    13    36    38   am
    14    38    40    1
    15    40    41    1
    16    41    42    1
    17    42    43   ar
    18    42    44   ar
    19    33    34   ar
    20    34    35   ar
    21     1     2    1
    22     2     3    2
    23     2     4    1
    24     4     5   ar
    25     5     6   ar
    26     6     7   ar
    27     7     8   ar
    28     8     9    1
    29     8    10   ar
    30    10    11   ar
    31    11    12   ar
    32    12    13   ar
    33    13    14    1
    34    14    15   ar
    35    15    16   ar
    36    16    17   ar
    37    17    18   ar
    38    18    20    1
    39    20    21    1
    40    20    22    1
    41    20    23    1
    42    18    19   ar
    43    35    30   ar
    44    13     4   ar
    45    19    14   ar
    46    12     6   ar
    47    38    39    1
@<TRIPOS>MOLECULE
*****
 44 47 0 0 0
SMALL
GASTEIGER

@<TRIPOS>ATOM
      1 C           4.4100   -1.4498   17.9505 C.3     1  UNL1        0.0678
      2 C           5.8576   -1.1109   17.7514 C.2     1  UNL1        0.1889
      3 O           6.8527   -2.2004   17.4820 O.2     1  UNL1       -0.2898
      4 C           6.3099    0.3176   17.8216 C.ar    1  UNL1        0.0989
      5 C           6.6982    1.1777   16.6557 C.ar    1  UNL1        0.0219
      6 C           7.0817    2.5284   17.1835 C.ar    1  UNL1        0.0185
      7 C           7.5491    3.7782   16.4982 C.ar    1  UNL1        0.0129
      8 C           7.8652    5.0025   17.3051 C.ar    1  UNL1        0.0578
      9 CL          8.3326    6.2523   16.6198 Cl      1  UNL1       -0.0822
     10 C           7.7139    4.9771   18.7972 C.ar    1  UNL1        0.0129
     11 C           7.2465    3.7274   19.4825 C.ar    1  UNL1        0.0184
     12 C           6.9304    2.5030   18.6756 C.ar    1  UNL1        0.0641
     13 N           6.4534    1.1367   19.0699 N.ar    1  UNL1       -0.3038
     14 C           6.1697    0.6711   20.4674 C.ar    1  UNL1        0.0640
     15 C           7.2939    0.2100   21.3471 C.ar    1  UNL1        0.0175
     16 C           7.0102   -0.2555   22.7445 C.ar    1  UNL1        0.0014
     17 C           5.6024   -0.2600   23.2623 C.ar    1  UNL1        0.0039
     18 C           4.4783    0.2010   22.3826 C.ar    1  UNL1        0.0729
     19 C           4.7620    0.6666   20.9852 C.ar    1  UNL1        0.0214
     20 C           3.0705    0.1965   22.9004 C.3     1  UNL1        0.4186
     21 F           1.6627    0.1920   23.4181 F       1  UNL1       -0.1659
     22 F           3.1485   -1.2881   23.0994 F       1  UNL1       -0.1659
     23 F           2.9926    1.6812   22.7014 F       1  UNL1       -0.1659
     24 C           4.0267   -2.6996   18.6862 C.3     1  UNL1        0.0081
     25 C           4.0154   -2.7133   20.1862 C.3     1  UNL1        0.0005
     26 C           4.6608   -3.8443   20.9307 C.3     1  UNL1        0.0000
     27 C           6.0387   -3.9142   23.1322 C.3     1  UNL1        0.0000
     28 C           5.9501   -3.6206   21.6639 C.3     1  UNL1        0.0000
     29 C           3.3457   -0.5390   17.4140 C.3     1  UNL1        0.0341
     30 C           2.4310    0.1834   18.3581 C.ar    1  UNL1       -0.0217
     31 C           2.4604    1.6814   18.4320 C.ar    1  UNL1       -0.0041
     32 C           1.5457    2.4038   19.3760 C.ar    1  UNL1        0.0042
     33 C           0.6015    1.6284   20.2462 C.ar    1  UNL1        0.0533
     34 C           0.5720    0.1305   20.1724 C.ar    1  UNL1        0.0042
     35 C           1.4868   -0.5920   19.2283 C.ar    1  UNL1       -0.0041
     36 C          -0.3132    2.3508   21.1903 C.2     1  UNL1        0.2459
     37 O          -1.7679    2.5017   20.8570 O.2     1  UNL1       -0.2701
     38 N           0.2267    2.9225   22.4677 N.am    1  UNL1       -0.3005
     39 H           1.1815    2.8235   22.6865 H       1  UNL1        0.1498
     40 C          -0.6880    3.6449   23.4118 C.3     1  UNL1        0.0956
     41 C          -1.0045    3.0500   24.7519 C.3     1  UNL1        0.0629
     42 C           0.0412    2.2696   25.4919 C.2     1  UNL1        0.0520
     43 O          -0.3602    1.1165   26.3632 O.co2   1  UNL1       -0.5491
     44 O           1.4882    2.6423   25.3606 O.co2   1  UNL1       -0.5491
@<TRIPOS>UNITY_ATOM_ATTR
43 1
charge -1
@<TRIPOS>BOND
     1    27    28    1
     2    28    26    1
     3    26    25    1
     4    25    24    1
     5     1    24    1
     6     1    29    1
     7    29    30    1
     8    30    31   ar
     9    31    32   ar
    10    32    33   ar
    11    33    36    1
    12    36    37    2
    13    36    38   am
    14    38    40    1
    15    40    41    1
    16    41    42    1
    17    42    43   ar
    18    42    44   ar
    19    33    34   ar
    20    34    35   ar
    21     1     2    1
    22     2     3    2
    23     2     4    1
    24     4     5   ar
    25     5     6   ar
    26     6     7   ar
    27     7     8   ar
    28     8     9    1
    29     8    10   ar
    30    10    11   ar
    31    11    12   ar
    32    12    13   ar
    33    13    14    1
    34    14    15   ar
    35    15    16   ar
    36    16    17   ar
    37    17    18   ar
    38    18    20    1
    39    20    21    1
    40    20    22    1
    41    20    23    1
    42    18    19   ar
    43    35    30   ar
    44    13     4   ar
    45    19    14   ar
    46    12     6   ar
    47    38    39    1
@<TRIPOS>MOLECULE
*****
 44 47 0 0 0
SMALL
GASTEIGER

@<TRIPOS>ATOM
      1 C           0.9459    2.4076   24.6281 C.3     1  UNL1        0.0678
      2 C           0.5164    3.4348   23.6230 C.2     1  UNL1        0.1889
      3 O           1.5234    4.3825   23.0420 O.2     1  UNL1       -0.2898
      4 C          -0.9202    3.5142   23.1988 C.ar    1  UNL1        0.0989
      5 C          -2.0726    3.9344   24.0622 C.ar    1  UNL1        0.0219
      6 C          -3.3212    3.8673   23.2337 C.ar    1  UNL1        0.0185
      7 C          -4.7556    4.1669   23.5540 C.ar    1  UNL1        0.0129
      8 C          -5.8093    4.0048   22.4989 C.ar    1  UNL1        0.0578
      9 CL         -7.2438    4.3045   22.8193 Cl      1  UNL1       -0.0822
     10 C          -5.4287    3.5431   21.1235 C.ar    1  UNL1        0.0129
     11 C          -3.9943    3.2435   20.8031 C.ar    1  UNL1        0.0184
     12 C          -2.9406    3.4056   21.8582 C.ar    1  UNL1        0.0641
     13 N          -1.4567    3.1874   21.8366 N.ar    1  UNL1       -0.3038
     14 C          -0.6507    2.7237   20.6596 C.ar    1  UNL1        0.0640
     15 C          -0.5537    3.5811   19.4325 C.ar    1  UNL1        0.0175
     16 C           0.2522    3.1174   18.2554 C.ar    1  UNL1        0.0014
     17 C           0.9611    1.7964   18.3053 C.ar    1  UNL1        0.0039
     18 C           0.8640    0.9391   19.5323 C.ar    1  UNL1        0.0729
     19 C           0.0581    1.4028   20.7094 C.ar    1  UNL1        0.0214
     20 C           1.5729   -0.3819   19.5822 C.3     1  UNL1        0.4186
     21 F           2.2818   -1.7028   19.6322 F       1  UNL1       -0.1659
     22 F           2.5770    0.1194   18.5870 F       1  UNL1       -0.1659
     23 F           0.5688   -0.8831   20.5775 F       1  UNL1       -0.1659
     24 C           1.4340    2.8388   25.9794 C.3     1  UNL1        0.0081
     25 C           0.5056    2.8080   27.1572 C.3     1  UNL1        0.0005
     26 C          -0.6225    1.8202   27.1973 C.3     1  UNL1        0.0000
     27 C          -1.5712    0.1686   28.9642 C.3     1  UNL1        0.0000
     28 C          -0.4892    0.5618   28.0026 C.3     1  UNL1        0.0000
     29 C           0.8872    0.9492   24.2821 C.3     1  UNL1        0.0341
     30 C           2.1372    0.1205   24.3116 C.ar    1  UNL1       -0.0217
     31 C           2.7823   -0.2174   25.6230 C.ar    1  UNL1       -0.0041
     32 C           4.0322   -1.0461   25.6525 C.ar    1  UNL1        0.0042
     33 C           4.6371   -1.5369   24.3706 C.ar    1  UNL1        0.0533
     34 C           3.9921   -1.1990   23.0593 C.ar    1  UNL1        0.0042
     35 C           2.7421   -0.3703   23.0297 C.ar    1  UNL1       -0.0041
     36 C           5.8870   -2.3656   24.4001 C.2     1  UNL1        0.2459
     37 O           7.1019   -1.9177   23.6428 O.2     1  UNL1       -0.2701
     38 N           5.9222   -3.6422   25.1870 N.am    1  UNL1       -0.3005
     39 H           5.1249   -3.9361   25.6841 H       1  UNL1        0.1498
     40 C           7.1721   -4.4708   25.2165 C.3     1  UNL1        0.0956
     41 C           7.2018   -5.7560   25.9895 C.3     1  UNL1        0.0629
     42 C           7.0032   -5.7418   27.4763 C.2     1  UNL1        0.0520
     43 O           5.9705   -4.8411   28.0864 O.co2   1  UNL1       -0.5491
     44 O           7.8373   -6.6282   28.3528 O.co2   1  UNL1       -0.5491
@<TRIPOS>UNITY_ATOM_ATTR
43 1
charge -1
@<TRIPOS>BOND
     1    27    28    1
     2    28    26    1
     3    26    25    1
     4    25    24    1
     5     1    24    1
     6     1    29    1
     7    29    30    1
     8    30    31   ar
     9    31    32   ar
    10    32    33   ar
    11    33    36    1
    12    36    37    2
    13    36    38   am
    14    38    40    1
    15    40    41    1
    16    41    42    1
    17    42    43   ar
    18    42    44   ar
    19    33    34   ar
    20    34    35   ar
    21     1     2    1
    22     2     3    2
    23     2     4    1
    24     4     5   ar
    25     5     6   ar
    26     6     7   ar
    27     7     8   ar
    28     8     9    1
    29     8    10   ar
    30    10    11   ar
    31    11    12   ar
    32    12    13   ar
    33    13    14    1
    34    14    15   ar
    35    15    16   ar
    36    16    17   ar
    37    17    18   ar
    38    18    20    1
    39    20    21    1
    40    20    22    1
    41    20    23    1
    42    18    19   ar
    43    35    30   ar
    44    13     4   ar
    45    19    14   ar
    46    12     6   ar
    47    38    39    1
@<TRIPOS>MOLECULE
*****
 44 47 0 0 0
SMALL
GASTEIGER

@<TRIPOS>ATOM
      1 C           0.7221    1.8869   24.1596 C.3     1  UNL1        0.0678
      2 C           2.1589    1.7819   23.7420 C.2     1  UNL1        0.1889
      3 O           3.0995    2.9219   23.9981 O.2     1  UNL1       -0.2898
      4 C           2.6551    0.5370   23.0684 C.ar    1  UNL1        0.0989
      5 C           2.2867    0.0735   21.6901 C.ar    1  UNL1        0.0219
      6 C           3.0107   -1.2130   21.4246 C.ar    1  UNL1        0.0185
      7 C           3.0325   -2.1253   20.2342 C.ar    1  UNL1        0.0129
      8 C           3.8702   -3.3693   20.2579 C.ar    1  UNL1        0.0578
      9 CL          3.8920   -4.2817   19.0674 Cl      1  UNL1       -0.0822
     10 C           4.6861   -3.7011   21.4720 C.ar    1  UNL1        0.0129
     11 C           4.6644   -2.7888   22.6625 C.ar    1  UNL1        0.0184
     12 C           3.8267   -1.5448   22.6388 C.ar    1  UNL1        0.0641
     13 N           3.6069   -0.4632   23.6546 N.ar    1  UNL1       -0.3038
     14 C           4.2296   -0.3941   25.0175 C.ar    1  UNL1        0.0640
     15 C           5.7131   -0.2204   25.1564 C.ar    1  UNL1        0.0175
     16 C           6.3357   -0.1512   26.5193 C.ar    1  UNL1        0.0014
     17 C           5.4750   -0.2557   27.7433 C.ar    1  UNL1        0.0039
     18 C           3.9916   -0.4294   27.6044 C.ar    1  UNL1        0.0729
     19 C           3.3689   -0.4985   26.2415 C.ar    1  UNL1        0.0214
     20 C           3.1309   -0.5338   28.8285 C.3     1  UNL1        0.4186
     21 F           2.2701   -0.6383   30.0525 F       1  UNL1       -0.1659
     22 F           4.2474    0.0230   29.6611 F       1  UNL1       -0.1659
     23 F           2.0144   -1.0906   27.9958 F       1  UNL1       -0.1659
     24 C          -0.1779    2.8922   23.5042 C.3     1  UNL1        0.0081
     25 C          -0.1603    4.3222   23.9568 C.3     1  UNL1        0.0005
     26 C          -1.3341    4.8883   24.6995 C.3     1  UNL1        0.0000
     27 C          -2.6357    3.5946   26.5385 C.3     1  UNL1        0.0000
     28 C          -1.5440    4.5447   26.1444 C.3     1  UNL1        0.0000
     29 C           0.1851    0.9867   25.2326 C.3     1  UNL1        0.0341
     30 C           0.2946    1.3891   26.6734 C.ar    1  UNL1       -0.0217
     31 C          -0.5840    0.7408   27.7021 C.ar    1  UNL1       -0.0041
     32 C          -0.4745    1.1432   29.1429 C.ar    1  UNL1        0.0042
     33 C           0.5134    2.1939   29.5552 C.ar    1  UNL1        0.0533
     34 C           1.3919    2.8422   28.5267 C.ar    1  UNL1        0.0042
     35 C           1.2825    2.4398   27.0857 C.ar    1  UNL1       -0.0041
     36 C           0.6228    2.5963   30.9960 C.2     1  UNL1        0.2459
     37 O           0.8842    1.5584   32.0469 O.2     1  UNL1       -0.2701
     38 N           0.4708    4.0368   31.3861 N.am    1  UNL1       -0.3005
     39 H           0.2992    4.7181   30.6964 H       1  UNL1        0.1498
     40 C           0.5802    4.4392   32.8269 C.3     1  UNL1        0.0956
     41 C           1.8764    4.2581   33.5598 C.3     1  UNL1        0.0629
     42 C           1.8825    3.6644   34.9373 C.2     1  UNL1        0.0520
     43 O           1.4742    4.4985   36.1153 O.co2   1  UNL1       -0.5491
     44 O           2.2970    2.2367   35.1369 O.co2   1  UNL1       -0.5491
@<TRIPOS>UNITY_ATOM_ATTR
43 1
charge -1
@<TRIPOS>BOND
     1    27    28    1
     2    28    26    1
     3    26    25    1
     4    25    24    1
     5     1    24    1
     6     1    29    1
     7    29    30    1
     8    30    31   ar
     9    31    32   ar
    10    32    33   ar
    11    33    36    1
    12    36    37    2
    13    36    38   am
    14    38    40    1
    15    40    41    1
    16    41    42    1
    17    42    43   ar
    18    42    44   ar
    19    33    34   ar
    20    34    35   ar
    21     1     2    1
    22     2     3    2
    23     2     4    1
    24     4     5   ar
    25     5     6   ar
    26     6     7   ar
    27     7     8   ar
    28     8     9    1
    29     8    10   ar
    30    10    11   ar
    31    11    12   ar
    32    12    13   ar
    33    13    14    1
    34    14    15   ar
    35    15    16   ar
    36    16    17   ar
    37    17    18   ar
    38    18    20    1
    39    20    21    1
    40    20    22    1
    41    20    23    1
    42    18    19   ar
    43    35    30   ar
    44    13     4   ar
    45    19    14   ar
    46    12     6   ar
    47    38    39    1
