@<TRIPOS>MOLECULE
*****
 28 30 0 0 0
SMALL
GASTEIGER

@<TRIPOS>ATOM
      1 C          -9.9120  -18.3298   22.7168 C.3     1  UNL1        0.0378
      2 C         -10.6376  -19.0301   21.6064 C.3     1  UNL1        0.0075
      3 C          -9.8774  -19.5402   20.4182 C.3     1  UNL1        0.0219
      4 C          -8.3915  -19.3499   20.3404 C.3     1  UNL1        0.0950
      5 N          -7.6659  -18.6495   21.4508 N.am    1  UNL1       -0.2637
      6 C          -6.1800  -18.4592   21.3730 C.2     1  UNL1        0.3077
      7 O          -5.4545  -17.7589   22.4835 O.2     1  UNL1       -0.2522
      8 N          -5.4198  -18.9693   20.1848 N.am    1  UNL1       -0.2681
      9 C          -8.4261  -18.1395   22.6390 C.3     1  UNL1        0.0989
     10 H          -5.8960  -19.4290   19.4560 H       1  UNL1        0.1564
     11 C          -3.9340  -18.7790   20.1071 C.ar    1  UNL1        0.0516
     12 C          -3.0375  -19.4633   21.0961 C.ar    1  UNL1        0.0156
     13 C          -1.5517  -19.2730   21.0185 C.ar    1  UNL1        0.0127
     14 C          -0.9623  -18.3985   19.9518 C.ar    1  UNL1        0.0578
     15 CL          0.5236  -18.2082   19.8741 Cl      1  UNL1       -0.0822
     16 C          -1.8587  -17.7142   18.9628 C.ar    1  UNL1        0.0127
     17 C          -3.3446  -17.9045   19.0405 C.ar    1  UNL1        0.0156
     18 C         -11.3152  -18.2695   23.2439 C.ar    1  UNL1       -0.0181
     19 C         -11.6373  -18.8531   24.5876 C.ar    1  UNL1        0.0164
     20 C         -13.0403  -18.7928   25.1146 C.ar    1  UNL1        0.0986
     21 N         -14.1213  -18.1491   24.2978 N.ar    1  UNL1       -0.2423
     22 C         -13.7992  -17.5655   22.9541 C.ar    1  UNL1        0.0986
     23 C         -12.3961  -17.6257   22.4271 C.ar    1  UNL1        0.0164
     24 C          -9.6737  -17.6085   24.0103 C.3     1  UNL1        0.0116
     25 C          -9.2929  -16.1577   24.0009 C.3     1  UNL1        0.0421
     26 O          -7.1537  -14.7896   24.5505 O.co2   1  UNL1       -0.5492
     27 C          -8.3074  -15.6344   25.0034 C.2     1  UNL1        0.0503
     28 O          -8.4757  -15.9561   26.4588 O.co2   1  UNL1       -0.5492
@<TRIPOS>UNITY_ATOM_ATTR
26 1
charge -1
@<TRIPOS>BOND
     1    26    27   ar
     2    27    28   ar
     3    27    25    1
     4    25    24    1
     5    24     1    1
     6     1    18    1
     7    18    19   ar
     8    19    20   ar
     9    20    21   ar
    10    21    22   ar
    11    22    23   ar
    12     1     2    1
    13     2     3    1
    14     3     4    1
    15     4     5    1
    16     5     6   am
    17     6     7    2
    18     6     8   am
    19     8    11    1
    20    11    12   ar
    21    12    13   ar
    22    13    14   ar
    23    14    15    1
    24    14    16   ar
    25    16    17   ar
    26     5     9    1
    27     9     1    1
    28    23    18   ar
    29    17    11   ar
    30     8    10    1
@<TRIPOS>MOLECULE
*****
 28 30 0 0 0
SMALL
GASTEIGER

@<TRIPOS>ATOM
      1 C         -10.8104  -18.5516   23.2868 C.3     1  UNL1        0.0378
      2 C         -10.8882  -19.8345   24.0601 C.3     1  UNL1        0.0075
      3 C          -9.6863  -20.7268   24.1554 C.3     1  UNL1        0.0219
      4 C          -8.4065  -20.3361   23.4774 C.3     1  UNL1        0.0950
      5 N          -8.3287  -19.0532   22.7041 N.am    1  UNL1       -0.2637
      6 C          -7.0489  -18.6626   22.0261 C.2     1  UNL1        0.3077
      7 O          -6.9712  -17.3796   21.2528 O.2     1  UNL1       -0.2522
      8 N          -5.8470  -19.5549   22.1214 N.am    1  UNL1       -0.2681
      9 C          -9.5306  -18.1609   22.6088 C.3     1  UNL1        0.0989
     10 H          -5.8980  -20.3970   22.6290 H       1  UNL1        0.1564
     11 C          -4.5673  -19.1642   21.4434 C.ar    1  UNL1        0.0516
     12 C          -4.4117  -19.3613   19.9645 C.ar    1  UNL1        0.0156
     13 C          -3.1321  -18.9706   19.2865 C.ar    1  UNL1        0.0127
     14 C          -2.0080  -18.3829   20.0872 C.ar    1  UNL1        0.0578
     15 CL         -0.7283  -17.9922   19.4091 Cl      1  UNL1       -0.0822
     16 C          -2.1636  -18.1858   21.5660 C.ar    1  UNL1        0.0127
     17 C          -3.4433  -18.5765   22.2441 C.ar    1  UNL1        0.0156
     18 C         -12.2350  -18.4891   23.7524 C.ar    1  UNL1       -0.0181
     19 C         -12.5587  -18.6821   25.2043 C.ar    1  UNL1        0.0164
     20 C         -13.9832  -18.6196   25.6698 C.ar    1  UNL1        0.0986
     21 N         -15.0841  -18.3641   24.6835 N.ar    1  UNL1       -0.2423
     22 C         -14.7604  -18.1710   23.2316 C.ar    1  UNL1        0.0986
     23 C         -13.3358  -18.2335   22.7661 C.ar    1  UNL1        0.0164
     24 C         -11.2274  -17.2469   22.6752 C.3     1  UNL1        0.0116
     25 C         -10.5143  -16.7248   21.4633 C.3     1  UNL1        0.0421
     26 O         -10.5853  -15.1153   19.4251 O.co2   1  UNL1       -0.5492
     27 C         -11.2870  -16.0396   20.3755 C.2     1  UNL1        0.0503
     28 O         -12.7615  -16.2787   20.2381 O.co2   1  UNL1       -0.5492
@<TRIPOS>UNITY_ATOM_ATTR
26 1
charge -1
@<TRIPOS>BOND
     1    26    27   ar
     2    27    28   ar
     3    27    25    1
     4    25    24    1
     5    24     1    1
     6     1    18    1
     7    18    19   ar
     8    19    20   ar
     9    20    21   ar
    10    21    22   ar
    11    22    23   ar
    12     1     2    1
    13     2     3    1
    14     3     4    1
    15     4     5    1
    16     5     6   am
    17     6     7    2
    18     6     8   am
    19     8    11    1
    20    11    12   ar
    21    12    13   ar
    22    13    14   ar
    23    14    15    1
    24    14    16   ar
    25    16    17   ar
    26     5     9    1
    27     9     1    1
    28    23    18   ar
    29    17    11   ar
    30     8    10    1
@<TRIPOS>MOLECULE
*****
 28 30 0 0 0
SMALL
GASTEIGER

@<TRIPOS>ATOM
      1 C          -4.4803  -18.3237   21.5319 C.3     1  UNL1        0.0378
      2 C          -4.4994  -19.0925   20.2441 C.3     1  UNL1        0.0075
      3 C          -5.7911  -19.6475   19.7210 C.3     1  UNL1        0.0219
      4 C          -7.0637  -19.4336   20.4858 C.3     1  UNL1        0.0950
      5 N          -7.0446  -18.6648   21.7736 N.am    1  UNL1       -0.2637
      6 C          -8.3171  -18.4509   22.5384 C.2     1  UNL1        0.3077
      7 O          -8.2980  -17.6821   23.8262 O.2     1  UNL1       -0.2522
      8 N          -9.6088  -19.0059   22.0153 N.am    1  UNL1       -0.2681
      9 C          -5.7529  -18.1098   22.2967 C.3     1  UNL1        0.0989
     10 H          -9.6214  -19.5106   21.1701 H       1  UNL1        0.1564
     11 C         -10.8813  -18.7921   22.7801 C.ar    1  UNL1        0.0516
     12 C         -12.0402  -18.0975   22.1285 C.ar    1  UNL1        0.0156
     13 C         -13.3127  -17.8835   22.8932 C.ar    1  UNL1        0.0127
     14 C         -13.4264  -18.3642   24.3096 C.ar    1  UNL1        0.0578
     15 CL        -14.6989  -18.1503   25.0744 Cl      1  UNL1       -0.0822
     16 C         -12.2675  -19.0587   24.9613 C.ar    1  UNL1        0.0127
     17 C         -10.9949  -19.2727   24.1965 C.ar    1  UNL1        0.0156
     18 C          -3.0257  -18.2632   21.1708 C.ar    1  UNL1       -0.0181
     19 C          -2.3375  -16.9359   21.0499 C.ar    1  UNL1        0.0164
     20 C          -0.8828  -16.8755   20.6889 C.ar    1  UNL1        0.0986
     21 N          -0.1164  -18.1423   20.4487 N.ar    1  UNL1       -0.2423
     22 C          -0.8046  -19.4696   20.5696 C.ar    1  UNL1        0.0986
     23 C          -2.2592  -19.5300   20.9307 C.ar    1  UNL1        0.0164
     24 C          -3.9560  -17.5338   22.6943 C.3     1  UNL1        0.0116
     25 C          -4.9109  -16.8880   23.6540 C.3     1  UNL1        0.0421
     26 O          -5.3583  -14.7863   25.1144 O.co2   1  UNL1       -0.5492
     27 C          -4.9162  -15.3969   23.8176 C.2     1  UNL1        0.0503
     28 O          -4.4795  -14.5166   22.6843 O.co2   1  UNL1       -0.5492
@<TRIPOS>UNITY_ATOM_ATTR
26 1
charge -1
@<TRIPOS>BOND
     1    26    27   ar
     2    27    28   ar
     3    27    25    1
     4    25    24    1
     5    24     1    1
     6     1    18    1
     7    18    19   ar
     8    19    20   ar
     9    20    21   ar
    10    21    22   ar
    11    22    23   ar
    12     1     2    1
    13     2     3    1
    14     3     4    1
    15     4     5    1
    16     5     6   am
    17     6     7    2
    18     6     8   am
    19     8    11    1
    20    11    12   ar
    21    12    13   ar
    22    13    14   ar
    23    14    15    1
    24    14    16   ar
    25    16    17   ar
    26     5     9    1
    27     9     1    1
    28    23    18   ar
    29    17    11   ar
    30     8    10    1
@<TRIPOS>MOLECULE
*****
 28 30 0 0 0
SMALL
GASTEIGER

@<TRIPOS>ATOM
      1 C           3.3228   -1.1637   21.3065 C.3     1  UNL1        0.0378
      2 C           2.9771   -0.1207   22.3275 C.3     1  UNL1        0.0075
      3 C           3.4944   -0.2437   23.7301 C.3     1  UNL1        0.0219
      4 C           4.3574   -1.4098   24.1116 C.3     1  UNL1        0.0950
      5 N           4.7031   -2.4528   23.0905 N.am    1  UNL1       -0.2637
      6 C           5.5661   -3.6189   23.4720 C.2     1  UNL1        0.3077
      7 O           5.9118   -4.6618   22.4509 O.2     1  UNL1       -0.2522
      8 N           6.0835   -3.7419   24.8746 N.am    1  UNL1       -0.2681
      9 C           4.1858   -2.3297   21.6879 C.3     1  UNL1        0.0989
     10 H           5.8566   -3.0573   25.5448 H       1  UNL1        0.1564
     11 C           6.9465   -4.9079   25.2560 C.ar    1  UNL1        0.0516
     12 C           8.1814   -5.2181   24.4629 C.ar    1  UNL1        0.0156
     13 C           9.0444   -6.3841   24.8442 C.ar    1  UNL1        0.0127
     14 C           8.6726   -7.2401   26.0186 C.ar    1  UNL1        0.0578
     15 CL          9.5357   -8.4062   26.4000 Cl      1  UNL1       -0.0822
     16 C           7.4377   -6.9300   26.8116 C.ar    1  UNL1        0.0127
     17 C           6.5746   -5.7639   26.4303 C.ar    1  UNL1        0.0156
     18 C           2.4779   -0.2496   20.4693 C.ar    1  UNL1       -0.0181
     19 C           3.1197    0.6281   19.4361 C.ar    1  UNL1        0.0164
     20 C           2.2748    1.5421   18.5990 C.ar    1  UNL1        0.0986
     21 N           0.7881    1.5785   18.7953 N.ar    1  UNL1       -0.2423
     22 C           0.1463    0.7008   19.8285 C.ar    1  UNL1        0.0986
     23 C           0.9912   -0.2132   20.6656 C.ar    1  UNL1        0.0164
     24 C           3.3750   -1.8892   19.9946 C.3     1  UNL1        0.0116
     25 C           4.6609   -2.5055   19.5291 C.3     1  UNL1        0.0421
     26 O           4.3166   -1.5720   17.1291 O.co2   1  UNL1       -0.5492
     27 C           5.2140   -2.1572   18.1790 C.2     1  UNL1        0.0503
     28 O           6.6644   -2.3941   17.8789 O.co2   1  UNL1       -0.5492
@<TRIPOS>UNITY_ATOM_ATTR
26 1
charge -1
@<TRIPOS>BOND
     1    26    27   ar
     2    27    28   ar
     3    27    25    1
     4    25    24    1
     5    24     1    1
     6     1    18    1
     7    18    19   ar
     8    19    20   ar
     9    20    21   ar
    10    21    22   ar
    11    22    23   ar
    12     1     2    1
    13     2     3    1
    14     3     4    1
    15     4     5    1
    16     5     6   am
    17     6     7    2
    18     6     8   am
    19     8    11    1
    20    11    12   ar
    21    12    13   ar
    22    13    14   ar
    23    14    15    1
    24    14    16   ar
    25    16    17   ar
    26     5     9    1
    27     9     1    1
    28    23    18   ar
    29    17    11   ar
    30     8    10    1
@<TRIPOS>MOLECULE
*****
 28 30 0 0 0
SMALL
GASTEIGER

@<TRIPOS>ATOM
      1 C           3.8061   -1.3677   21.8820 C.3     1  UNL1        0.0378
      2 C           2.8885   -0.4271   22.6053 C.3     1  UNL1        0.0075
      3 C           2.9161   -0.3561   24.1034 C.3     1  UNL1        0.0219
      4 C           3.8614   -1.2257   24.8781 C.3     1  UNL1        0.0950
      5 N           4.7790   -2.1663   24.1548 N.am    1  UNL1       -0.2637
      6 C           5.7243   -3.0360   24.9296 C.2     1  UNL1        0.3077
      7 O           6.6418   -3.9766   24.2062 O.2     1  UNL1       -0.2522
      8 N           5.7519   -2.9650   26.4276 N.am    1  UNL1       -0.2681
      9 C           4.7514   -2.2374   22.6568 C.3     1  UNL1        0.0989
     10 H           5.1497   -2.3476   26.9024 H       1  UNL1        0.1564
     11 C           6.6972   -3.8346   27.2023 C.ar    1  UNL1        0.0516
     12 C           6.2070   -5.1107   27.8200 C.ar    1  UNL1        0.0156
     13 C           7.1522   -5.9804   28.5946 C.ar    1  UNL1        0.0127
     14 C           8.5876   -5.5741   28.7517 C.ar    1  UNL1        0.0578
     15 CL          9.5329   -6.4438   29.5264 Cl      1  UNL1       -0.0822
     16 C           9.0778   -4.2981   28.1340 C.ar    1  UNL1        0.0127
     17 C           8.1325   -3.4283   27.3593 C.ar    1  UNL1        0.0156
     18 C           3.0935   -0.7503   20.7153 C.ar    1  UNL1       -0.0181
     19 C           1.5965   -0.6563   20.7150 C.ar    1  UNL1        0.0164
     20 C           0.8841   -0.0389   19.5483 C.ar    1  UNL1        0.0986
     21 N           1.6686    0.4845   18.3819 N.ar    1  UNL1       -0.2423
     22 C           3.1657    0.3905   18.3822 C.ar    1  UNL1        0.0986
     23 C           3.8781   -0.2269   19.5489 C.ar    1  UNL1        0.0164
     24 C           4.4762   -2.0940   20.7535 C.3     1  UNL1        0.0116
     25 C           4.3877   -3.5888   20.6660 C.3     1  UNL1        0.0421
     26 O           4.5472   -5.7704   19.2643 O.co2   1  UNL1       -0.5492
     27 C           4.7323   -4.2867   19.3837 C.2     1  UNL1        0.0503
     28 O           5.2620   -3.5009   18.2210 O.co2   1  UNL1       -0.5492
@<TRIPOS>UNITY_ATOM_ATTR
26 1
charge -1
@<TRIPOS>BOND
     1    26    27   ar
     2    27    28   ar
     3    27    25    1
     4    25    24    1
     5    24     1    1
     6     1    18    1
     7    18    19   ar
     8    19    20   ar
     9    20    21   ar
    10    21    22   ar
    11    22    23   ar
    12     1     2    1
    13     2     3    1
    14     3     4    1
    15     4     5    1
    16     5     6   am
    17     6     7    2
    18     6     8   am
    19     8    11    1
    20    11    12   ar
    21    12    13   ar
    22    13    14   ar
    23    14    15    1
    24    14    16   ar
    25    16    17   ar
    26     5     9    1
    27     9     1    1
    28    23    18   ar
    29    17    11   ar
    30     8    10    1
@<TRIPOS>MOLECULE
*****
 28 30 0 0 0
SMALL
GASTEIGER

@<TRIPOS>ATOM
      1 C          -4.4795  -18.1039   21.8031 C.3     1  UNL1        0.0378
      2 C          -3.8865  -17.0643   22.7072 C.3     1  UNL1        0.0075
      3 C          -4.7616  -16.3251   23.6756 C.3     1  UNL1        0.0219
      4 C          -6.2298  -16.6257   23.7398 C.3     1  UNL1        0.0950
      5 N          -6.8228  -17.6653   22.8358 N.am    1  UNL1       -0.2637
      6 C          -8.2911  -17.9659   22.9001 C.2     1  UNL1        0.3077
      7 O          -8.8840  -19.0056   21.9960 O.2     1  UNL1       -0.2522
      8 N          -9.1662  -17.2267   23.8684 N.am    1  UNL1       -0.2681
      9 C          -5.9477  -18.4045   21.8674 C.3     1  UNL1        0.0989
     10 H          -8.7770  -16.5443   24.4618 H       1  UNL1        0.1564
     11 C         -10.6343  -17.5273   23.9327 C.ar    1  UNL1        0.0516
     12 C         -11.5951  -16.7609   23.0725 C.ar    1  UNL1        0.0156
     13 C         -13.0632  -17.0614   23.1367 C.ar    1  UNL1        0.0127
     14 C         -13.5707  -18.1283   24.0610 C.ar    1  UNL1        0.0578
     15 CL        -15.0389  -18.4289   24.1251 Cl      1  UNL1       -0.0822
     16 C         -12.6100  -18.8947   24.9211 C.ar    1  UNL1        0.0127
     17 C         -11.1418  -18.5941   24.8569 C.ar    1  UNL1        0.0156
     18 C          -3.0441  -18.1728   21.3730 C.ar    1  UNL1       -0.0181
     19 C          -2.3036  -16.9150   21.0271 C.ar    1  UNL1        0.0164
     20 C          -0.8683  -16.9839   20.5969 C.ar    1  UNL1        0.0986
     21 N          -0.1735  -18.3106   20.5126 N.ar    1  UNL1       -0.2423
     22 C          -0.9140  -19.5684   20.8585 C.ar    1  UNL1        0.0986
     23 C          -2.3493  -19.4995   21.2887 C.ar    1  UNL1        0.0164
     24 C          -4.5740  -19.1676   20.7496 C.3     1  UNL1        0.0116
     25 C          -5.7556  -19.2058   19.8264 C.3     1  UNL1        0.0421
     26 O          -8.0101  -20.3489   19.2260 O.co2   1  UNL1       -0.5492
     27 C          -6.6068  -20.4384   19.7483 C.2     1  UNL1        0.0503
     28 O          -6.0547  -21.7605   20.1924 O.co2   1  UNL1       -0.5492
@<TRIPOS>UNITY_ATOM_ATTR
26 1
charge -1
@<TRIPOS>BOND
     1    26    27   ar
     2    27    28   ar
     3    27    25    1
     4    25    24    1
     5    24     1    1
     6     1    18    1
     7    18    19   ar
     8    19    20   ar
     9    20    21   ar
    10    21    22   ar
    11    22    23   ar
    12     1     2    1
    13     2     3    1
    14     3     4    1
    15     4     5    1
    16     5     6   am
    17     6     7    2
    18     6     8   am
    19     8    11    1
    20    11    12   ar
    21    12    13   ar
    22    13    14   ar
    23    14    15    1
    24    14    16   ar
    25    16    17   ar
    26     5     9    1
    27     9     1    1
    28    23    18   ar
    29    17    11   ar
    30     8    10    1
@<TRIPOS>MOLECULE
*****
 28 30 0 0 0
SMALL
GASTEIGER

@<TRIPOS>ATOM
      1 C           3.6765   -1.0897   21.8205 C.3     1  UNL1        0.0378
      2 C           4.6448   -2.1922   22.1316 C.3     1  UNL1        0.0075
      3 C           4.9446   -2.5468   23.5579 C.3     1  UNL1        0.0219
      4 C           4.2761   -1.7989   24.6731 C.3     1  UNL1        0.0950
      5 N           3.3077   -0.6965   24.3621 N.am    1  UNL1       -0.2637
      6 C           2.6392    0.0514   25.4773 C.2     1  UNL1        0.3077
      7 O           1.6708    1.1539   25.1662 O.2     1  UNL1       -0.2522
      8 N           2.9390   -0.3032   26.9036 N.am    1  UNL1       -0.2681
      9 C           3.0079   -0.3418   22.9358 C.3     1  UNL1        0.0989
     10 H           3.5745   -1.0268   27.1078 H       1  UNL1        0.1564
     11 C           2.2704    0.4447   28.0187 C.ar    1  UNL1        0.0516
     12 C           0.8625    0.1061   28.4105 C.ar    1  UNL1        0.0156
     13 C           0.1939    0.8540   29.5255 C.ar    1  UNL1        0.0127
     14 C           0.9330    1.9404   30.2491 C.ar    1  UNL1        0.0578
     15 CL          0.2644    2.6883   31.3643 Cl      1  UNL1       -0.0822
     16 C           2.3409    2.2789   29.8574 C.ar    1  UNL1        0.0127
     17 C           3.0095    1.5310   28.7422 C.ar    1  UNL1        0.0156
     18 C           4.0543   -1.5047   20.4294 C.ar    1  UNL1       -0.0181
     19 C           3.8413   -2.9216   19.9855 C.ar    1  UNL1        0.0164
     20 C           4.2191   -3.3365   18.5945 C.ar    1  UNL1        0.0986
     21 N           4.8099   -2.3346   17.6473 N.ar    1  UNL1       -0.2423
     22 C           5.0229   -0.9177   18.0912 C.ar    1  UNL1        0.0986
     23 C           4.6451   -0.5028   19.4822 C.ar    1  UNL1        0.0164
     24 C           2.8393   -0.1313   21.0263 C.3     1  UNL1        0.0116
     25 C           1.3510   -0.3079   20.9654 C.3     1  UNL1        0.0421
     26 O           0.8113    0.5110   18.5596 O.co2   1  UNL1       -0.5492
     27 C           0.5331    0.5360   20.0333 C.2     1  UNL1        0.0503
     28 O          -0.5630    1.4050   20.5751 O.co2   1  UNL1       -0.5492
@<TRIPOS>UNITY_ATOM_ATTR
26 1
charge -1
@<TRIPOS>BOND
     1    26    27   ar
     2    27    28   ar
     3    27    25    1
     4    25    24    1
     5    24     1    1
     6     1    18    1
     7    18    19   ar
     8    19    20   ar
     9    20    21   ar
    10    21    22   ar
    11    22    23   ar
    12     1     2    1
    13     2     3    1
    14     3     4    1
    15     4     5    1
    16     5     6   am
    17     6     7    2
    18     6     8   am
    19     8    11    1
    20    11    12   ar
    21    12    13   ar
    22    13    14   ar
    23    14    15    1
    24    14    16   ar
    25    16    17   ar
    26     5     9    1
    27     9     1    1
    28    23    18   ar
    29    17    11   ar
    30     8    10    1
@<TRIPOS>MOLECULE
*****
 28 30 0 0 0
SMALL
GASTEIGER

@<TRIPOS>ATOM
      1 C           3.7584   -1.1713   21.6572 C.3     1  UNL1        0.0378
      2 C           2.7480   -0.6766   20.6651 C.3     1  UNL1        0.0075
      3 C           1.5662    0.1203   21.1323 C.3     1  UNL1        0.0219
      4 C           1.3949    0.4226   22.5915 C.3     1  UNL1        0.0950
      5 N           2.4053   -0.0721   23.5836 N.am    1  UNL1       -0.2637
      6 C           2.2340    0.2302   25.0428 C.2     1  UNL1        0.3077
      7 O           3.2446   -0.2645   26.0348 O.2     1  UNL1       -0.2522
      8 N           1.0522    1.0271   25.5099 N.am    1  UNL1       -0.2681
      9 C           3.5871   -0.8690   23.1164 C.3     1  UNL1        0.0989
     10 H           0.3890    1.3518   24.8588 H       1  UNL1        0.1564
     11 C           0.8810    1.3293   26.9691 C.ar    1  UNL1        0.0516
     12 C          -0.1450    0.5872   27.7734 C.ar    1  UNL1        0.0156
     13 C          -0.3163    0.8894   29.2325 C.ar    1  UNL1        0.0127
     14 C           0.5384    1.9336   29.8876 C.ar    1  UNL1        0.0578
     15 CL          0.3671    2.2358   31.3469 Cl      1  UNL1       -0.0822
     16 C           1.5644    2.6757   29.0834 C.ar    1  UNL1        0.0127
     17 C           1.7356    2.3735   27.6242 C.ar    1  UNL1        0.0156
     18 C           4.3524   -1.7104   20.3896 C.ar    1  UNL1       -0.0181
     19 C           5.3674   -0.9043   19.6348 C.ar    1  UNL1        0.0164
     20 C           5.9613   -1.4434   18.3673 C.ar    1  UNL1        0.0986
     21 N           5.5401   -2.7886   17.8546 N.ar    1  UNL1       -0.2423
     22 C           4.5250   -3.5947   18.6093 C.ar    1  UNL1        0.0986
     23 C           3.9311   -3.0556   19.8769 C.ar    1  UNL1        0.0164
     24 C           4.9752   -1.8532   22.2090 C.3     1  UNL1        0.0116
     25 C           4.8328   -2.8792   23.2938 C.3     1  UNL1        0.0421
     26 O           6.4778   -4.6628   22.3649 O.co2   1  UNL1       -0.5492
     27 C           5.9210   -3.8863   23.5212 C.2     1  UNL1        0.0503
     28 O           6.4523   -4.1169   24.9049 O.co2   1  UNL1       -0.5492
@<TRIPOS>UNITY_ATOM_ATTR
26 1
charge -1
@<TRIPOS>BOND
     1    26    27   ar
     2    27    28   ar
     3    27    25    1
     4    25    24    1
     5    24     1    1
     6     1    18    1
     7    18    19   ar
     8    19    20   ar
     9    20    21   ar
    10    21    22   ar
    11    22    23   ar
    12     1     2    1
    13     2     3    1
    14     3     4    1
    15     4     5    1
    16     5     6   am
    17     6     7    2
    18     6     8   am
    19     8    11    1
    20    11    12   ar
    21    12    13   ar
    22    13    14   ar
    23    14    15    1
    24    14    16   ar
    25    16    17   ar
    26     5     9    1
    27     9     1    1
    28    23    18   ar
    29    17    11   ar
    30     8    10    1
@<TRIPOS>MOLECULE
*****
 28 30 0 0 0
SMALL
GASTEIGER

@<TRIPOS>ATOM
      1 C          -1.2884    3.3520   24.6035 C.3     1  UNL1        0.0378
      2 C          -2.2636    4.0421   23.6966 C.3     1  UNL1        0.0075
      3 C          -2.1699    3.8530   22.2115 C.3     1  UNL1        0.0219
      4 C          -1.1010    2.9736   21.6334 C.3     1  UNL1        0.0950
      5 N          -0.1257    2.2835   22.5404 N.am    1  UNL1       -0.2637
      6 C           0.9432    1.4042   21.9623 C.2     1  UNL1        0.3077
      7 O           1.9184    0.7141   22.8694 O.2     1  UNL1       -0.2522
      8 N           1.0369    1.2150   20.4773 N.am    1  UNL1       -0.2681
      9 C          -0.2194    2.4727   24.0255 C.3     1  UNL1        0.0989
     10 H           0.3968    1.6679   19.8820 H       1  UNL1        0.1564
     11 C           2.1059    0.3357   19.8993 C.ar    1  UNL1        0.0516
     12 C           3.2086    0.9363   19.0787 C.ar    1  UNL1        0.0156
     13 C           4.2776    0.0571   18.5007 C.ar    1  UNL1        0.0127
     14 C           4.2439   -1.4228   18.7433 C.ar    1  UNL1        0.0578
     15 CL          5.3130   -2.3021   18.1652 Cl      1  UNL1       -0.0822
     16 C           3.1412   -2.0235   19.5638 C.ar    1  UNL1        0.0127
     17 C           2.0722   -1.1442   20.1418 C.ar    1  UNL1        0.0156
     18 C          -2.1188    4.0794   25.6191 C.ar    1  UNL1       -0.0181
     19 C          -3.5480    3.6825   25.8426 C.ar    1  UNL1        0.0164
     20 C          -4.3783    4.4099   26.8582 C.ar    1  UNL1        0.0986
     21 N          -3.7795    5.5342   27.6503 N.ar    1  UNL1       -0.2423
     22 C          -2.3504    5.9311   27.4268 C.ar    1  UNL1        0.0986
     23 C          -1.5200    5.2038   26.4112 C.ar    1  UNL1        0.0164
     24 C          -0.6015    2.9145   25.8633 C.3     1  UNL1        0.0116
     25 C          -0.3619    1.4561   26.1192 C.3     1  UNL1        0.0421
     26 O           1.1097    0.5726   28.0695 O.co2   1  UNL1       -0.5492
     27 C          -0.2360    0.9523   27.5264 C.2     1  UNL1        0.0503
     28 O          -1.4558    0.8283   28.3905 O.co2   1  UNL1       -0.5492
@<TRIPOS>UNITY_ATOM_ATTR
26 1
charge -1
@<TRIPOS>BOND
     1    26    27   ar
     2    27    28   ar
     3    27    25    1
     4    25    24    1
     5    24     1    1
     6     1    18    1
     7    18    19   ar
     8    19    20   ar
     9    20    21   ar
    10    21    22   ar
    11    22    23   ar
    12     1     2    1
    13     2     3    1
    14     3     4    1
    15     4     5    1
    16     5     6   am
    17     6     7    2
    18     6     8   am
    19     8    11    1
    20    11    12   ar
    21    12    13   ar
    22    13    14   ar
    23    14    15    1
    24    14    16   ar
    25    16    17   ar
    26     5     9    1
    27     9     1    1
    28    23    18   ar
    29    17    11   ar
    30     8    10    1
