@<TRIPOS>MOLECULE
*****
 32 36 0 0 0
SMALL
GASTEIGER

@<TRIPOS>ATOM
      1 C          -1.9170    3.3191   20.9393 C.ar    1  UNL1        0.0990
      2 C          -3.3083    3.1535   20.4038 C.ar    1  UNL1        0.0207
      3 C          -4.4834    3.2288   21.3330 C.ar    1  UNL1        0.0032
      4 C          -4.2672    3.4696   22.7977 C.ar    1  UNL1        0.0207
      5 C          -5.4424    3.5449   23.7269 C.ar    1  UNL1        0.0017
      6 C          -5.2261    3.7857   25.1915 C.ar    1  UNL1        0.0032
      7 C          -3.8347    3.9512   25.7270 C.ar    1  UNL1        0.0385
      8 C          -2.6596    3.8760   24.7978 C.ar    1  UNL1        0.1558
      9 C          -2.8759    3.6352   23.3332 C.ar    1  UNL1        0.1151
     10 N          -1.7008    3.5599   22.4040 N.ar    1  UNL1       -0.2408
     11 C           2.2137    0.0393   18.9852 C.ar    1  UNL1        0.1432
     12 C           1.1706   -0.3277   19.9987 C.ar    1  UNL1        0.0560
     13 C           0.1358    0.6782   20.4081 C.ar    1  UNL1        0.0846
     14 N           0.1442    2.0511   19.8039 N.ar    1  UNL1       -0.2872
     15 C          -0.7418    3.2438   20.0101 C.ar    1  UNL1        0.1021
     16 C          -0.2462    4.3480   19.1240 C.ar    1  UNL1        0.1195
     17 N           0.9460    3.8378   18.3702 N.ar    1  UNL1       -0.2247
     18 C           1.1873    2.4181   18.7904 C.ar    1  UNL1        0.1509
     19 C           2.2220    1.4123   18.3811 C.ar    1  UNL1        0.0743
     20 O           3.2484   -0.9664   18.5759 O.3     1  UNL1       -0.4726
     21 C           3.9700   -0.8112   17.2700 C.3     1  UNL1        0.2373
     22 C           5.3937   -0.3394   17.2513 C.3     1  UNL1        0.1894
     23 C           6.8042   -2.1939   18.4006 C.3     1  UNL1        0.1743
     24 O           6.5136   -1.3363   17.2049 O.3     1  UNL1       -0.3471
     25 O          -1.2683    4.0415   25.3333 O.3     1  UNL1       -0.4776
     26 C          -0.5429    2.8638   25.9136 C.3     1  UNL1        0.1687
     27 C          -1.1055    2.1500   27.1069 C.3     1  UNL1        0.0606
     28 C          -0.3801    0.9723   27.6872 C.3     1  UNL1        0.0723
     29 N           0.9078    0.5083   27.0742 N.3     1  UNL1       -0.2973
     30 C           1.4705    1.2221   25.8808 C.3     1  UNL1        0.0723
     31 C           0.7451    2.3998   25.3005 C.3     1  UNL1        0.0606
     32 H           0.7690   -0.4636   26.7975 H       1  UNL1        0.1233
@<TRIPOS>BOND
     1    23    24    1
     2    24    22    1
     3    22    21    1
     4    21    20    1
     5    20    11    1
     6    11    12   ar
     7    12    13   ar
     8    13    14   ar
     9    14    15   ar
    10    15     1    1
    11     1     2   ar
    12     2     3   ar
    13     3     4   ar
    14     4     5   ar
    15     5     6   ar
    16     6     7   ar
    17     7     8   ar
    18     8    25    1
    19    25    26    1
    20    26    27    1
    21    27    28    1
    22    28    29    1
    23    29    30    1
    24    30    31    1
    25     8     9   ar
    26     9    10   ar
    27    15    16   ar
    28    16    17   ar
    29    17    18   ar
    30    18    19   ar
    31    19    11   ar
    32    18    14   ar
    33    10     1   ar
    34     9     4   ar
    35    31    26    1
    36    29    32    1
@<TRIPOS>MOLECULE
*****
 32 36 0 0 0
SMALL
GASTEIGER

@<TRIPOS>ATOM
      1 C          -0.7031    2.9909   20.3284 C.ar    1  UNL1        0.0990
      2 C          -0.4323    3.6983   19.0338 C.ar    1  UNL1        0.0207
      3 C          -1.5709    4.2504   18.2284 C.ar    1  UNL1        0.0032
      4 C          -2.9803    4.0951   18.7176 C.ar    1  UNL1        0.0207
      5 C          -4.1190    4.6473   17.9121 C.ar    1  UNL1        0.0017
      6 C          -5.5284    4.4920   18.4013 C.ar    1  UNL1        0.0032
      7 C          -5.7992    3.7845   19.6961 C.ar    1  UNL1        0.0385
      8 C          -4.6606    3.2324   20.5015 C.ar    1  UNL1        0.1558
      9 C          -3.2512    3.3877   20.0122 C.ar    1  UNL1        0.1151
     10 N          -2.1126    2.8356   20.8177 N.ar    1  UNL1       -0.2408
     11 C           2.9300   -1.2701   20.8590 C.ar    1  UNL1        0.1432
     12 C           1.8662   -1.1139   19.8131 C.ar    1  UNL1        0.0560
     13 C           0.9787    0.0954   19.8207 C.ar    1  UNL1        0.0846
     14 N           1.1548    1.1483   20.8744 N.ar    1  UNL1       -0.2872
     15 C           0.4355    2.4388   21.1339 C.ar    1  UNL1        0.1021
     16 C           1.0546    3.0801   22.3403 C.ar    1  UNL1        0.1195
     17 N           2.1566    2.1860   22.8264 N.ar    1  UNL1       -0.2247
     18 C           2.2186    0.9921   21.9204 C.ar    1  UNL1        0.1509
     19 C           3.1061   -0.2170   21.9127 C.ar    1  UNL1        0.0743
     20 O           3.8175   -2.4792   20.8514 O.3     1  UNL1       -0.4726
     21 C           3.9372   -3.3139   19.6107 C.3     1  UNL1        0.2373
     22 C           5.2226   -3.3286   18.8378 C.3     1  UNL1        0.1894
     23 C           4.9117   -1.0480   17.6328 C.3     1  UNL1        0.1743
     24 O           5.3709   -2.4757   17.6128 O.3     1  UNL1       -0.3471
     25 O          -4.9315    2.5250   21.7961 O.3     1  UNL1       -0.4776
     26 C          -5.2560    3.3153   23.0290 C.3     1  UNL1        0.1687
     27 C          -6.5489    4.0709   23.1168 C.3     1  UNL1        0.0606
     28 C          -6.8734    4.8612   24.3497 C.3     1  UNL1        0.0723
     29 N          -5.9052    4.8960   25.4948 N.3     1  UNL1       -0.2973
     30 C          -4.6123    4.1404   25.4071 C.3     1  UNL1        0.0723
     31 C          -4.2877    3.3501   24.1742 C.3     1  UNL1        0.0606
     32 H          -6.4011    4.5372   26.3108 H       1  UNL1        0.1233
@<TRIPOS>BOND
     1    23    24    1
     2    24    22    1
     3    22    21    1
     4    21    20    1
     5    20    11    1
     6    11    12   ar
     7    12    13   ar
     8    13    14   ar
     9    14    15   ar
    10    15     1    1
    11     1     2   ar
    12     2     3   ar
    13     3     4   ar
    14     4     5   ar
    15     5     6   ar
    16     6     7   ar
    17     7     8   ar
    18     8    25    1
    19    25    26    1
    20    26    27    1
    21    27    28    1
    22    28    29    1
    23    29    30    1
    24    30    31    1
    25     8     9   ar
    26     9    10   ar
    27    15    16   ar
    28    16    17   ar
    29    17    18   ar
    30    18    19   ar
    31    19    11   ar
    32    18    14   ar
    33    10     1   ar
    34     9     4   ar
    35    31    26    1
    36    29    32    1
@<TRIPOS>MOLECULE
*****
 32 36 0 0 0
SMALL
GASTEIGER

@<TRIPOS>ATOM
      1 C          -2.0382    3.3273   20.7537 C.ar    1  UNL1        0.0990
      2 C          -3.4075    3.1858   20.1578 C.ar    1  UNL1        0.0207
      3 C          -4.6217    3.3233   21.0276 C.ar    1  UNL1        0.0032
      4 C          -4.4668    3.6022   22.4933 C.ar    1  UNL1        0.0207
      5 C          -5.6812    3.7396   23.3631 C.ar    1  UNL1        0.0017
      6 C          -5.5262    4.0185   24.8287 C.ar    1  UNL1        0.0032
      7 C          -4.1569    4.1599   25.4246 C.ar    1  UNL1        0.0385
      8 C          -2.9426    4.0225   24.5548 C.ar    1  UNL1        0.1558
      9 C          -3.0975    3.7436   23.0892 C.ar    1  UNL1        0.1151
     10 N          -1.8833    3.6062   22.2194 N.ar    1  UNL1       -0.2408
     11 C           2.1613   -0.0780   19.2027 C.ar    1  UNL1        0.1432
     12 C           1.0735   -0.3765   20.1915 C.ar    1  UNL1        0.0560
     13 C           0.0257    0.6552   20.4880 C.ar    1  UNL1        0.0846
     14 N           0.0657    1.9853   19.7957 N.ar    1  UNL1       -0.2872
     15 C          -0.8238    3.1898   19.8839 C.ar    1  UNL1        0.1021
     16 C          -0.2858    4.2328   18.9497 C.ar    1  UNL1        0.1195
     17 N           0.9362    3.6728   18.2841 N.ar    1  UNL1       -0.2247
     18 C           1.1535    2.2837   18.8069 C.ar    1  UNL1        0.1509
     19 C           2.2012    1.2522   18.5105 C.ar    1  UNL1        0.0743
     20 O           3.2090   -1.1096   18.9063 O.3     1  UNL1       -0.4726
     21 C           3.3363   -2.3221   19.7802 C.3     1  UNL1        0.2373
     22 C           3.6054   -3.6641   19.1665 C.3     1  UNL1        0.1894
     23 C           6.0599   -3.6783   20.0181 C.3     1  UNL1        0.1743
     24 O           5.0124   -4.1742   19.0659 O.3     1  UNL1       -0.3471
     25 O          -1.5734    4.1639   25.1507 O.3     1  UNL1       -0.4776
     26 C          -0.8679    2.9609   25.7032 C.3     1  UNL1        0.1687
     27 C          -1.2594    2.4113   27.0428 C.3     1  UNL1        0.0606
     28 C          -0.5540    1.2083   27.5952 C.3     1  UNL1        0.0723
     29 N           0.5430    0.5550   26.8080 N.3     1  UNL1       -0.2973
     30 C           0.9346    1.1046   25.4683 C.3     1  UNL1        0.0723
     31 C           0.2292    2.3076   24.9159 C.3     1  UNL1        0.0606
     32 H           0.2610   -0.4137   26.6579 H       1  UNL1        0.1233
@<TRIPOS>BOND
     1    23    24    1
     2    24    22    1
     3    22    21    1
     4    21    20    1
     5    20    11    1
     6    11    12   ar
     7    12    13   ar
     8    13    14   ar
     9    14    15   ar
    10    15     1    1
    11     1     2   ar
    12     2     3   ar
    13     3     4   ar
    14     4     5   ar
    15     5     6   ar
    16     6     7   ar
    17     7     8   ar
    18     8    25    1
    19    25    26    1
    20    26    27    1
    21    27    28    1
    22    28    29    1
    23    29    30    1
    24    30    31    1
    25     8     9   ar
    26     9    10   ar
    27    15    16   ar
    28    16    17   ar
    29    17    18   ar
    30    18    19   ar
    31    19    11   ar
    32    18    14   ar
    33    10     1   ar
    34     9     4   ar
    35    31    26    1
    36    29    32    1
@<TRIPOS>MOLECULE
*****
 32 36 0 0 0
SMALL
GASTEIGER

@<TRIPOS>ATOM
      1 C           8.2693   -4.9488   22.2813 C.ar    1  UNL1        0.0990
      2 C           9.5349   -4.6690   21.5265 C.ar    1  UNL1        0.0207
      3 C           9.5183   -3.7313   20.3559 C.ar    1  UNL1        0.0032
      4 C           8.2360   -3.0734   19.9401 C.ar    1  UNL1        0.0207
      5 C           8.2193   -2.1357   18.7694 C.ar    1  UNL1        0.0017
      6 C           6.9370   -1.4778   18.3536 C.ar    1  UNL1        0.0032
      7 C           5.6713   -1.7577   19.1085 C.ar    1  UNL1        0.0385
      8 C           5.6880   -2.6954   20.2791 C.ar    1  UNL1        0.1558
      9 C           6.9703   -3.3533   20.6949 C.ar    1  UNL1        0.1151
     10 N           6.9870   -4.2910   21.8655 N.ar    1  UNL1       -0.2408
     11 C           6.8705   -5.5967   27.6907 C.ar    1  UNL1        0.1432
     12 C           6.6461   -4.3833   26.8378 C.ar    1  UNL1        0.0560
     13 C           7.0856   -4.3829   25.4037 C.ar    1  UNL1        0.0846
     14 N           7.7494   -5.5958   24.8223 N.ar    1  UNL1       -0.2872
     15 C           8.2859   -5.8866   23.4520 C.ar    1  UNL1        0.1021
     16 C           8.8419   -7.2797   23.4579 C.ar    1  UNL1        0.1195
     17 N           8.6490   -7.8499   24.8318 N.ar    1  UNL1       -0.2247
     18 C           7.9738   -6.8092   25.6751 C.ar    1  UNL1        0.1509
     19 C           7.5344   -6.8096   27.1092 C.ar    1  UNL1        0.0743
     20 O           6.4311   -5.5971   29.1248 O.3     1  UNL1       -0.4726
     21 C           7.1991   -4.8098   30.1448 C.3     1  UNL1        0.2373
     22 C           6.5884   -3.5878   30.7643 C.3     1  UNL1        0.1894
     23 C           5.2876   -2.5949   32.7822 C.3     1  UNL1        0.1743
     24 O           6.3001   -3.5573   32.2360 O.3     1  UNL1       -0.3471
     25 O           4.4224   -2.9752   21.0340 O.3     1  UNL1       -0.4776
     26 C           4.0676   -2.1502   22.2354 C.3     1  UNL1        0.1687
     27 C           4.6559   -2.4835   23.5744 C.3     1  UNL1        0.0606
     28 C           4.3012   -1.6585   24.7758 C.3     1  UNL1        0.0723
     29 N           3.3582   -0.5002   24.6384 N.3     1  UNL1       -0.2973
     30 C           2.7699   -0.1667   23.2994 C.3     1  UNL1        0.0723
     31 C           3.1246   -0.9918   22.0979 C.3     1  UNL1        0.0606
     32 H           3.8623    0.3288   24.9532 H       1  UNL1        0.1233
@<TRIPOS>BOND
     1    23    24    1
     2    24    22    1
     3    22    21    1
     4    21    20    1
     5    20    11    1
     6    11    12   ar
     7    12    13   ar
     8    13    14   ar
     9    14    15   ar
    10    15     1    1
    11     1     2   ar
    12     2     3   ar
    13     3     4   ar
    14     4     5   ar
    15     5     6   ar
    16     6     7   ar
    17     7     8   ar
    18     8    25    1
    19    25    26    1
    20    26    27    1
    21    27    28    1
    22    28    29    1
    23    29    30    1
    24    30    31    1
    25     8     9   ar
    26     9    10   ar
    27    15    16   ar
    28    16    17   ar
    29    17    18   ar
    30    18    19   ar
    31    19    11   ar
    32    18    14   ar
    33    10     1   ar
    34     9     4   ar
    35    31    26    1
    36    29    32    1
@<TRIPOS>MOLECULE
*****
 32 36 0 0 0
SMALL
GASTEIGER

@<TRIPOS>ATOM
      1 C           7.1717   -3.8241   23.7225 C.ar    1  UNL1        0.0990
      2 C           8.1422   -4.5275   22.8207 C.ar    1  UNL1        0.0207
      3 C           8.7518   -5.8305   23.2457 C.ar    1  UNL1        0.0032
      4 C           8.3909   -6.4300   24.5725 C.ar    1  UNL1        0.0207
      5 C           9.0005   -7.7330   24.9975 C.ar    1  UNL1        0.0017
      6 C           8.6396   -8.3324   26.3243 C.ar    1  UNL1        0.0032
      7 C           7.6691   -7.6289   27.2261 C.ar    1  UNL1        0.0385
      8 C           7.0595   -6.3259   26.8011 C.ar    1  UNL1        0.1558
      9 C           7.4204   -5.7265   25.4743 C.ar    1  UNL1        0.1151
     10 N           6.8109   -4.4235   25.0493 N.ar    1  UNL1       -0.2408
     11 C           3.5650   -1.3587   20.1798 C.ar    1  UNL1        0.1432
     12 C           3.8955   -2.8195   20.2622 C.ar    1  UNL1        0.0560
     13 C           4.8884   -3.3079   21.2749 C.ar    1  UNL1        0.0846
     14 N           5.5510   -2.3354   22.2051 N.ar    1  UNL1       -0.2872
     15 C           6.5621   -2.5210   23.2975 C.ar    1  UNL1        0.1021
     16 C           6.8566   -1.1749   23.8901 C.ar    1  UNL1        0.1195
     17 N           6.0275   -0.1574   23.1641 N.ar    1  UNL1       -0.2247
     18 C           5.2205   -0.8746   22.1227 C.ar    1  UNL1        0.1509
     19 C           4.2276   -0.3862   21.1101 C.ar    1  UNL1        0.0743
     20 O           2.5721   -0.8703   19.1672 O.3     1  UNL1       -0.4726
     21 C           3.0364   -0.0679   17.9879 C.3     1  UNL1        0.2373
     22 C           3.8020   -0.7330   16.8827 C.3     1  UNL1        0.1894
     23 C           6.2789   -0.6499   17.6622 C.3     1  UNL1        0.1743
     24 O           5.0940   -1.4340   17.1816 O.3     1  UNL1       -0.3471
     25 O           6.0891   -5.6224   27.7029 O.3     1  UNL1       -0.4776
     26 C           6.5875   -4.8774   28.9055 C.3     1  UNL1        0.1687
     27 C           6.8727   -5.6153   30.1799 C.3     1  UNL1        0.0606
     28 C           7.3712   -4.8702   31.3826 C.3     1  UNL1        0.0723
     29 N           7.5843   -3.3872   31.3109 N.3     1  UNL1       -0.2973
     30 C           7.2991   -2.6492   30.0365 C.3     1  UNL1        0.0723
     31 C           6.8007   -3.3943   28.8338 C.3     1  UNL1        0.0606
     32 H           8.5652   -3.2196   31.5350 H       1  UNL1        0.1233
@<TRIPOS>BOND
     1    23    24    1
     2    24    22    1
     3    22    21    1
     4    21    20    1
     5    20    11    1
     6    11    12   ar
     7    12    13   ar
     8    13    14   ar
     9    14    15   ar
    10    15     1    1
    11     1     2   ar
    12     2     3   ar
    13     3     4   ar
    14     4     5   ar
    15     5     6   ar
    16     6     7   ar
    17     7     8   ar
    18     8    25    1
    19    25    26    1
    20    26    27    1
    21    27    28    1
    22    28    29    1
    23    29    30    1
    24    30    31    1
    25     8     9   ar
    26     9    10   ar
    27    15    16   ar
    28    16    17   ar
    29    17    18   ar
    30    18    19   ar
    31    19    11   ar
    32    18    14   ar
    33    10     1   ar
    34     9     4   ar
    35    31    26    1
    36    29    32    1
@<TRIPOS>MOLECULE
*****
 32 36 0 0 0
SMALL
GASTEIGER

@<TRIPOS>ATOM
      1 C           7.3258   -4.9891   24.9923 C.ar    1  UNL1        0.0990
      2 C           7.5196   -6.3907   25.4902 C.ar    1  UNL1        0.0207
      3 C           7.4537   -6.6801   26.9605 C.ar    1  UNL1        0.0032
      4 C           7.1941   -5.5679   27.9329 C.ar    1  UNL1        0.0207
      5 C           7.1282   -5.8574   29.4033 C.ar    1  UNL1        0.0017
      6 C           6.8686   -4.7452   30.3758 C.ar    1  UNL1        0.0032
      7 C           6.6748   -3.3436   29.8778 C.ar    1  UNL1        0.0385
      8 C           6.7407   -3.0542   28.4075 C.ar    1  UNL1        0.1558
      9 C           7.0003   -4.1664   27.4351 C.ar    1  UNL1        0.1151
     10 N           7.0662   -3.8769   25.9648 N.ar    1  UNL1       -0.2408
     11 C           4.6338   -2.6938   20.6195 C.ar    1  UNL1        0.1432
     12 C           4.1547   -2.7669   22.0390 C.ar    1  UNL1        0.0560
     13 C           5.0077   -3.4200   23.0858 C.ar    1  UNL1        0.0846
     14 N           6.3399   -4.0000   22.7131 N.ar    1  UNL1       -0.2872
     15 C           7.3917   -4.6997   23.5219 C.ar    1  UNL1        0.1021
     16 C           8.5209   -5.0590   22.6023 C.ar    1  UNL1        0.1195
     17 N           8.1670   -4.5815   21.2251 N.ar    1  UNL1       -0.2247
     18 C           6.8190   -3.9269   21.2936 C.ar    1  UNL1        0.1509
     19 C           5.9660   -3.2739   20.2468 C.ar    1  UNL1        0.0743
     20 O           3.7809   -2.0408   19.5727 O.3     1  UNL1       -0.4726
     21 C           3.0285   -0.7837   19.8953 C.3     1  UNL1        0.2373
     22 C           1.5640   -0.8470   20.2135 C.3     1  UNL1        0.1894
     23 C           1.0582    1.0116   18.4701 C.3     1  UNL1        0.1743
     24 O           0.6259    0.1698   19.6338 O.3     1  UNL1       -0.3471
     25 O           6.5469   -1.6526   27.9096 O.3     1  UNL1       -0.4776
     26 C           5.1870   -1.1923   27.4750 C.3     1  UNL1        0.1687
     27 C           4.8863   -1.0139   26.0164 C.3     1  UNL1        0.0606
     28 C           3.5264   -0.5536   25.5817 C.3     1  UNL1        0.0723
     29 N           2.4673   -0.2717   26.6058 N.3     1  UNL1       -0.2973
     30 C           2.7680   -0.4502   28.0645 C.3     1  UNL1        0.0723
     31 C           4.1278   -0.9104   28.4991 C.3     1  UNL1        0.0606
     32 H           1.6796   -0.8830   26.3906 H       1  UNL1        0.1233
@<TRIPOS>BOND
     1    23    24    1
     2    24    22    1
     3    22    21    1
     4    21    20    1
     5    20    11    1
     6    11    12   ar
     7    12    13   ar
     8    13    14   ar
     9    14    15   ar
    10    15     1    1
    11     1     2   ar
    12     2     3   ar
    13     3     4   ar
    14     4     5   ar
    15     5     6   ar
    16     6     7   ar
    17     7     8   ar
    18     8    25    1
    19    25    26    1
    20    26    27    1
    21    27    28    1
    22    28    29    1
    23    29    30    1
    24    30    31    1
    25     8     9   ar
    26     9    10   ar
    27    15    16   ar
    28    16    17   ar
    29    17    18   ar
    30    18    19   ar
    31    19    11   ar
    32    18    14   ar
    33    10     1   ar
    34     9     4   ar
    35    31    26    1
    36    29    32    1
@<TRIPOS>MOLECULE
*****
 32 36 0 0 0
SMALL
GASTEIGER

@<TRIPOS>ATOM
      1 C          -2.2900    3.4078   25.5013 C.ar    1  UNL1        0.0990
      2 C          -2.8959    4.2394   26.5927 C.ar    1  UNL1        0.0207
      3 C          -4.2833    4.7876   26.4355 C.ar    1  UNL1        0.0032
      4 C          -5.0648    4.5041   25.1870 C.ar    1  UNL1        0.0207
      5 C          -6.4522    5.0522   25.0299 C.ar    1  UNL1        0.0017
      6 C          -7.2337    4.7687   23.7813 C.ar    1  UNL1        0.0032
      7 C          -6.6277    3.9370   22.6898 C.ar    1  UNL1        0.0385
      8 C          -5.2403    3.3889   22.8470 C.ar    1  UNL1        0.1558
      9 C          -4.4589    3.6724   24.0956 C.ar    1  UNL1        0.1151
     10 N          -3.0715    3.1243   24.2527 N.ar    1  UNL1       -0.2408
     11 C           1.0632    0.1830   28.6625 C.ar    1  UNL1        0.1432
     12 C          -0.3874    0.4828   28.8985 C.ar    1  UNL1        0.0560
     13 C          -1.1344    1.3699   27.9471 C.ar    1  UNL1        0.0846
     14 N          -0.4306    1.9573   26.7598 N.ar    1  UNL1       -0.2872
     15 C          -0.9026    2.8596   25.6584 C.ar    1  UNL1        0.1021
     16 C           0.2564    3.1175   24.7417 C.ar    1  UNL1        0.1195
     17 N           1.4446    2.3746   25.2766 N.ar    1  UNL1       -0.2247
     18 C           1.0201    1.6575   26.5239 C.ar    1  UNL1        0.1509
     19 C           1.7670    0.7704   27.4751 C.ar    1  UNL1        0.0743
     20 O           1.8101   -0.7041   29.6138 O.3     1  UNL1       -0.4726
     21 C           2.9767   -0.1624   30.3857 C.3     1  UNL1        0.2373
     22 C           3.4583   -0.8744   31.6150 C.3     1  UNL1        0.1894
     23 C           5.6279   -2.3005   31.7085 C.3     1  UNL1        0.1743
     24 O           4.9288   -0.9859   31.8894 O.3     1  UNL1       -0.3471
     25 O          -4.6344    2.5573   21.7556 O.3     1  UNL1       -0.4776
     26 C          -4.0695    3.2194   20.5339 C.3     1  UNL1        0.1687
     27 C          -4.9690    3.5651   19.3844 C.3     1  UNL1        0.0606
     28 C          -4.4041    4.2272   18.1628 C.3     1  UNL1        0.0723
     29 N          -2.9396    4.5436   18.0906 N.3     1  UNL1       -0.2973
     30 C          -2.0401    4.1980   19.2401 C.3     1  UNL1        0.0723
     31 C          -2.6050    3.5359   20.4618 C.3     1  UNL1        0.0606
     32 H          -2.8627    5.5508   17.9490 H       1  UNL1        0.1233
@<TRIPOS>BOND
     1    23    24    1
     2    24    22    1
     3    22    21    1
     4    21    20    1
     5    20    11    1
     6    11    12   ar
     7    12    13   ar
     8    13    14   ar
     9    14    15   ar
    10    15     1    1
    11     1     2   ar
    12     2     3   ar
    13     3     4   ar
    14     4     5   ar
    15     5     6   ar
    16     6     7   ar
    17     7     8   ar
    18     8    25    1
    19    25    26    1
    20    26    27    1
    21    27    28    1
    22    28    29    1
    23    29    30    1
    24    30    31    1
    25     8     9   ar
    26     9    10   ar
    27    15    16   ar
    28    16    17   ar
    29    17    18   ar
    30    18    19   ar
    31    19    11   ar
    32    18    14   ar
    33    10     1   ar
    34     9     4   ar
    35    31    26    1
    36    29    32    1
@<TRIPOS>MOLECULE
*****
 32 36 0 0 0
SMALL
GASTEIGER

@<TRIPOS>ATOM
      1 C           6.5088   -2.8694   31.3586 C.ar    1  UNL1        0.0990
      2 C           7.5643   -2.3748   32.3026 C.ar    1  UNL1        0.0207
      3 C           7.2730   -1.2206   33.2152 C.ar    1  UNL1        0.0032
      4 C           5.9262   -0.5610   33.1837 C.ar    1  UNL1        0.0207
      5 C           5.6349    0.5933   34.0964 C.ar    1  UNL1        0.0017
      6 C           4.2881    1.2530   34.0650 C.ar    1  UNL1        0.0032
      7 C           3.2326    0.7583   33.1209 C.ar    1  UNL1        0.0385
      8 C           3.5239   -0.3959   32.2083 C.ar    1  UNL1        0.1558
      9 C           4.8707   -1.0555   32.2397 C.ar    1  UNL1        0.1151
     10 N           5.1620   -2.2097   31.3271 N.ar    1  UNL1       -0.2408
     11 C           6.8002   -4.5504   25.9988 C.ar    1  UNL1        0.1432
     12 C           6.4363   -3.1840   26.4993 C.ar    1  UNL1        0.0560
     13 C           6.4080   -2.9081   27.9735 C.ar    1  UNL1        0.0846
     14 N           6.7437   -3.9986   28.9471 N.ar    1  UNL1       -0.2872
     15 C           6.8000   -4.0237   30.4459 C.ar    1  UNL1        0.1021
     16 C           7.1988   -5.4056   30.8717 C.ar    1  UNL1        0.1195
     17 N           7.3889   -6.2346   29.6362 N.ar    1  UNL1       -0.2247
     18 C           7.1076   -5.3650   28.4467 C.ar    1  UNL1        0.1509
     19 C           7.1359   -5.6409   26.9726 C.ar    1  UNL1        0.0743
     20 O           6.8284   -4.8263   24.5248 O.3     1  UNL1       -0.4726
     21 C           6.4984   -3.7342   23.5508 C.3     1  UNL1        0.2373
     22 C           5.1725   -3.7302   22.8494 C.3     1  UNL1        0.1894
     23 C           6.2586   -3.8129   20.4908 C.3     1  UNL1        0.1743
     24 O           5.0927   -4.0853   21.3943 O.3     1  UNL1       -0.3471
     25 O           2.4684   -0.8904   31.2642 O.3     1  UNL1       -0.4776
     26 C           2.2573   -0.2025   29.9481 C.3     1  UNL1        0.1687
     27 C           2.9974   -0.6702   28.7301 C.3     1  UNL1        0.0606
     28 C           2.7863    0.0178   27.4140 C.3     1  UNL1        0.0723
     29 N           1.8352    1.1735   27.3159 N.3     1  UNL1       -0.2973
     30 C           1.0950    1.6412   28.5339 C.3     1  UNL1        0.0723
     31 C           1.3061    0.9532   29.8500 C.3     1  UNL1        0.0606
     32 H           1.1311    0.9173   26.6237 H       1  UNL1        0.1233
@<TRIPOS>BOND
     1    23    24    1
     2    24    22    1
     3    22    21    1
     4    21    20    1
     5    20    11    1
     6    11    12   ar
     7    12    13   ar
     8    13    14   ar
     9    14    15   ar
    10    15     1    1
    11     1     2   ar
    12     2     3   ar
    13     3     4   ar
    14     4     5   ar
    15     5     6   ar
    16     6     7   ar
    17     7     8   ar
    18     8    25    1
    19    25    26    1
    20    26    27    1
    21    27    28    1
    22    28    29    1
    23    29    30    1
    24    30    31    1
    25     8     9   ar
    26     9    10   ar
    27    15    16   ar
    28    16    17   ar
    29    17    18   ar
    30    18    19   ar
    31    19    11   ar
    32    18    14   ar
    33    10     1   ar
    34     9     4   ar
    35    31    26    1
    36    29    32    1
@<TRIPOS>MOLECULE
*****
 32 36 0 0 0
SMALL
GASTEIGER

@<TRIPOS>ATOM
      1 C           8.2673   -4.8127   22.1779 C.ar    1  UNL1        0.0990
      2 C           8.8455   -6.1801   21.9642 C.ar    1  UNL1        0.0207
      3 C           8.7763   -7.2031   23.0590 C.ar    1  UNL1        0.0032
      4 C           8.1288   -6.8587   24.3675 C.ar    1  UNL1        0.0207
      5 C           8.0596   -7.8818   25.4623 C.ar    1  UNL1        0.0017
      6 C           7.4121   -7.5374   26.7708 C.ar    1  UNL1        0.0032
      7 C           6.8339   -6.1699   26.9845 C.ar    1  UNL1        0.0385
      8 C           6.9032   -5.1468   25.8897 C.ar    1  UNL1        0.1558
      9 C           7.5506   -5.4913   24.5812 C.ar    1  UNL1        0.1151
     10 N           7.6199   -4.4682   23.4864 N.ar    1  UNL1       -0.2408
     11 C           5.4056   -2.2645   18.0603 C.ar    1  UNL1        0.1432
     12 C           4.8974   -3.3234   18.9933 C.ar    1  UNL1        0.0560
     13 C           5.8040   -3.8977   20.0412 C.ar    1  UNL1        0.0846
     14 N           7.2189   -3.4131   20.1562 N.ar    1  UNL1       -0.2872
     15 C           8.3366   -3.7895   21.0831 C.ar    1  UNL1        0.1021
     16 C           9.5356   -2.9633   20.7230 C.ar    1  UNL1        0.1195
     17 N           9.1590   -2.0762   19.5736 N.ar    1  UNL1       -0.2247
     18 C           7.7271   -2.3542   19.2233 C.ar    1  UNL1        0.1509
     19 C           6.8205   -1.7799   18.1754 C.ar    1  UNL1        0.0743
     20 O           4.4990   -1.6903   17.0124 O.3     1  UNL1       -0.4726
     21 C           3.5713   -0.5635   17.3589 C.3     1  UNL1        0.2373
     22 C           3.7416    0.1776   18.6519 C.3     1  UNL1        0.1894
     23 C           5.6078    1.7772   17.8103 C.3     1  UNL1        0.1743
     24 O           4.3996    1.5255   18.6627 O.3     1  UNL1       -0.3471
     25 O           6.3250   -3.7794   26.1034 O.3     1  UNL1       -0.4776
     26 C           6.6950   -2.9911   27.3248 C.3     1  UNL1        0.1687
     27 C           8.1367   -2.8342   27.7078 C.3     1  UNL1        0.0606
     28 C           8.5067   -2.0459   28.9292 C.3     1  UNL1        0.0723
     29 N           7.4350   -1.4146   29.7675 N.3     1  UNL1       -0.2973
     30 C           5.9932   -1.5715   29.3845 C.3     1  UNL1        0.0723
     31 C           5.6232   -2.3598   28.1631 C.3     1  UNL1        0.0606
     32 H           7.6274   -0.4131   29.7861 H       1  UNL1        0.1233
@<TRIPOS>BOND
     1    23    24    1
     2    24    22    1
     3    22    21    1
     4    21    20    1
     5    20    11    1
     6    11    12   ar
     7    12    13   ar
     8    13    14   ar
     9    14    15   ar
    10    15     1    1
    11     1     2   ar
    12     2     3   ar
    13     3     4   ar
    14     4     5   ar
    15     5     6   ar
    16     6     7   ar
    17     7     8   ar
    18     8    25    1
    19    25    26    1
    20    26    27    1
    21    27    28    1
    22    28    29    1
    23    29    30    1
    24    30    31    1
    25     8     9   ar
    26     9    10   ar
    27    15    16   ar
    28    16    17   ar
    29    17    18   ar
    30    18    19   ar
    31    19    11   ar
    32    18    14   ar
    33    10     1   ar
    34     9     4   ar
    35    31    26    1
    36    29    32    1
