@<TRIPOS>MOLECULE
*****
 38 42 0 0 0
SMALL
GASTEIGER

@<TRIPOS>ATOM
      1 N           5.8579   -2.8251   20.6951 N.3     1  UNL1       -0.1487
      2 C           4.6076   -3.2731   19.9978 C.3     1  UNL1        0.0849
      3 C           5.3202   -4.4985   19.5073 C.3     1  UNL1        0.0206
      4 C           4.0700   -4.9465   18.8101 C.3     1  UNL1        0.0035
      5 C           3.3574   -3.7211   19.3006 C.3     1  UNL1        0.0206
      6 C           3.8950   -2.0478   20.4883 C.ar    1  UNL1       -0.0077
      7 C           3.3120   -1.0756   19.5060 C.ar    1  UNL1       -0.0030
      8 C           2.5993    0.1499   19.9966 C.ar    1  UNL1       -0.0003
      9 C           2.4698    0.4030   21.4693 C.ar    1  UNL1       -0.0000
     10 C           3.0528   -0.5692   22.4516 C.ar    1  UNL1       -0.0002
     11 C           3.7654   -1.7946   21.9611 C.ar    1  UNL1       -0.0030
     12 C           2.9232   -0.3160   23.9245 C.ar    1  UNL1        0.0017
     13 C           1.9559    0.7148   24.4260 C.ar    1  UNL1        0.0114
     14 C           1.8263    0.9680   25.8987 C.ar    1  UNL1        0.0585
     15 CL          0.8589    1.9989   26.4003 Cl      1  UNL1       -0.0822
     16 C           2.6642    0.1903   26.8700 C.ar    1  UNL1        0.0228
     17 C           3.6315   -0.8405   26.3685 C.ar    1  UNL1        0.0585
     18 CL          4.4693   -1.6181   27.3397 Cl      1  UNL1       -0.0822
     19 C           3.7610   -1.0936   24.8957 C.ar    1  UNL1        0.0114
     20 S           6.2818   -3.4861   21.9731 S.O2    1  UNL1        0.0638
     21 O           5.1353   -4.4464   21.8567 O.2     1  UNL1       -0.1528
     22 O           7.4282   -2.5259   22.0896 O.2     1  UNL1       -0.1528
     23 C           8.6650   -7.2091   28.5281 C.3     1  UNL1        0.0436
     24 C           8.7753   -7.3996   27.0443 C.3     1  UNL1        0.1336
     25 C           9.5350   -8.6029   27.5187 C.3     1  UNL1        0.0436
     26 C           9.1494   -8.0080   25.7253 C.3     1  UNL1        0.0448
     27 C           8.7255   -7.3470   24.4473 C.3     1  UNL1        0.0330
     28 C           7.9275   -6.0776   24.4883 C.ar    1  UNL1        0.0132
     29 C           7.5036   -5.4166   23.2102 C.ar    1  UNL1        0.0186
     30 C           6.7056   -4.1471   23.2512 C.ar    1  UNL1        0.1221
     31 C           6.3315   -3.5387   24.5702 C.ar    1  UNL1        0.0230
     32 C           6.7554   -4.1997   25.8483 C.ar    1  UNL1        0.0379
     33 C           7.5534   -5.4692   25.8073 C.ar    1  UNL1        0.1342
     34 O           7.9773   -6.1302   27.0853 O.3     1  UNL1       -0.4829
     35 C           6.6842   -1.7161   20.1144 C.3     1  UNL1        0.1374
     36 C           7.4602   -1.9417   18.8507 C.2     1  UNL1        0.0683
     37 O           8.9194   -2.2828   18.9174 O.co2   1  UNL1       -0.5477
     38 O           6.7771   -1.8262   17.5203 O.co2   1  UNL1       -0.5477
@<TRIPOS>UNITY_ATOM_ATTR
37 1
charge -1
@<TRIPOS>BOND
     1    23    24    1
     2    24    25    1
     3    24    26    1
     4    26    27    1
     5    27    28    1
     6    28    29   ar
     7    29    30   ar
     8    30    20    1
     9    20    21    2
    10    20    22    2
    11    20     1    1
    12     1    35    1
    13    35    36    1
    14    36    37   ar
    15    36    38   ar
    16     1     2    1
    17     2     6    1
    18     6     7   ar
    19     7     8   ar
    20     8     9   ar
    21     9    10   ar
    22    10    12    1
    23    12    13   ar
    24    13    14   ar
    25    14    15    1
    26    14    16   ar
    27    16    17   ar
    28    17    18    1
    29    17    19   ar
    30    10    11   ar
    31     2     3    1
    32     3     4    1
    33     4     5    1
    34    30    31   ar
    35    31    32   ar
    36    32    33   ar
    37    33    34    1
    38    34    24    1
    39    33    28   ar
    40     5     2    1
    41    11     6   ar
    42    19    12   ar
@<TRIPOS>MOLECULE
*****
 38 42 0 0 0
SMALL
GASTEIGER

@<TRIPOS>ATOM
      1 N           5.8123   -2.7530   20.7796 N.3     1  UNL1       -0.1487
      2 C           4.6139   -3.3124   20.0717 C.3     1  UNL1        0.0849
      3 C           5.4529   -4.4361   19.5394 C.3     1  UNL1        0.0206
      4 C           4.2546   -4.9954   18.8315 C.3     1  UNL1        0.0035
      5 C           3.4156   -3.8717   19.3639 C.3     1  UNL1        0.0206
      6 C           3.7750   -2.1887   20.6041 C.ar    1  UNL1       -0.0077
      7 C           2.9349   -1.3713   19.6681 C.ar    1  UNL1       -0.0030
      8 C           2.0959   -0.2476   20.2005 C.ar    1  UNL1       -0.0003
      9 C           2.0970    0.0587   21.6689 C.ar    1  UNL1       -0.0000
     10 C           2.9371   -0.7588   22.6049 C.ar    1  UNL1       -0.0002
     11 C           3.7761   -1.8824   22.0725 C.ar    1  UNL1       -0.0030
     12 C           2.9382   -0.4524   24.0733 C.ar    1  UNL1        0.0017
     13 C           2.1006    0.6724   24.6055 C.ar    1  UNL1        0.0114
     14 C           2.1018    0.9787   26.0738 C.ar    1  UNL1        0.0585
     15 CL          1.2642    2.1036   26.6060 Cl      1  UNL1       -0.0822
     16 C           2.9404    0.1601   27.0101 C.ar    1  UNL1        0.0228
     17 C           3.7780   -0.9648   26.4780 C.ar    1  UNL1        0.0585
     18 CL          4.6166   -1.7833   27.4142 Cl      1  UNL1       -0.0822
     19 C           3.7768   -1.2710   25.0096 C.ar    1  UNL1        0.0114
     20 S           6.4406   -3.5159   21.9080 S.O2    1  UNL1        0.0638
     21 O           7.7268   -2.7745   21.6931 O.2     1  UNL1       -0.1528
     22 O           5.1545   -4.2573   22.1229 O.2     1  UNL1       -0.1528
     23 C           9.5358   -7.3913   28.0650 C.3     1  UNL1        0.0436
     24 C           8.4390   -6.3979   27.8199 C.3     1  UNL1        0.1336
     25 C           8.3049   -6.5733   29.3036 C.3     1  UNL1        0.0436
     26 C           7.2956   -5.4653   28.0901 C.3     1  UNL1        0.0448
     27 C           6.6673   -4.7024   26.9617 C.3     1  UNL1        0.0330
     28 C           7.1823   -4.8721   25.5632 C.ar    1  UNL1        0.0132
     29 C           6.5540   -4.1092   24.4349 C.ar    1  UNL1        0.0186
     30 C           7.0690   -4.2788   23.0363 C.ar    1  UNL1        0.1221
     31 C           8.2124   -5.2114   22.7661 C.ar    1  UNL1        0.0230
     32 C           8.8408   -5.9743   23.8944 C.ar    1  UNL1        0.0379
     33 C           8.3257   -5.8046   25.2930 C.ar    1  UNL1        0.1342
     34 O           8.9540   -6.5675   26.4214 O.3     1  UNL1       -0.4829
     35 C           6.3822   -1.4308   20.3592 C.3     1  UNL1        0.1374
     36 C           6.6121   -1.1413   18.9055 C.2     1  UNL1        0.0683
     37 O           7.5603   -1.9910   18.1124 O.co2   1  UNL1       -0.5477
     38 O           5.8938   -0.0022   18.2448 O.co2   1  UNL1       -0.5477
@<TRIPOS>UNITY_ATOM_ATTR
37 1
charge -1
@<TRIPOS>BOND
     1    23    24    1
     2    24    25    1
     3    24    26    1
     4    26    27    1
     5    27    28    1
     6    28    29   ar
     7    29    30   ar
     8    30    20    1
     9    20    21    2
    10    20    22    2
    11    20     1    1
    12     1    35    1
    13    35    36    1
    14    36    37   ar
    15    36    38   ar
    16     1     2    1
    17     2     6    1
    18     6     7   ar
    19     7     8   ar
    20     8     9   ar
    21     9    10   ar
    22    10    12    1
    23    12    13   ar
    24    13    14   ar
    25    14    15    1
    26    14    16   ar
    27    16    17   ar
    28    17    18    1
    29    17    19   ar
    30    10    11   ar
    31     2     3    1
    32     3     4    1
    33     4     5    1
    34    30    31   ar
    35    31    32   ar
    36    32    33   ar
    37    33    34    1
    38    34    24    1
    39    33    28   ar
    40     5     2    1
    41    11     6   ar
    42    19    12   ar
@<TRIPOS>MOLECULE
*****
 38 42 0 0 0
SMALL
GASTEIGER

@<TRIPOS>ATOM
      1 N           5.8054   -2.7771   20.8397 N.3     1  UNL1       -0.1487
      2 C           4.6276   -3.3370   20.0984 C.3     1  UNL1        0.0849
      3 C           5.4858   -4.4508   19.5761 C.3     1  UNL1        0.0206
      4 C           4.3081   -5.0107   18.8349 C.3     1  UNL1        0.0035
      5 C           3.4499   -3.8968   19.3572 C.3     1  UNL1        0.0206
      6 C           3.7695   -2.2232   20.6208 C.ar    1  UNL1       -0.0077
      7 C           2.9057   -1.4372   19.6794 C.ar    1  UNL1       -0.0030
      8 C           2.0475   -0.3233   20.2018 C.ar    1  UNL1       -0.0003
      9 C           2.0531    0.0045   21.6655 C.ar    1  UNL1       -0.0000
     10 C           2.9168   -0.7815   22.6069 C.ar    1  UNL1       -0.0002
     11 C           3.7750   -1.8953   22.0845 C.ar    1  UNL1       -0.0030
     12 C           2.9224   -0.4536   24.0706 C.ar    1  UNL1        0.0017
     13 C           3.8158   -1.2131   25.0060 C.ar    1  UNL1        0.0114
     14 C           3.8213   -0.8852   26.4697 C.ar    1  UNL1        0.0585
     15 CL          4.7147   -1.6448   27.4051 Cl      1  UNL1       -0.0822
     16 C           2.9334    0.2022   26.9980 C.ar    1  UNL1        0.0228
     17 C           2.0400    0.9618   26.0627 C.ar    1  UNL1        0.0585
     18 CL          1.1521    2.0492   26.5910 Cl      1  UNL1       -0.0822
     19 C           2.0345    0.6339   24.5990 C.ar    1  UNL1        0.0114
     20 S           6.4010   -3.5389   21.9864 S.O2    1  UNL1        0.0638
     21 O           5.1135   -4.2895   22.1565 O.2     1  UNL1       -0.1528
     22 O           7.6885   -2.7883   21.8163 O.2     1  UNL1       -0.1528
     23 C           9.3257   -7.3992   28.2356 C.3     1  UNL1        0.0436
     24 C           8.2592   -6.3800   27.9635 C.3     1  UNL1        0.1336
     25 C           8.1053   -6.5280   29.4482 C.3     1  UNL1        0.0436
     26 C           7.1393   -5.4123   28.2069 C.3     1  UNL1        0.0448
     27 C           6.5437   -4.6505   27.0602 C.3     1  UNL1        0.0330
     28 C           7.0680   -4.8565   25.6700 C.ar    1  UNL1        0.0132
     29 C           6.4724   -4.0947   24.5233 C.ar    1  UNL1        0.0186
     30 C           6.9966   -4.3006   23.1331 C.ar    1  UNL1        0.1221
     31 C           8.1166   -5.2684   22.8896 C.ar    1  UNL1        0.0230
     32 C           8.7122   -6.0302   24.0363 C.ar    1  UNL1        0.0379
     33 C           8.1879   -5.8242   25.4266 C.ar    1  UNL1        0.1342
     34 O           8.7835   -6.5860   26.5733 O.3     1  UNL1       -0.4829
     35 C           6.3875   -1.4555   20.4342 C.3     1  UNL1        0.1374
     36 C           6.6512   -1.1646   18.9866 C.2     1  UNL1        0.0683
     37 O           5.9044   -0.0628   18.2949 O.co2   1  UNL1       -0.5477
     38 O           7.6616   -1.9755   18.2305 O.co2   1  UNL1       -0.5477
@<TRIPOS>UNITY_ATOM_ATTR
37 1
charge -1
@<TRIPOS>BOND
     1    23    24    1
     2    24    25    1
     3    24    26    1
     4    26    27    1
     5    27    28    1
     6    28    29   ar
     7    29    30   ar
     8    30    20    1
     9    20    21    2
    10    20    22    2
    11    20     1    1
    12     1    35    1
    13    35    36    1
    14    36    37   ar
    15    36    38   ar
    16     1     2    1
    17     2     6    1
    18     6     7   ar
    19     7     8   ar
    20     8     9   ar
    21     9    10   ar
    22    10    12    1
    23    12    13   ar
    24    13    14   ar
    25    14    15    1
    26    14    16   ar
    27    16    17   ar
    28    17    18    1
    29    17    19   ar
    30    10    11   ar
    31     2     3    1
    32     3     4    1
    33     4     5    1
    34    30    31   ar
    35    31    32   ar
    36    32    33   ar
    37    33    34    1
    38    34    24    1
    39    33    28   ar
    40     5     2    1
    41    11     6   ar
    42    19    12   ar
@<TRIPOS>MOLECULE
*****
 38 42 0 0 0
SMALL
GASTEIGER

@<TRIPOS>ATOM
      1 N           5.7938   -2.8156   20.7119 N.3     1  UNL1       -0.1487
      2 C           4.5450   -3.2956   20.0335 C.3     1  UNL1        0.0849
      3 C           5.2476   -4.5592   19.6340 C.3     1  UNL1        0.0206
      4 C           3.9988   -5.0391   18.9557 C.3     1  UNL1        0.0035
      5 C           3.2962   -3.7755   19.3551 C.3     1  UNL1        0.0206
      6 C           3.8424   -2.0320   20.4330 C.ar    1  UNL1       -0.0077
      7 C           3.3201   -1.0994   19.3806 C.ar    1  UNL1       -0.0030
      8 C           2.6175    0.1642   19.7801 C.ar    1  UNL1       -0.0003
      9 C           2.4371    0.4952   21.2320 C.ar    1  UNL1       -0.0000
     10 C           2.9594   -0.4374   22.2843 C.ar    1  UNL1       -0.0002
     11 C           3.6620   -1.7010   21.8849 C.ar    1  UNL1       -0.0030
     12 C           2.7790   -0.1063   23.7362 C.ar    1  UNL1        0.0017
     13 C           3.5378   -0.8713   24.7798 C.ar    1  UNL1        0.0114
     14 C           3.3575   -0.5402   26.2316 C.ar    1  UNL1        0.0585
     15 CL          4.1163   -1.3051   27.2752 Cl      1  UNL1       -0.0822
     16 C           2.4183    0.5558   26.6399 C.ar    1  UNL1        0.0228
     17 C           1.6595    1.3208   25.5963 C.ar    1  UNL1        0.0585
     18 CL          0.7203    2.4168   26.0046 Cl      1  UNL1       -0.0822
     19 C           1.8399    0.9897   24.1445 C.ar    1  UNL1        0.0114
     20 S           6.2094   -3.4093   22.0253 S.O2    1  UNL1        0.0638
     21 O           7.4241   -2.5294   22.0386 O.2     1  UNL1       -0.1528
     22 O           4.9946   -4.2892   22.0119 O.2     1  UNL1       -0.1528
     23 C           8.5146   -6.8060   28.7822 C.3     1  UNL1        0.0436
     24 C           8.5328   -7.1298   27.3177 C.3     1  UNL1        0.1336
     25 C           9.1877   -8.3633   27.8653 C.3     1  UNL1        0.0436
     26 C           8.7784   -7.8820   26.0433 C.3     1  UNL1        0.0448
     27 C           8.3628   -7.2883   24.7300 C.3     1  UNL1        0.0330
     28 C           7.7017   -5.9425   24.6910 C.ar    1  UNL1        0.0132
     29 C           7.2861   -5.3488   23.3776 C.ar    1  UNL1        0.0186
     30 C           6.6249   -4.0030   23.3386 C.ar    1  UNL1        0.1221
     31 C           6.3793   -3.2508   24.6130 C.ar    1  UNL1        0.0230
     32 C           6.7949   -3.8444   25.9263 C.ar    1  UNL1        0.0379
     33 C           7.4561   -5.1903   25.9653 C.ar    1  UNL1        0.1342
     34 O           7.8716   -5.7840   27.2786 O.3     1  UNL1       -0.4829
     35 C           6.6270   -1.7420   20.0770 C.3     1  UNL1        0.1374
     36 C           7.3283   -2.0069   18.7778 C.2     1  UNL1        0.0683
     37 O           8.7718   -2.4147   18.7743 O.co2   1  UNL1       -0.5477
     38 O           6.5862   -1.8639   17.4821 O.co2   1  UNL1       -0.5477
@<TRIPOS>UNITY_ATOM_ATTR
37 1
charge -1
@<TRIPOS>BOND
     1    23    24    1
     2    24    25    1
     3    24    26    1
     4    26    27    1
     5    27    28    1
     6    28    29   ar
     7    29    30   ar
     8    30    20    1
     9    20    21    2
    10    20    22    2
    11    20     1    1
    12     1    35    1
    13    35    36    1
    14    36    37   ar
    15    36    38   ar
    16     1     2    1
    17     2     6    1
    18     6     7   ar
    19     7     8   ar
    20     8     9   ar
    21     9    10   ar
    22    10    12    1
    23    12    13   ar
    24    13    14   ar
    25    14    15    1
    26    14    16   ar
    27    16    17   ar
    28    17    18    1
    29    17    19   ar
    30    10    11   ar
    31     2     3    1
    32     3     4    1
    33     4     5    1
    34    30    31   ar
    35    31    32   ar
    36    32    33   ar
    37    33    34    1
    38    34    24    1
    39    33    28   ar
    40     5     2    1
    41    11     6   ar
    42    19    12   ar
@<TRIPOS>MOLECULE
*****
 38 42 0 0 0
SMALL
GASTEIGER

@<TRIPOS>ATOM
      1 N           5.0238   -1.6276   20.3314 N.3     1  UNL1       -0.1487
      2 C           4.9535   -3.0807   19.9659 C.3     1  UNL1        0.0849
      3 C           3.6993   -2.8236   19.1844 C.3     1  UNL1        0.0206
      4 C           3.6291   -4.2767   18.8190 C.3     1  UNL1        0.0035
      5 C           4.8833   -4.5338   19.6005 C.3     1  UNL1        0.0206
      6 C           6.2077   -3.3379   20.7475 C.ar    1  UNL1       -0.0077
      7 C           7.5444   -3.0167   20.1475 C.ar    1  UNL1       -0.0030
      8 C           8.7987   -3.2739   20.9291 C.ar    1  UNL1       -0.0003
      9 C           8.7161   -3.8522   22.3107 C.ar    1  UNL1       -0.0000
     10 C           7.3794   -4.1733   22.9107 C.ar    1  UNL1       -0.0002
     11 C           6.1252   -3.9162   22.1291 C.ar    1  UNL1       -0.0030
     12 C           7.2969   -4.7516   24.2923 C.ar    1  UNL1        0.0017
     13 C           6.7569   -3.9240   25.4207 C.ar    1  UNL1        0.0114
     14 C           6.6744   -4.5024   26.8023 C.ar    1  UNL1        0.0585
     15 CL          6.1344   -3.6747   27.9308 Cl      1  UNL1       -0.0822
     16 C           7.1319   -5.9083   27.0554 C.ar    1  UNL1        0.0228
     17 C           7.6719   -6.7359   25.9269 C.ar    1  UNL1        0.0585
     18 CL          8.1294   -8.1418   26.1800 Cl      1  UNL1       -0.0822
     19 C           7.7544   -6.1576   24.5454 C.ar    1  UNL1        0.0114
     20 S           4.4605   -1.1549   21.6388 S.O2    1  UNL1        0.0638
     21 O           3.2134   -1.9503   21.3890 O.2     1  UNL1       -0.1528
     22 O           5.7075   -0.3596   21.8886 O.2     1  UNL1       -0.1528
     23 C           1.2192    1.4422   28.3661 C.3     1  UNL1        0.0436
     24 C           0.8592    1.3920   26.9108 C.3     1  UNL1        0.1336
     25 C          -0.3638    2.0659   27.4586 C.3     1  UNL1        0.0436
     26 C           0.0745    1.5758   25.6457 C.3     1  UNL1        0.0448
     27 C           0.6378    1.1032   24.3383 C.3     1  UNL1        0.0330
     28 C           1.9858    0.4467   24.2960 C.ar    1  UNL1        0.0132
     29 C           2.5491   -0.0259   22.9886 C.ar    1  UNL1        0.0186
     30 C           3.8972   -0.6823   22.9462 C.ar    1  UNL1        0.1221
     31 C           4.6820   -0.8662   24.2113 C.ar    1  UNL1        0.0230
     32 C           4.1187   -0.3936   25.5187 C.ar    1  UNL1        0.0379
     33 C           2.7706    0.2629   25.5610 C.ar    1  UNL1        0.1342
     34 O           2.2072    0.7355   26.8684 O.3     1  UNL1       -0.4829
     35 C           5.6573   -0.6471   19.3895 C.3     1  UNL1        0.1374
     36 C           5.5796   -0.8723   17.9085 C.2     1  UNL1        0.0683
     37 O           6.6252   -1.6981   17.2195 O.co2   1  UNL1       -0.5477
     38 O           4.4561   -0.2717   17.1165 O.co2   1  UNL1       -0.5477
@<TRIPOS>UNITY_ATOM_ATTR
37 1
charge -1
@<TRIPOS>BOND
     1    23    24    1
     2    24    25    1
     3    24    26    1
     4    26    27    1
     5    27    28    1
     6    28    29   ar
     7    29    30   ar
     8    30    20    1
     9    20    21    2
    10    20    22    2
    11    20     1    1
    12     1    35    1
    13    35    36    1
    14    36    37   ar
    15    36    38   ar
    16     1     2    1
    17     2     6    1
    18     6     7   ar
    19     7     8   ar
    20     8     9   ar
    21     9    10   ar
    22    10    12    1
    23    12    13   ar
    24    13    14   ar
    25    14    15    1
    26    14    16   ar
    27    16    17   ar
    28    17    18    1
    29    17    19   ar
    30    10    11   ar
    31     2     3    1
    32     3     4    1
    33     4     5    1
    34    30    31   ar
    35    31    32   ar
    36    32    33   ar
    37    33    34    1
    38    34    24    1
    39    33    28   ar
    40     5     2    1
    41    11     6   ar
    42    19    12   ar
@<TRIPOS>MOLECULE
*****
 38 42 0 0 0
SMALL
GASTEIGER

@<TRIPOS>ATOM
      1 N           4.6952   -1.7520   20.0052 N.3     1  UNL1       -0.1487
      2 C           4.7764   -3.2344   19.7908 C.3     1  UNL1        0.0849
      3 C           3.5148   -3.1864   18.9809 C.3     1  UNL1        0.0206
      4 C           3.5960   -4.6687   18.7665 C.3     1  UNL1        0.0035
      5 C           4.8575   -4.7168   19.5765 C.3     1  UNL1        0.0206
      6 C           6.0380   -3.2824   20.6007 C.ar    1  UNL1       -0.0077
      7 C           7.3102   -2.7177   20.0416 C.ar    1  UNL1       -0.0030
      8 C           8.5718   -2.7657   20.8516 C.ar    1  UNL1       -0.0003
      9 C           8.5612   -3.3785   22.2207 C.ar    1  UNL1       -0.0000
     10 C           7.2890   -3.9432   22.7798 C.ar    1  UNL1       -0.0002
     11 C           6.0274   -3.8952   21.9699 C.ar    1  UNL1       -0.0030
     12 C           7.2785   -4.5560   24.1489 C.ar    1  UNL1        0.0017
     13 C           7.6746   -5.9912   24.3314 C.ar    1  UNL1        0.0114
     14 C           7.6641   -6.6039   25.7004 C.ar    1  UNL1        0.0585
     15 CL          8.0602   -8.0391   25.8829 Cl      1  UNL1       -0.0822
     16 C           7.2574   -5.7815   26.8871 C.ar    1  UNL1        0.0228
     17 C           6.8612   -4.3463   26.7047 C.ar    1  UNL1        0.0585
     18 CL          6.4545   -3.5238   27.8913 Cl      1  UNL1       -0.0822
     19 C           6.8718   -3.7336   25.3356 C.ar    1  UNL1        0.0114
     20 S           4.1733   -1.2093   21.3025 S.O2    1  UNL1        0.0638
     21 O           2.9622   -2.0860   21.1820 O.2     1  UNL1       -0.1528
     22 O           5.3844   -0.3325   21.4230 O.2     1  UNL1       -0.1528
     23 C           1.5965    1.4148   28.3012 C.3     1  UNL1        0.0436
     24 C           2.4910    0.3254   27.7882 C.3     1  UNL1        0.1336
     25 C           2.5857    0.0674   29.2629 C.3     1  UNL1        0.0436
     26 C           3.4183   -0.8536   27.7873 C.3     1  UNL1        0.0448
     27 C           3.9402   -1.3963   26.4900 C.3     1  UNL1        0.0330
     28 C           3.5348   -0.7601   25.1936 C.ar    1  UNL1        0.0132
     29 C           4.0568   -1.3028   23.8963 C.ar    1  UNL1        0.0186
     30 C           3.6514   -0.6665   22.5998 C.ar    1  UNL1        0.1221
     31 C           2.7240    0.5125   22.6007 C.ar    1  UNL1        0.0230
     32 C           2.2021    1.0552   23.8980 C.ar    1  UNL1        0.0379
     33 C           2.6075    0.4189   25.1945 C.ar    1  UNL1        0.1342
     34 O           2.0856    0.9616   26.4918 O.3     1  UNL1       -0.4829
     35 C           5.1360   -0.8123   18.9223 C.3     1  UNL1        0.1374
     36 C           4.1637   -0.3749   17.8673 C.2     1  UNL1        0.0683
     37 O           3.0688    0.5912   18.2106 O.co2   1  UNL1       -0.5477
     38 O           4.2861   -0.9036   16.4688 O.co2   1  UNL1       -0.5477
@<TRIPOS>UNITY_ATOM_ATTR
37 1
charge -1
@<TRIPOS>BOND
     1    23    24    1
     2    24    25    1
     3    24    26    1
     4    26    27    1
     5    27    28    1
     6    28    29   ar
     7    29    30   ar
     8    30    20    1
     9    20    21    2
    10    20    22    2
    11    20     1    1
    12     1    35    1
    13    35    36    1
    14    36    37   ar
    15    36    38   ar
    16     1     2    1
    17     2     6    1
    18     6     7   ar
    19     7     8   ar
    20     8     9   ar
    21     9    10   ar
    22    10    12    1
    23    12    13   ar
    24    13    14   ar
    25    14    15    1
    26    14    16   ar
    27    16    17   ar
    28    17    18    1
    29    17    19   ar
    30    10    11   ar
    31     2     3    1
    32     3     4    1
    33     4     5    1
    34    30    31   ar
    35    31    32   ar
    36    32    33   ar
    37    33    34    1
    38    34    24    1
    39    33    28   ar
    40     5     2    1
    41    11     6   ar
    42    19    12   ar
@<TRIPOS>MOLECULE
*****
 38 42 0 0 0
SMALL
GASTEIGER

@<TRIPOS>ATOM
      1 N           5.4102   -2.1160   19.9622 N.3     1  UNL1       -0.1487
      2 C           4.5420   -3.2656   20.3805 C.3     1  UNL1        0.0849
      3 C           4.6390   -3.8417   18.9990 C.3     1  UNL1        0.0206
      4 C           3.7709   -4.9911   19.4174 C.3     1  UNL1        0.0035
      5 C           3.6739   -4.4150   20.7989 C.3     1  UNL1        0.0206
      6 C           4.4450   -2.6895   21.7620 C.ar    1  UNL1       -0.0077
      7 C           5.3373   -3.2028   22.8531 C.ar    1  UNL1       -0.0030
      8 C           5.2402   -2.6267   24.2347 C.ar    1  UNL1       -0.0003
      9 C           4.2510   -1.5372   24.5251 C.ar    1  UNL1       -0.0000
     10 C           3.3587   -1.0239   23.4341 C.ar    1  UNL1       -0.0002
     11 C           3.4557   -1.6000   22.0526 C.ar    1  UNL1       -0.0030
     12 C           2.3694    0.0656   23.7247 C.ar    1  UNL1        0.0017
     13 C           2.1924    0.5631   25.1286 C.ar    1  UNL1        0.0114
     14 C           1.2031    1.6525   25.4191 C.ar    1  UNL1        0.0585
     15 CL          1.0261    2.1500   26.8231 Cl      1  UNL1       -0.0822
     16 C           0.3909    2.2445   24.3056 C.ar    1  UNL1        0.0228
     17 C           0.5679    1.7470   22.9017 C.ar    1  UNL1        0.0585
     18 CL         -0.2444    2.3390   21.7882 Cl      1  UNL1       -0.0822
     19 C           1.5571    0.6576   22.6112 C.ar    1  UNL1        0.0114
     20 S           4.7858   -0.8160   19.5497 S.O2    1  UNL1        0.0638
     21 O           3.8600   -1.5531   18.6279 O.2     1  UNL1       -0.1528
     22 O           5.7116   -0.0789   20.4714 O.2     1  UNL1       -0.1528
     23 C           1.1956    5.8866   17.3833 C.3     1  UNL1        0.0436
     24 C           0.8027    4.4777   17.7163 C.3     1  UNL1        0.1336
     25 C          -0.5467    5.0607   17.4173 C.3     1  UNL1        0.0436
     26 C          -0.0587    3.2714   17.9455 C.3     1  UNL1        0.0448
     27 C           0.5656    1.9713   18.3580 C.3     1  UNL1        0.0330
     28 C           2.0514    1.8777   18.5413 C.ar    1  UNL1        0.0132
     29 C           2.6757    0.5777   18.9538 C.ar    1  UNL1        0.0186
     30 C           4.1615    0.4840   19.1371 C.ar    1  UNL1        0.1221
     31 C           5.0230    1.6904   18.9080 C.ar    1  UNL1        0.0230
     32 C           4.3987    2.9904   18.4955 C.ar    1  UNL1        0.0379
     33 C           2.9128    3.0840   18.3121 C.ar    1  UNL1        0.1342
     34 O           2.2885    4.3841   17.8996 O.3     1  UNL1       -0.4829
     35 C           6.9025   -2.2665   19.9563 C.3     1  UNL1        0.1374
     36 C           7.6872   -1.9127   18.7279 C.2     1  UNL1        0.0683
     37 O           9.0360   -1.2695   18.8589 O.co2   1  UNL1       -0.5477
     38 O           7.1231   -2.2019   17.3684 O.co2   1  UNL1       -0.5477
@<TRIPOS>UNITY_ATOM_ATTR
37 1
charge -1
@<TRIPOS>BOND
     1    23    24    1
     2    24    25    1
     3    24    26    1
     4    26    27    1
     5    27    28    1
     6    28    29   ar
     7    29    30   ar
     8    30    20    1
     9    20    21    2
    10    20    22    2
    11    20     1    1
    12     1    35    1
    13    35    36    1
    14    36    37   ar
    15    36    38   ar
    16     1     2    1
    17     2     6    1
    18     6     7   ar
    19     7     8   ar
    20     8     9   ar
    21     9    10   ar
    22    10    12    1
    23    12    13   ar
    24    13    14   ar
    25    14    15    1
    26    14    16   ar
    27    16    17   ar
    28    17    18    1
    29    17    19   ar
    30    10    11   ar
    31     2     3    1
    32     3     4    1
    33     4     5    1
    34    30    31   ar
    35    31    32   ar
    36    32    33   ar
    37    33    34    1
    38    34    24    1
    39    33    28   ar
    40     5     2    1
    41    11     6   ar
    42    19    12   ar
@<TRIPOS>MOLECULE
*****
 38 42 0 0 0
SMALL
GASTEIGER

@<TRIPOS>ATOM
      1 N           4.4442   -1.6218   19.9135 N.3     1  UNL1       -0.1487
      2 C           4.2735   -3.0643   20.2877 C.3     1  UNL1        0.0849
      3 C           3.7149   -3.3516   18.9256 C.3     1  UNL1        0.0206
      4 C           3.5443   -4.7941   19.2998 C.3     1  UNL1        0.0035
      5 C           4.1029   -4.5068   20.6619 C.3     1  UNL1        0.0206
      6 C           4.8322   -2.7770   21.6498 C.ar    1  UNL1       -0.0077
      7 C           6.2068   -3.2551   22.0127 C.ar    1  UNL1       -0.0030
      8 C           6.7654   -2.9678   23.3749 C.ar    1  UNL1       -0.0003
      9 C           5.9494   -2.2024   24.3740 C.ar    1  UNL1       -0.0000
     10 C           4.5747   -1.7244   24.0111 C.ar    1  UNL1       -0.0002
     11 C           4.0161   -2.0117   22.6490 C.ar    1  UNL1       -0.0030
     12 C           3.7587   -0.9590   25.0103 C.ar    1  UNL1        0.0017
     13 C           2.7928    0.0897   24.5441 C.ar    1  UNL1        0.0114
     14 C           1.9769    0.8550   25.5433 C.ar    1  UNL1        0.0585
     15 CL          1.0109    1.9037   25.0772 Cl      1  UNL1       -0.0822
     16 C           2.1267    0.5716   27.0087 C.ar    1  UNL1        0.0228
     17 C           3.0926   -0.4770   27.4748 C.ar    1  UNL1        0.0585
     18 CL          3.2425   -0.7604   28.9402 Cl      1  UNL1       -0.0822
     19 C           3.9086   -1.2423   26.4756 C.ar    1  UNL1        0.0114
     20 S           3.2824   -0.6783   20.0145 S.O2    1  UNL1        0.0638
     21 O           4.2267    0.4557   20.2834 O.2     1  UNL1       -0.1528
     22 O           2.3381   -1.8123   19.7455 O.2     1  UNL1       -0.1528
     23 C          -2.7882    4.3824   20.2279 C.3     1  UNL1        0.0436
     24 C          -1.7620    3.9254   19.2338 C.3     1  UNL1        0.1336
     25 C          -2.5159    4.9140   18.3943 C.3     1  UNL1        0.0436
     26 C          -0.9977    3.8118   17.9482 C.3     1  UNL1        0.0448
     27 C           0.1640    2.8683   17.8472 C.3     1  UNL1        0.0330
     28 C           0.5615    2.0385   19.0318 C.ar    1  UNL1        0.0132
     29 C           1.7232    1.0950   18.9308 C.ar    1  UNL1        0.0186
     30 C           2.1207    0.2652   20.1155 C.ar    1  UNL1        0.1221
     31 C           1.3563    0.3788   21.4012 C.ar    1  UNL1        0.0230
     32 C           0.1946    1.3223   21.5021 C.ar    1  UNL1        0.0379
     33 C          -0.2029    2.1521   20.3174 C.ar    1  UNL1        0.1342
     34 O          -1.3646    3.0956   20.4184 O.3     1  UNL1       -0.4829
     35 C           5.7765   -1.1227   19.4383 C.3     1  UNL1        0.1374
     36 C           6.1377   -1.2163   17.9855 C.2     1  UNL1        0.0683
     37 O           5.7094   -0.1377   17.0352 O.co2   1  UNL1       -0.5477
     38 O           6.9274   -2.3885   17.4830 O.co2   1  UNL1       -0.5477
@<TRIPOS>UNITY_ATOM_ATTR
37 1
charge -1
@<TRIPOS>BOND
     1    23    24    1
     2    24    25    1
     3    24    26    1
     4    26    27    1
     5    27    28    1
     6    28    29   ar
     7    29    30   ar
     8    30    20    1
     9    20    21    2
    10    20    22    2
    11    20     1    1
    12     1    35    1
    13    35    36    1
    14    36    37   ar
    15    36    38   ar
    16     1     2    1
    17     2     6    1
    18     6     7   ar
    19     7     8   ar
    20     8     9   ar
    21     9    10   ar
    22    10    12    1
    23    12    13   ar
    24    13    14   ar
    25    14    15    1
    26    14    16   ar
    27    16    17   ar
    28    17    18    1
    29    17    19   ar
    30    10    11   ar
    31     2     3    1
    32     3     4    1
    33     4     5    1
    34    30    31   ar
    35    31    32   ar
    36    32    33   ar
    37    33    34    1
    38    34    24    1
    39    33    28   ar
    40     5     2    1
    41    11     6   ar
    42    19    12   ar
@<TRIPOS>MOLECULE
*****
 38 42 0 0 0
SMALL
GASTEIGER

@<TRIPOS>ATOM
      1 N           6.0058   -2.6718   20.7280 N.3     1  UNL1       -0.1487
      2 C           4.7001   -3.0012   20.0671 C.3     1  UNL1        0.0849
      3 C           5.2923   -4.2700   19.5293 C.3     1  UNL1        0.0206
      4 C           3.9866   -4.5993   18.8685 C.3     1  UNL1        0.0035
      5 C           3.3944   -3.3305   19.4063 C.3     1  UNL1        0.0206
      6 C           4.1079   -1.7323   20.6049 C.ar    1  UNL1       -0.0077
      7 C           3.5975   -1.6814   22.0145 C.ar    1  UNL1       -0.0030
      8 C           3.0053   -0.4125   22.5523 C.ar    1  UNL1       -0.0003
      9 C           2.9235    0.8054   21.6806 C.ar    1  UNL1       -0.0000
     10 C           3.4339    0.7545   20.2710 C.ar    1  UNL1       -0.0002
     11 C           4.0261   -0.5143   19.7332 C.ar    1  UNL1       -0.0030
     12 C           3.3521    1.9725   19.3993 C.ar    1  UNL1        0.0017
     13 C           2.0372    2.6670   19.2025 C.ar    1  UNL1        0.0114
     14 C           1.9555    3.8850   18.3308 C.ar    1  UNL1        0.0585
     15 CL          0.6406    4.5796   18.1341 Cl      1  UNL1       -0.0822
     16 C           3.1886    4.4084   17.6559 C.ar    1  UNL1        0.0228
     17 C           4.5034    3.7138   17.8526 C.ar    1  UNL1        0.0585
     18 CL          5.7365    4.2372   17.1777 Cl      1  UNL1       -0.0822
     19 C           4.5852    2.4959   18.7243 C.ar    1  UNL1        0.0114
     20 S           6.3512   -3.2841   22.0530 S.O2    1  UNL1        0.0638
     21 O           5.5277   -4.4901   21.7104 O.2     1  UNL1       -0.1528
     22 O           7.1747   -2.0781   22.3956 O.2     1  UNL1       -0.1528
     23 C           8.2912   -6.7785   28.8746 C.3     1  UNL1        0.0436
     24 C           8.3756   -7.0873   27.4091 C.3     1  UNL1        0.1336
     25 C           8.9893   -8.3341   27.9738 C.3     1  UNL1        0.0436
     26 C           8.6732   -7.8290   26.1398 C.3     1  UNL1        0.0448
     27 C           8.3278   -7.2168   24.8147 C.3     1  UNL1        0.0330
     28 C           7.6849   -5.8627   24.7589 C.ar    1  UNL1        0.0132
     29 C           7.3395   -5.2504   23.4339 C.ar    1  UNL1        0.0186
     30 C           6.6966   -3.8964   23.3781 C.ar    1  UNL1        0.1221
     31 C           6.3990   -3.1545   24.6475 C.ar    1  UNL1        0.0230
     32 C           6.7444   -3.7668   25.9725 C.ar    1  UNL1        0.0379
     33 C           7.3874   -5.1209   26.0283 C.ar    1  UNL1        0.1342
     34 O           7.7327   -5.7332   27.3533 O.3     1  UNL1       -0.4829
     35 C           6.9661   -1.7302   20.0637 C.3     1  UNL1        0.1374
     36 C           7.6663   -2.1397   18.8020 C.2     1  UNL1        0.0683
     37 O           6.9644   -2.0192   17.4818 O.co2   1  UNL1       -0.5477
     38 O           9.0684   -2.6696   18.8604 O.co2   1  UNL1       -0.5477
@<TRIPOS>UNITY_ATOM_ATTR
37 1
charge -1
@<TRIPOS>BOND
     1    23    24    1
     2    24    25    1
     3    24    26    1
     4    26    27    1
     5    27    28    1
     6    28    29   ar
     7    29    30   ar
     8    30    20    1
     9    20    21    2
    10    20    22    2
    11    20     1    1
    12     1    35    1
    13    35    36    1
    14    36    37   ar
    15    36    38   ar
    16     1     2    1
    17     2     6    1
    18     6     7   ar
    19     7     8   ar
    20     8     9   ar
    21     9    10   ar
    22    10    12    1
    23    12    13   ar
    24    13    14   ar
    25    14    15    1
    26    14    16   ar
    27    16    17   ar
    28    17    18    1
    29    17    19   ar
    30    10    11   ar
    31     2     3    1
    32     3     4    1
    33     4     5    1
    34    30    31   ar
    35    31    32   ar
    36    32    33   ar
    37    33    34    1
    38    34    24    1
    39    33    28   ar
    40     5     2    1
    41    11     6   ar
    42    19    12   ar
