@<TRIPOS>MOLECULE
*****
 30 33 0 0 0
SMALL
GASTEIGER

@<TRIPOS>ATOM
      1 C           6.2229   -3.2350   30.3102 C.2     1  UNL1        0.2532
      2 O           5.8155   -1.8768   29.8210 O.2     1  UNL1       -0.2695
      3 N           6.1391   -3.5620   31.7717 N.am    1  UNL1       -0.2987
      4 H           6.4065   -4.4534   32.0928 H       1  UNL1        0.1498
      5 C           8.3439   -7.6470   24.1735 C.3     1  UNL1        0.0537
      6 C           8.1195   -7.1967   25.5866 C.ar    1  UNL1        0.0771
      7 N           8.5213   -8.0821   26.7287 N.ar    1  UNL1       -0.1522
      8 N           8.2969   -7.6318   28.1418 N.ar    1  UNL1       -0.1416
      9 C           7.6707   -6.2960   28.4128 C.ar    1  UNL1        0.1333
     10 S           7.3277   -5.5888   29.6904 S.2     1  UNL1       -0.0604
     11 C           6.7140   -4.2663   29.3379 C.ar    1  UNL1        0.0971
     12 C           6.6776   -4.1561   27.8424 C.ar    1  UNL1        0.0538
     13 N           6.1437   -2.9953   27.0566 N.pl3   1  UNL1       -0.3564
     14 C           7.2689   -5.4106   27.2706 C.ar    1  UNL1        0.0363
     15 C           7.4933   -5.8609   25.8576 C.ar    1  UNL1       -0.0033
     16 C           7.0915   -4.9754   24.7154 C.3     1  UNL1        0.0324
     17 H           5.7736   -2.2124   27.5249 H       1  UNL1        0.1424
     18 H           6.1634   -3.0163   26.0725 H       1  UNL1        0.1424
     19 C           5.6480   -2.5308   32.7440 C.3     1  UNL1        0.1113
     20 C           4.4129   -2.3627   33.5782 C.3     1  UNL1        0.1121
     21 N           4.9535   -1.0723   34.1189 N.pl3   1  UNL1       -0.3023
     22 C           6.1888   -1.2403   33.2847 C.3     1  UNL1        0.1121
     23 C           4.4624   -0.0410   35.0912 C.ar    1  UNL1        0.0780
     24 C           4.8091   -0.1567   36.5460 C.ar    1  UNL1        0.0170
     25 C           4.3180    0.8746   37.5183 C.ar    1  UNL1        0.0037
     26 C           3.4803    2.0215   37.0358 C.ar    1  UNL1        0.0321
     27 C           3.1336    2.1372   35.5810 C.ar    1  UNL1        0.1686
     28 F           2.2959    3.2841   35.0985 F       1  UNL1       -0.2018
     29 C           3.6247    1.1059   34.6087 C.ar    1  UNL1        0.1805
     30 F           3.2781    1.2215   33.1539 F       1  UNL1       -0.2005
@<TRIPOS>BOND
     1     5     6    1
     2     6     7   ar
     3     7     8   ar
     4     8     9   ar
     5     9    10   ar
     6    10    11   ar
     7    11     1    1
     8     1     2    2
     9     1     3   am
    10     3    19    1
    11    19    20    1
    12    20    21    1
    13    21    23    1
    14    23    24   ar
    15    24    25   ar
    16    25    26   ar
    17    26    27   ar
    18    27    28    1
    19    27    29   ar
    20    29    30    1
    21    21    22    1
    22    11    12   ar
    23    12    13    1
    24    12    14   ar
    25    14    15   ar
    26    15    16    1
    27    15     6   ar
    28    14     9   ar
    29    22    19    1
    30    29    23   ar
    31     3     4    1
    32    13    17    1
    33    13    18    1
@<TRIPOS>MOLECULE
*****
 30 33 0 0 0
SMALL
GASTEIGER

@<TRIPOS>ATOM
      1 C           3.4388   -0.3900   25.4219 C.2     1  UNL1        0.2532
      2 O           3.2083    1.0788   25.2229 O.2     1  UNL1       -0.2695
      3 N           3.2455   -1.0026   26.7773 N.am    1  UNL1       -0.2987
      4 H           3.3968   -1.9666   26.9079 H       1  UNL1        0.1498
      5 C           4.6996   -4.0189   18.5761 C.3     1  UNL1        0.0537
      6 C           4.7907   -3.6619   20.0301 C.ar    1  UNL1        0.0771
      7 N           5.7071   -4.4307   20.9351 N.ar    1  UNL1       -0.1522
      8 N           5.7983   -4.0738   22.3892 N.ar    1  UNL1       -0.1416
      9 C           4.9731   -2.9480   22.9382 C.ar    1  UNL1        0.1333
     10 S           4.8532   -2.3713   24.3177 S.2     1  UNL1       -0.0604
     11 C           3.8626   -1.2461   24.2654 C.ar    1  UNL1        0.0971
     12 C           3.3703   -1.1273   22.8534 C.ar    1  UNL1        0.0538
     13 N           2.3678   -0.1316   22.3501 N.pl3   1  UNL1       -0.3564
     14 C           4.0567   -2.1791   22.0332 C.ar    1  UNL1        0.0363
     15 C           3.9655   -2.5361   20.5792 C.ar    1  UNL1       -0.0033
     16 C           3.0490   -1.7672   19.6742 C.3     1  UNL1        0.0324
     17 H           1.9706    0.5230   22.9690 H       1  UNL1        0.1424
     18 H           2.1070   -0.1325   21.4008 H       1  UNL1        0.1424
     19 C           2.8217   -0.1465   27.9338 C.3     1  UNL1        0.1113
     20 C           1.5872   -0.0413   28.7792 C.3     1  UNL1        0.1121
     21 N           2.2224    1.0642   29.5692 N.pl3   1  UNL1       -0.3023
     22 C           3.4570    0.9590   28.7238 C.3     1  UNL1        0.1121
     23 C           1.7987    1.9204   30.7258 C.ar    1  UNL1        0.0780
     24 C           0.9985    3.1658   30.4833 C.ar    1  UNL1        0.0170
     25 C           0.5748    4.0220   31.6398 C.ar    1  UNL1        0.0037
     26 C           0.9511    3.6327   33.0387 C.ar    1  UNL1        0.0321
     27 C           1.7512    2.3873   33.2811 C.ar    1  UNL1        0.1686
     28 F           2.1276    1.9981   34.6800 F       1  UNL1       -0.2018
     29 C           2.1750    1.5312   32.1246 C.ar    1  UNL1        0.1805
     30 F           2.9751    0.2858   32.3670 F       1  UNL1       -0.2005
@<TRIPOS>BOND
     1     5     6    1
     2     6     7   ar
     3     7     8   ar
     4     8     9   ar
     5     9    10   ar
     6    10    11   ar
     7    11     1    1
     8     1     2    2
     9     1     3   am
    10     3    19    1
    11    19    20    1
    12    20    21    1
    13    21    23    1
    14    23    24   ar
    15    24    25   ar
    16    25    26   ar
    17    26    27   ar
    18    27    28    1
    19    27    29   ar
    20    29    30    1
    21    21    22    1
    22    11    12   ar
    23    12    13    1
    24    12    14   ar
    25    14    15   ar
    26    15    16    1
    27    15     6   ar
    28    14     9   ar
    29    22    19    1
    30    29    23   ar
    31     3     4    1
    32    13    17    1
    33    13    18    1
@<TRIPOS>MOLECULE
*****
 30 33 0 0 0
SMALL
GASTEIGER

@<TRIPOS>ATOM
      1 C           6.5223   -3.9397   25.1694 C.2     1  UNL1        0.2532
      2 O           7.2746   -4.4871   23.9927 O.2     1  UNL1       -0.2695
      3 N           5.4136   -2.9520   24.9571 N.am    1  UNL1       -0.2987
      4 H           4.9199   -2.5927   25.7293 H       1  UNL1        0.1498
      5 C           9.2529   -7.2599   31.7377 C.3     1  UNL1        0.0537
      6 C           8.4946   -6.3493   30.8181 C.ar    1  UNL1        0.0771
      7 N           7.5955   -5.2906   31.3845 N.ar    1  UNL1       -0.1522
      8 N           6.8372   -4.3800   30.4648 N.ar    1  UNL1       -0.1416
      9 C           6.9780   -4.5280   28.9788 C.ar    1  UNL1        0.1333
     10 S           6.3611   -3.7822   27.8329 S.2     1  UNL1       -0.0604
     11 C           6.8789   -4.3800   26.5583 C.ar    1  UNL1        0.0971
     12 C           7.8158   -5.4952   26.9165 C.ar    1  UNL1        0.0538
     13 N           8.5607   -6.3661   25.9486 N.pl3   1  UNL1       -0.3564
     14 C           7.8770   -5.5867   28.4125 C.ar    1  UNL1        0.0363
     15 C           8.6353   -6.4974   29.3321 C.ar    1  UNL1       -0.0033
     16 C           9.5344   -7.5561   28.7657 C.3     1  UNL1        0.0324
     17 H           8.4545   -6.2279   24.9797 H       1  UNL1        0.1424
     18 H           9.1558   -7.0758   26.2824 H       1  UNL1        0.1424
     19 C           5.0571   -2.5117   23.5682 C.3     1  UNL1        0.1113
     20 C           4.4169   -3.1656   22.3798 C.3     1  UNL1        0.1121
     21 N           4.5529   -1.8891   21.6040 N.pl3   1  UNL1       -0.3023
     22 C           5.1932   -1.2351   22.7925 C.3     1  UNL1        0.1121
     23 C           4.1964   -1.4488   20.2151 C.ar    1  UNL1        0.0780
     24 C           5.1410   -1.7106   19.0797 C.ar    1  UNL1        0.0170
     25 C           4.7846   -1.2703   17.6908 C.ar    1  UNL1        0.0037
     26 C           3.4835   -0.5682   17.4372 C.ar    1  UNL1        0.0321
     27 C           2.5389   -0.3063   18.5727 C.ar    1  UNL1        0.1686
     28 F           1.2379    0.3958   18.3192 F       1  UNL1       -0.2018
     29 C           2.8954   -0.7466   19.9616 C.ar    1  UNL1        0.1805
     30 F           1.9508   -0.4848   21.0970 F       1  UNL1       -0.2005
@<TRIPOS>BOND
     1     5     6    1
     2     6     7   ar
     3     7     8   ar
     4     8     9   ar
     5     9    10   ar
     6    10    11   ar
     7    11     1    1
     8     1     2    2
     9     1     3   am
    10     3    19    1
    11    19    20    1
    12    20    21    1
    13    21    23    1
    14    23    24   ar
    15    24    25   ar
    16    25    26   ar
    17    26    27   ar
    18    27    28    1
    19    27    29   ar
    20    29    30    1
    21    21    22    1
    22    11    12   ar
    23    12    13    1
    24    12    14   ar
    25    14    15   ar
    26    15    16    1
    27    15     6   ar
    28    14     9   ar
    29    22    19    1
    30    29    23   ar
    31     3     4    1
    32    13    17    1
    33    13    18    1
@<TRIPOS>MOLECULE
*****
 30 33 0 0 0
SMALL
GASTEIGER

@<TRIPOS>ATOM
      1 C           2.8209    0.7110   25.7825 C.2     1  UNL1        0.2532
      2 O           2.9365    1.7488   24.7057 O.2     1  UNL1       -0.2695
      3 N           3.1643   -0.7188   25.4861 N.am    1  UNL1       -0.2987
      4 H           3.0884   -1.4000   26.1928 H       1  UNL1        0.1498
      5 C           0.1203    4.0940   32.3312 C.3     1  UNL1        0.0537
      6 C           0.6894    3.0696   31.3948 C.ar    1  UNL1        0.0771
      7 N           1.0327    1.6999   31.9004 N.ar    1  UNL1       -0.1522
      8 N           1.6018    0.6755   30.9640 N.ar    1  UNL1       -0.1416
      9 C           1.8276    1.0210   29.5219 C.ar    1  UNL1        0.1333
     10 S           2.3701    0.2250   28.3721 S.2     1  UNL1       -0.0604
     11 C           2.3620    1.1029   27.1558 C.ar    1  UNL1        0.0971
     12 C           1.8145    2.4415   27.5539 C.ar    1  UNL1        0.0538
     13 N           1.6298    3.6231   26.6487 N.pl3   1  UNL1       -0.3564
     14 C           1.4842    2.3908   29.0163 C.ar    1  UNL1        0.0363
     15 C           0.9151    3.4151   29.9527 C.ar    1  UNL1       -0.0033
     16 C           0.5718    4.7850   29.4470 C.3     1  UNL1        0.0324
     17 H           1.8775    3.5585   25.6980 H       1  UNL1        0.1424
     18 H           1.2608    4.4634   27.0051 H       1  UNL1        0.1424
     19 C           3.6232   -1.1107   24.1128 C.3     1  UNL1        0.1113
     20 C           3.0275   -1.0491   22.7376 C.3     1  UNL1        0.1121
     21 N           4.2722   -1.6649   22.1708 N.pl3   1  UNL1       -0.3023
     22 C           4.8680   -1.7265   23.5461 C.3     1  UNL1        0.1121
     23 C           4.7311   -2.0568   20.7975 C.ar    1  UNL1        0.0780
     24 C           5.3757   -1.0394   19.9034 C.ar    1  UNL1        0.0170
     25 C           5.8346   -1.4312   18.5302 C.ar    1  UNL1        0.0037
     26 C           5.6490   -2.8405   18.0510 C.ar    1  UNL1        0.0321
     27 C           5.0045   -3.8579   18.9452 C.ar    1  UNL1        0.1686
     28 F           4.8189   -5.2672   18.4661 F       1  UNL1       -0.2018
     29 C           4.5455   -3.4660   20.3185 C.ar    1  UNL1        0.1805
     30 F           3.9010   -4.4834   21.2126 F       1  UNL1       -0.2005
@<TRIPOS>BOND
     1     5     6    1
     2     6     7   ar
     3     7     8   ar
     4     8     9   ar
     5     9    10   ar
     6    10    11   ar
     7    11     1    1
     8     1     2    2
     9     1     3   am
    10     3    19    1
    11    19    20    1
    12    20    21    1
    13    21    23    1
    14    23    24   ar
    15    24    25   ar
    16    25    26   ar
    17    26    27   ar
    18    27    28    1
    19    27    29   ar
    20    29    30    1
    21    21    22    1
    22    11    12   ar
    23    12    13    1
    24    12    14   ar
    25    14    15   ar
    26    15    16    1
    27    15     6   ar
    28    14     9   ar
    29    22    19    1
    30    29    23   ar
    31     3     4    1
    32    13    17    1
    33    13    18    1
@<TRIPOS>MOLECULE
*****
 30 33 0 0 0
SMALL
GASTEIGER

@<TRIPOS>ATOM
      1 C           1.2448    1.4832   30.6855 C.2     1  UNL1        0.2532
      2 O          -0.1207    1.6985   31.2678 O.2     1  UNL1       -0.2695
      3 N           1.4853    1.7317   29.2259 N.am    1  UNL1       -0.2987
      4 H           2.3815    1.5905   28.8437 H       1  UNL1        0.1498
      5 C           6.4105   -0.1810   36.3572 C.3     1  UNL1        0.0537
      6 C           5.7428   -0.1385   35.0147 C.ar    1  UNL1        0.0771
      7 N           6.3556   -0.8567   33.8491 N.ar    1  UNL1       -0.1522
      8 N           5.6878   -0.8141   32.5067 N.ar    1  UNL1       -0.1416
      9 C           4.4072   -0.0534   32.3298 C.ar    1  UNL1        0.1333
     10 S           3.5267    0.1658   31.1353 S.2     1  UNL1       -0.0604
     11 C           2.3697    1.0194   31.5627 C.ar    1  UNL1        0.0971
     12 C           2.5351    1.3279   33.0213 C.ar    1  UNL1        0.0538
     13 N           1.6047    2.1542   33.8588 N.pl3   1  UNL1       -0.3564
     14 C           3.7944    0.6648   33.4954 C.ar    1  UNL1        0.0363
     15 C           4.4622    0.6222   34.8378 C.ar    1  UNL1       -0.0033
     16 C           3.8493    1.3405   36.0035 C.3     1  UNL1        0.0324
     17 H           0.7989    2.5500   33.4547 H       1  UNL1        0.1424
     18 H           1.7998    2.3008   34.8126 H       1  UNL1        0.1424
     19 C           0.3604    2.1955   28.3488 C.3     1  UNL1        0.1113
     20 C          -0.8292    1.5390   27.7135 C.3     1  UNL1        0.1121
     21 N          -1.2304    2.8514   27.1083 N.pl3   1  UNL1       -0.3023
     22 C          -0.0407    3.5081   27.7435 C.3     1  UNL1        0.1121
     23 C          -2.3553    3.3153   26.2310 C.ar    1  UNL1        0.0780
     24 C          -3.6210    3.8347   26.8462 C.ar    1  UNL1        0.0170
     25 C          -4.7459    4.2985   25.9691 C.ar    1  UNL1        0.0037
     26 C          -4.6052    4.2429   24.4767 C.ar    1  UNL1        0.0321
     27 C          -3.3396    3.7235   23.8615 C.ar    1  UNL1        0.1686
     28 F          -3.1989    3.6680   22.3692 F       1  UNL1       -0.2018
     29 C          -2.2146    3.2597   24.7387 C.ar    1  UNL1        0.1805
     30 F          -0.9490    2.7403   24.1235 F       1  UNL1       -0.2005
@<TRIPOS>BOND
     1     5     6    1
     2     6     7   ar
     3     7     8   ar
     4     8     9   ar
     5     9    10   ar
     6    10    11   ar
     7    11     1    1
     8     1     2    2
     9     1     3   am
    10     3    19    1
    11    19    20    1
    12    20    21    1
    13    21    23    1
    14    23    24   ar
    15    24    25   ar
    16    25    26   ar
    17    26    27   ar
    18    27    28    1
    19    27    29   ar
    20    29    30    1
    21    21    22    1
    22    11    12   ar
    23    12    13    1
    24    12    14   ar
    25    14    15   ar
    26    15    16    1
    27    15     6   ar
    28    14     9   ar
    29    22    19    1
    30    29    23   ar
    31     3     4    1
    32    13    17    1
    33    13    18    1
@<TRIPOS>MOLECULE
*****
 30 33 0 0 0
SMALL
GASTEIGER

@<TRIPOS>ATOM
      1 C           3.5878   -0.4614   26.0705 C.2     1  UNL1        0.2532
      2 O           4.8887   -0.5224   26.8147 O.2     1  UNL1       -0.2695
      3 N           2.3438   -0.0016   26.7712 N.am    1  UNL1       -0.2987
      4 H           1.4899    0.0384   26.2828 H       1  UNL1        0.1498
      5 C           4.3289   -3.5680   18.8995 C.3     1  UNL1        0.0537
      6 C           3.8614   -2.6938   20.0252 C.ar    1  UNL1        0.0771
      7 N           2.8277   -1.6363   19.7740 N.ar    1  UNL1       -0.1522
      8 N           2.3602   -0.7621   20.8997 N.ar    1  UNL1       -0.1416
      9 C           2.9263   -0.9454   22.2766 C.ar    1  UNL1        0.1333
     10 S           2.6611   -0.2392   23.5731 S.2     1  UNL1       -0.0604
     11 C           3.5308   -0.8603   24.6256 C.ar    1  UNL1        0.0971
     12 C           4.3337   -1.9503   23.9796 C.ar    1  UNL1        0.0538
     13 N           5.3344   -2.8328   24.6649 N.pl3   1  UNL1       -0.3564
     14 C           3.9600   -2.0029   22.5277 C.ar    1  UNL1        0.0363
     15 C           4.4275   -2.8771   21.4020 C.ar    1  UNL1       -0.0033
     16 C           5.4613   -3.9346   21.6533 C.3     1  UNL1        0.0324
     17 H           5.5120   -2.7211   25.6268 H       1  UNL1        0.1424
     18 H           5.8135   -3.5238   24.1529 H       1  UNL1        0.1424
     19 C           2.4008    0.3973   28.2160 C.3     1  UNL1        0.1113
     20 C           3.1116    1.4642   28.9946 C.3     1  UNL1        0.1121
     21 N           2.4813    0.9613   30.2594 N.pl3   1  UNL1       -0.3023
     22 C           1.7703   -0.1057   29.4808 C.3     1  UNL1        0.1121
     23 C           2.5382    1.3602   31.7043 C.ar    1  UNL1        0.0780
     24 C           3.4435    0.6273   32.6495 C.ar    1  UNL1        0.0170
     25 C           3.5005    1.0262   34.0943 C.ar    1  UNL1        0.0037
     26 C           2.6522    2.1579   34.5941 C.ar    1  UNL1        0.0321
     27 C           1.7469    2.8907   33.6489 C.ar    1  UNL1        0.1686
     28 F           0.8986    4.0223   34.1485 F       1  UNL1       -0.2018
     29 C           1.6899    2.4918   32.2039 C.ar    1  UNL1        0.1805
     30 F           0.7846    3.2247   31.2587 F       1  UNL1       -0.2005
@<TRIPOS>BOND
     1     5     6    1
     2     6     7   ar
     3     7     8   ar
     4     8     9   ar
     5     9    10   ar
     6    10    11   ar
     7    11     1    1
     8     1     2    2
     9     1     3   am
    10     3    19    1
    11    19    20    1
    12    20    21    1
    13    21    23    1
    14    23    24   ar
    15    24    25   ar
    16    25    26   ar
    17    26    27   ar
    18    27    28    1
    19    27    29   ar
    20    29    30    1
    21    21    22    1
    22    11    12   ar
    23    12    13    1
    24    12    14   ar
    25    14    15   ar
    26    15    16    1
    27    15     6   ar
    28    14     9   ar
    29    22    19    1
    30    29    23   ar
    31     3     4    1
    32    13    17    1
    33    13    18    1
@<TRIPOS>MOLECULE
*****
 30 33 0 0 0
SMALL
GASTEIGER

@<TRIPOS>ATOM
      1 C           5.1564   -1.4611   26.9276 C.2     1  UNL1        0.2532
      2 O           6.5708   -1.4484   26.4282 O.2     1  UNL1       -0.2695
      3 N           4.0253   -1.6964   25.9709 N.am    1  UNL1       -0.2987
      4 H           3.0970   -1.7048   26.2986 H       1  UNL1        0.1498
      5 C           5.0026   -0.9741   34.7611 C.3     1  UNL1        0.0537
      6 C           4.5971   -0.8387   33.3233 C.ar    1  UNL1        0.0771
      7 N           3.2955   -0.1824   32.9697 N.ar    1  UNL1       -0.1522
      8 N           2.8901   -0.0471   31.5319 N.ar    1  UNL1       -0.1416
      9 C           3.7862   -0.5679   30.4477 C.ar    1  UNL1        0.1333
     10 S           3.6535   -0.5768   28.9536 S.2     1  UNL1       -0.0604
     11 C           4.8731   -1.2386   28.3838 C.ar    1  UNL1        0.0971
     12 C           5.7596   -1.6387   29.5257 C.ar    1  UNL1        0.0538
     13 N           7.0851   -2.3316   29.4120 N.pl3   1  UNL1       -0.3564
     14 C           5.0878   -1.2242   30.8012 C.ar    1  UNL1        0.0363
     15 C           5.4933   -1.3595   32.2390 C.ar    1  UNL1       -0.0033
     16 C           6.7950   -2.0158   32.5926 C.3     1  UNL1        0.0324
     17 H           7.4446   -2.5640   28.5255 H       1  UNL1        0.1424
     18 H           7.5955   -2.5539   30.2240 H       1  UNL1        0.1424
     19 C           4.3087   -1.9190   24.5148 C.3     1  UNL1        0.1113
     20 C           3.8207   -1.3096   23.2341 C.3     1  UNL1        0.1121
     21 N           4.7094   -2.2337   22.4557 N.pl3   1  UNL1       -0.3023
     22 C           5.1975   -2.8432   23.7365 C.3     1  UNL1        0.1121
     23 C           4.9928   -2.4563   20.9996 C.ar    1  UNL1        0.0780
     24 C           5.6706   -1.3868   20.1954 C.ar    1  UNL1        0.0170
     25 C           5.9540   -1.6093   18.7393 C.ar    1  UNL1        0.0037
     26 C           5.5596   -2.9014   18.0874 C.ar    1  UNL1        0.0321
     27 C           4.8818   -3.9710   18.8916 C.ar    1  UNL1        0.1686
     28 F           4.4873   -5.2630   18.2397 F       1  UNL1       -0.2018
     29 C           4.5984   -3.7484   20.3477 C.ar    1  UNL1        0.1805
     30 F           3.9206   -4.8179   21.1519 F       1  UNL1       -0.2005
@<TRIPOS>BOND
     1     5     6    1
     2     6     7   ar
     3     7     8   ar
     4     8     9   ar
     5     9    10   ar
     6    10    11   ar
     7    11     1    1
     8     1     2    2
     9     1     3   am
    10     3    19    1
    11    19    20    1
    12    20    21    1
    13    21    23    1
    14    23    24   ar
    15    24    25   ar
    16    25    26   ar
    17    26    27   ar
    18    27    28    1
    19    27    29   ar
    20    29    30    1
    21    21    22    1
    22    11    12   ar
    23    12    13    1
    24    12    14   ar
    25    14    15   ar
    26    15    16    1
    27    15     6   ar
    28    14     9   ar
    29    22    19    1
    30    29    23   ar
    31     3     4    1
    32    13    17    1
    33    13    18    1
@<TRIPOS>MOLECULE
*****
 30 33 0 0 0
SMALL
GASTEIGER

@<TRIPOS>ATOM
      1 C          -1.4477    2.9704   21.4965 C.2     1  UNL1        0.2532
      2 O          -1.5246    3.0305   19.9996 O.2     1  UNL1       -0.2695
      3 N          -0.3705    2.1651   22.1604 N.am    1  UNL1       -0.2987
      4 H          -0.3200    2.1256   23.1428 H       1  UNL1        0.1498
      5 C          -7.7043    6.1278   25.0334 C.3     1  UNL1        0.0537
      6 C          -6.2791    5.8180   24.6829 C.ar    1  UNL1        0.0771
      7 N          -5.1615    6.4895   25.4244 N.ar    1  UNL1       -0.1522
      8 N          -3.7363    6.1798   25.0739 N.ar    1  UNL1       -0.1416
      9 C          -3.4287    5.1985   23.9818 C.ar    1  UNL1        0.1333
     10 S          -2.1320    4.6972   23.4189 S.2     1  UNL1       -0.0604
     11 C          -2.4482    3.7158   22.3294 C.ar    1  UNL1        0.0971
     12 C          -3.9404    3.6107   22.2190 C.ar    1  UNL1        0.0538
     13 N          -4.6942    2.7417   21.2564 N.pl3   1  UNL1       -0.3564
     14 C          -4.5464    4.5271   23.2403 C.ar    1  UNL1        0.0363
     15 C          -5.9716    4.8368   23.5908 C.ar    1  UNL1       -0.0033
     16 C          -7.0893    4.1653   22.8492 C.3     1  UNL1        0.0324
     17 H          -4.2045    2.1716   20.6205 H       1  UNL1        0.1424
     18 H          -5.6787    2.7416   21.2605 H       1  UNL1        0.1424
     19 C           0.6299    1.4198   21.3275 C.3     1  UNL1        0.1113
     20 C           2.1099    1.5199   21.1053 C.3     1  UNL1        0.1121
     21 N           2.0446    0.3657   20.1496 N.pl3   1  UNL1       -0.3023
     22 C           0.5645    0.2655   20.3718 C.3     1  UNL1        0.1121
     23 C           3.0450   -0.3797   19.3167 C.ar    1  UNL1        0.0780
     24 C           3.3521    0.0811   17.9226 C.ar    1  UNL1        0.0170
     25 C           4.3525   -0.6642   17.0897 C.ar    1  UNL1        0.0037
     26 C           5.0457   -1.8703   17.6508 C.ar    1  UNL1        0.0321
     27 C           4.7385   -2.3311   19.0448 C.ar    1  UNL1        0.1686
     28 F           5.4316   -3.5372   19.6059 F       1  UNL1       -0.2018
     29 C           3.7381   -1.5858   19.8778 C.ar    1  UNL1        0.1805
     30 F           3.4309   -2.0466   21.2718 F       1  UNL1       -0.2005
@<TRIPOS>BOND
     1     5     6    1
     2     6     7   ar
     3     7     8   ar
     4     8     9   ar
     5     9    10   ar
     6    10    11   ar
     7    11     1    1
     8     1     2    2
     9     1     3   am
    10     3    19    1
    11    19    20    1
    12    20    21    1
    13    21    23    1
    14    23    24   ar
    15    24    25   ar
    16    25    26   ar
    17    26    27   ar
    18    27    28    1
    19    27    29   ar
    20    29    30    1
    21    21    22    1
    22    11    12   ar
    23    12    13    1
    24    12    14   ar
    25    14    15   ar
    26    15    16    1
    27    15     6   ar
    28    14     9   ar
    29    22    19    1
    30    29    23   ar
    31     3     4    1
    32    13    17    1
    33    13    18    1
@<TRIPOS>MOLECULE
*****
 30 33 0 0 0
SMALL
GASTEIGER

@<TRIPOS>ATOM
      1 C           3.7407   -0.3671   26.0504 C.2     1  UNL1        0.2532
      2 O           4.4346    0.9215   26.3792 O.2     1  UNL1       -0.2695
      3 N           3.1564   -1.2057   27.1483 N.am    1  UNL1       -0.2987
      4 H           2.7010   -2.0514   26.9325 H       1  UNL1        0.1498
      5 C           4.1948   -3.7497   18.9811 C.3     1  UNL1        0.0537
      6 C           3.7811   -2.8244   20.0868 C.ar    1  UNL1        0.0771
      7 N           2.7638   -1.7531   19.8272 N.ar    1  UNL1       -0.1522
      8 N           2.3501   -0.8278   20.9329 N.ar    1  UNL1       -0.1416
      9 C           2.9537   -0.9738   22.2983 C.ar    1  UNL1        0.1333
     10 S           2.7436   -0.2148   23.5750 S.2     1  UNL1       -0.0604
     11 C           3.6311   -0.8171   24.6237 C.ar    1  UNL1        0.0971
     12 C           4.3896   -1.9482   23.9952 C.ar    1  UNL1        0.0538
     13 N           5.3910   -2.8280   24.6830 N.pl3   1  UNL1       -0.3564
     14 C           3.9710   -2.0450   22.5580 C.ar    1  UNL1        0.0363
     15 C           4.3847   -2.9704   21.4522 C.ar    1  UNL1       -0.0033
     16 C           5.4020   -4.0417   21.7119 C.3     1  UNL1        0.0324
     17 H           5.6003   -2.6854   25.6343 H       1  UNL1        0.1424
     18 H           5.8391   -3.5481   24.1830 H       1  UNL1        0.1424
     19 C           3.2661   -0.7557   28.5750 C.3     1  UNL1        0.1113
     20 C           2.2884   -0.4834   29.6794 C.3     1  UNL1        0.1121
     21 N           3.4212   -0.1193   30.5926 N.pl3   1  UNL1       -0.3023
     22 C           4.3990   -0.3915   29.4882 C.3     1  UNL1        0.1121
     23 C           3.5309    0.3308   32.0193 C.ar    1  UNL1        0.0780
     24 C           3.0857    1.7097   32.4071 C.ar    1  UNL1        0.0170
     25 C           3.1954    2.1597   33.8338 C.ar    1  UNL1        0.0037
     26 C           3.7502    1.2308   34.8727 C.ar    1  UNL1        0.0321
     27 C           4.1954   -0.1481   34.4849 C.ar    1  UNL1        0.1686
     28 F           4.7502   -1.0770   35.5238 F       1  UNL1       -0.2018
     29 C           4.0857   -0.5981   33.0582 C.ar    1  UNL1        0.1805
     30 F           4.5309   -1.9771   32.6704 F       1  UNL1       -0.2005
@<TRIPOS>BOND
     1     5     6    1
     2     6     7   ar
     3     7     8   ar
     4     8     9   ar
     5     9    10   ar
     6    10    11   ar
     7    11     1    1
     8     1     2    2
     9     1     3   am
    10     3    19    1
    11    19    20    1
    12    20    21    1
    13    21    23    1
    14    23    24   ar
    15    24    25   ar
    16    25    26   ar
    17    26    27   ar
    18    27    28    1
    19    27    29   ar
    20    29    30    1
    21    21    22    1
    22    11    12   ar
    23    12    13    1
    24    12    14   ar
    25    14    15   ar
    26    15    16    1
    27    15     6   ar
    28    14     9   ar
    29    22    19    1
    30    29    23   ar
    31     3     4    1
    32    13    17    1
    33    13    18    1
