@<TRIPOS>MOLECULE
*****
 39 43 0 0 0
SMALL
GASTEIGER

@<TRIPOS>ATOM
      1 N          -0.7055    4.7309   20.5978 N.am    1  UNL1       -0.2995
      2 C          -1.0877    3.4319   21.2431 C.2     1  UNL1        0.2648
      3 O          -2.2709    2.6620   20.7360 O.2     1  UNL1       -0.2684
      4 H           0.0711    5.2362   20.9307 H       1  UNL1        0.1498
      5 C          -0.2866    2.9027   22.3957 C.ar    1  UNL1        0.1479
      6 N           1.0269    2.1847   22.3006 N.ar    1  UNL1       -0.2222
      7 C           1.4669    1.8369   23.6918 C.ar    1  UNL1        0.1475
      8 N           0.4253    2.3399   24.6467 N.ar    1  UNL1       -0.2938
      9 C          -0.6585    2.9986   23.8457 C.ar    1  UNL1        0.0651
     10 C          -1.8967    3.6404   24.3978 C.3     1  UNL1        0.0522
     11 C           2.7272    1.1132   24.0629 C.ar    1  UNL1        0.0345
     12 C           4.0604    1.7576   23.8236 C.ar    1  UNL1        0.0030
     13 C           5.3207    1.0338   24.1948 C.ar    1  UNL1        0.0001
     14 C           5.2478   -0.3344   24.8053 C.ar    1  UNL1        0.0000
     15 C           3.9146   -0.9789   25.0445 C.ar    1  UNL1        0.0001
     16 C           2.6543   -0.2551   24.6733 C.ar    1  UNL1        0.0030
     17 C           0.4610    2.2074   26.1404 C.ar    1  UNL1        0.0651
     18 C          -0.3964    1.1835   26.8234 C.ar    1  UNL1        0.0176
     19 C          -0.3607    1.0511   28.3171 C.ar    1  UNL1        0.0015
     20 C           0.5325    1.9426   29.1278 C.ar    1  UNL1        0.0001
     21 C           1.3900    2.9665   28.4449 C.ar    1  UNL1        0.0015
     22 C           1.3542    3.0990   26.9512 C.ar    1  UNL1        0.0176
     23 C          -1.5065    5.2601   19.4453 C.3     1  UNL1        0.0912
     24 C          -1.0292    5.0466   18.0394 C.3     1  UNL1        0.0386
     25 C           0.4298    4.8286   17.7676 C.3     1  UNL1        0.0739
     26 N           2.4287    1.0325   19.1252 N.pl3   1  UNL1       -0.3049
     27 C           1.0251    0.9937   18.5977 C.3     1  UNL1        0.1081
     28 C           0.3588    2.2591   18.1452 C.3     1  UNL1        0.0938
     29 N           1.0961    3.5633   18.2202 N.3     1  UNL1       -0.2697
     30 C           2.4998    3.6020   18.7477 C.3     1  UNL1        0.0938
     31 C           3.1661    2.3365   19.2002 C.3     1  UNL1        0.1081
     32 C           3.9845   -0.6262   17.1686 C.3     1  UNL1        0.0332
     33 C           3.8729   -1.0623   18.5995 C.ar    1  UNL1        0.0020
     34 C           4.5392   -2.3277   19.0520 C.ar    1  UNL1        0.0549
     35 CL          5.3171   -3.1571   18.0737 Cl      1  UNL1       -0.0825
     36 C           4.4276   -2.7637   20.4829 C.ar    1  UNL1        0.0112
     37 C           3.6497   -1.9344   21.4612 C.ar    1  UNL1        0.0021
     38 C           2.9835   -0.6691   21.0087 C.ar    1  UNL1        0.0143
     39 C           3.0951   -0.2330   19.5778 C.ar    1  UNL1        0.0447
@<TRIPOS>BOND
     1    32    33    1
     2    33    34   ar
     3    34    35    1
     4    34    36   ar
     5    36    37   ar
     6    37    38   ar
     7    38    39   ar
     8    39    26    1
     9    26    27    1
    10    27    28    1
    11    28    29    1
    12    29    25    1
    13    25    24    1
    14    24    23    1
    15    23     1    1
    16     1     2   am
    17     2     3    2
    18     2     5    1
    19     5     6   ar
    20     6     7   ar
    21     7    11    1
    22    11    12   ar
    23    12    13   ar
    24    13    14   ar
    25    14    15   ar
    26    15    16   ar
    27     7     8   ar
    28     8    17    1
    29    17    18   ar
    30    18    19   ar
    31    19    20   ar
    32    20    21   ar
    33    21    22   ar
    34     8     9   ar
    35     9    10    1
    36    29    30    1
    37    30    31    1
    38    39    33   ar
    39    31    26    1
    40     9     5   ar
    41    16    11   ar
    42    22    17   ar
    43     1     4    1
@<TRIPOS>MOLECULE
*****
 39 43 0 0 0
SMALL
GASTEIGER

@<TRIPOS>ATOM
      1 N           3.2424   -1.0150   26.8691 N.am    1  UNL1       -0.2995
      2 C           4.3915   -1.2130   25.9253 C.2     1  UNL1        0.2648
      3 O           5.7821   -1.3817   26.4616 O.2     1  UNL1       -0.2684
      4 H           2.3297   -0.9043   26.5170 H       1  UNL1        0.1498
      5 C           4.1497   -1.2425   24.4452 C.ar    1  UNL1        0.1479
      6 N           3.3591   -0.2378   23.6608 N.ar    1  UNL1       -0.2222
      7 C           3.3769   -0.6561   22.2204 C.ar    1  UNL1        0.1475
      8 N           4.1787   -1.9195   22.1146 N.ar    1  UNL1       -0.2938
      9 C           4.6563   -2.2819   23.4896 C.ar    1  UNL1        0.0651
     10 C           5.4935   -3.4743   23.8463 C.3     1  UNL1        0.0522
     11 C           2.7102    0.0626   21.0852 C.ar    1  UNL1        0.0345
     12 C           3.2594    1.3714   20.6002 C.ar    1  UNL1        0.0030
     13 C           2.5926    2.0901   19.4649 C.ar    1  UNL1        0.0001
     14 C           1.3765    1.4999   18.8146 C.ar    1  UNL1        0.0000
     15 C           0.8273    0.1910   19.2996 C.ar    1  UNL1        0.0001
     16 C           1.4941   -0.5276   20.4349 C.ar    1  UNL1        0.0030
     17 C           4.4544   -2.6859   20.8550 C.ar    1  UNL1        0.0651
     18 C           5.3390   -2.0963   19.7967 C.ar    1  UNL1        0.0176
     19 C           5.6147   -2.8627   18.5372 C.ar    1  UNL1        0.0015
     20 C           5.0058   -4.2187   18.3358 C.ar    1  UNL1        0.0001
     21 C           4.1212   -4.8083   19.3941 C.ar    1  UNL1        0.0015
     22 C           3.8455   -4.0418   20.6537 C.ar    1  UNL1        0.0176
     23 C           3.4842   -0.9855   28.3492 C.3     1  UNL1        0.0912
     24 C           2.4655   -0.3719   29.2634 C.3     1  UNL1        0.0386
     25 C           2.0696    1.0643   29.0888 C.3     1  UNL1        0.0739
     26 N           0.1191    2.4118   25.2640 N.pl3   1  UNL1       -0.3049
     27 C           1.4493    2.9759   25.6667 C.3     1  UNL1        0.1081
     28 C           2.0995    2.5268   26.9416 C.3     1  UNL1        0.0938
     29 N           1.4195    1.5134   27.8139 N.3     1  UNL1       -0.2697
     30 C           0.0892    0.9493   27.4112 C.3     1  UNL1        0.0938
     31 C          -0.5610    1.3985   26.1361 C.3     1  UNL1        0.1081
     32 C          -2.3379    4.1306   25.3576 C.3     1  UNL1        0.0332
     33 C          -1.7596    3.7203   24.0358 C.ar    1  UNL1        0.0020
     34 C          -2.4097    4.1694   22.7608 C.ar    1  UNL1        0.0549
     35 CL         -3.6382    5.0289   22.8076 Cl      1  UNL1       -0.0825
     36 C          -1.8313    3.7592   21.4390 C.ar    1  UNL1        0.0112
     37 C          -0.6028    2.8998   21.3922 C.ar    1  UNL1        0.0021
     38 C           0.0473    2.4507   22.6671 C.ar    1  UNL1        0.0143
     39 C          -0.5311    2.8609   23.9889 C.ar    1  UNL1        0.0447
@<TRIPOS>BOND
     1    32    33    1
     2    33    34   ar
     3    34    35    1
     4    34    36   ar
     5    36    37   ar
     6    37    38   ar
     7    38    39   ar
     8    39    26    1
     9    26    27    1
    10    27    28    1
    11    28    29    1
    12    29    25    1
    13    25    24    1
    14    24    23    1
    15    23     1    1
    16     1     2   am
    17     2     3    2
    18     2     5    1
    19     5     6   ar
    20     6     7   ar
    21     7    11    1
    22    11    12   ar
    23    12    13   ar
    24    13    14   ar
    25    14    15   ar
    26    15    16   ar
    27     7     8   ar
    28     8    17    1
    29    17    18   ar
    30    18    19   ar
    31    19    20   ar
    32    20    21   ar
    33    21    22   ar
    34     8     9   ar
    35     9    10    1
    36    29    30    1
    37    30    31    1
    38    39    33   ar
    39    31    26    1
    40     9     5   ar
    41    16    11   ar
    42    22    17   ar
    43     1     4    1
@<TRIPOS>MOLECULE
*****
 39 43 0 0 0
SMALL
GASTEIGER

@<TRIPOS>ATOM
      1 N          -3.0499    2.5953   20.8476 N.am    1  UNL1       -0.2995
      2 C          -1.7807    3.2094   20.3355 C.2     1  UNL1        0.2648
      3 O          -1.7832    4.6190   19.8227 O.2     1  UNL1       -0.2684
      4 H          -3.0483    1.6701   21.1842 H       1  UNL1        0.1498
      5 C          -0.5091    2.4138   20.3361 C.ar    1  UNL1        0.1479
      6 N           0.0154    1.5908   21.4752 N.ar    1  UNL1       -0.2222
      7 C           1.3100    0.9698   21.0409 C.ar    1  UNL1        0.1475
      8 N           1.5855    1.4090   19.6333 N.ar    1  UNL1       -0.2938
      9 C           0.4612    2.3014   19.1977 C.ar    1  UNL1        0.0651
     10 C           0.3303    2.9649   17.8589 C.3     1  UNL1        0.0522
     11 C           2.1768    0.0680   21.8687 C.ar    1  UNL1        0.0345
     12 C           2.3930    0.3636   23.3233 C.ar    1  UNL1        0.0030
     13 C           3.2599   -0.5382   24.1510 C.ar    1  UNL1        0.0001
     14 C           3.9105   -1.7357   23.5242 C.ar    1  UNL1        0.0000
     15 C           3.6942   -2.0313   22.0696 C.ar    1  UNL1        0.0001
     16 C           2.8274   -1.1294   21.2419 C.ar    1  UNL1        0.0030
     17 C           2.7761    1.0235   18.8065 C.ar    1  UNL1        0.0651
     18 C           2.6985   -0.1570   17.8844 C.ar    1  UNL1        0.0176
     19 C           3.8891   -0.5425   17.0575 C.ar    1  UNL1        0.0015
     20 C           5.1575    0.2525   17.1528 C.ar    1  UNL1        0.0001
     21 C           5.2352    1.4331   18.0750 C.ar    1  UNL1        0.0015
     22 C           4.0445    1.8186   18.9018 C.ar    1  UNL1        0.0176
     23 C          -4.3215    3.3909   20.8470 C.3     1  UNL1        0.0912
     24 C          -4.7952    4.0490   22.1089 C.3     1  UNL1        0.0386
     25 C          -3.8438    4.8669   22.9310 C.3     1  UNL1        0.0739
     26 N          -1.5689    2.9526   26.3089 N.pl3   1  UNL1       -0.3049
     27 C          -0.9384    3.0727   24.9532 C.3     1  UNL1        0.1081
     28 C          -1.6966    3.7108   23.8272 C.3     1  UNL1        0.0938
     29 N          -3.0855    4.2288   24.0569 N.3     1  UNL1       -0.2697
     30 C          -3.7161    4.1087   25.4126 C.3     1  UNL1        0.0938
     31 C          -2.9578    3.4706   26.5386 C.3     1  UNL1        0.1081
     32 C           0.2480    4.6126   28.0244 C.3     1  UNL1        0.0332
     33 C           0.0978    3.1444   28.2926 C.ar    1  UNL1        0.0020
     34 C           0.8561    2.5063   29.4185 C.ar    1  UNL1        0.0549
     35 CL          1.7646    3.3363   30.2763 Cl      1  UNL1       -0.0825
     36 C           0.7059    1.0381   29.6867 C.ar    1  UNL1        0.0112
     37 C          -0.2026    0.2081   28.8290 C.ar    1  UNL1        0.0021
     38 C          -0.9608    0.8463   27.7031 C.ar    1  UNL1        0.0143
     39 C          -0.8106    2.3144   27.4349 C.ar    1  UNL1        0.0447
@<TRIPOS>BOND
     1    32    33    1
     2    33    34   ar
     3    34    35    1
     4    34    36   ar
     5    36    37   ar
     6    37    38   ar
     7    38    39   ar
     8    39    26    1
     9    26    27    1
    10    27    28    1
    11    28    29    1
    12    29    25    1
    13    25    24    1
    14    24    23    1
    15    23     1    1
    16     1     2   am
    17     2     3    2
    18     2     5    1
    19     5     6   ar
    20     6     7   ar
    21     7    11    1
    22    11    12   ar
    23    12    13   ar
    24    13    14   ar
    25    14    15   ar
    26    15    16   ar
    27     7     8   ar
    28     8    17    1
    29    17    18   ar
    30    18    19   ar
    31    19    20   ar
    32    20    21   ar
    33    21    22   ar
    34     8     9   ar
    35     9    10    1
    36    29    30    1
    37    30    31    1
    38    39    33   ar
    39    31    26    1
    40     9     5   ar
    41    16    11   ar
    42    22    17   ar
    43     1     4    1
@<TRIPOS>MOLECULE
*****
 39 43 0 0 0
SMALL
GASTEIGER

@<TRIPOS>ATOM
      1 N           6.6012   -4.3468   24.7823 N.am    1  UNL1       -0.2995
      2 C           6.7590   -4.3246   23.2908 C.2     1  UNL1        0.2648
      3 O           7.6074   -5.3580   22.6109 O.2     1  UNL1       -0.2684
      4 H           6.0443   -3.6685   25.2286 H       1  UNL1        0.1498
      5 C           6.0683   -3.2690   22.4791 C.ar    1  UNL1        0.1479
      6 N           4.6641   -2.7811   22.6791 N.ar    1  UNL1       -0.2222
      7 C           4.3886   -1.7265   21.6486 C.ar    1  UNL1        0.1475
      8 N           5.6226   -1.5626   20.8117 N.ar    1  UNL1       -0.2938
      9 C           6.6608   -2.5159   21.3250 C.ar    1  UNL1        0.0651
     10 C           8.0477   -2.6862   20.7799 C.3     1  UNL1        0.0522
     11 C           3.1046   -0.9688   21.4839 C.ar    1  UNL1        0.0345
     12 C           2.2503   -1.1952   20.2719 C.ar    1  UNL1        0.0030
     13 C           0.9663   -0.4375   20.1072 C.ar    1  UNL1        0.0001
     14 C           0.5365    0.5466   21.1545 C.ar    1  UNL1        0.0000
     15 C           1.3908    0.7730   22.3665 C.ar    1  UNL1        0.0001
     16 C           2.6748    0.0153   22.5312 C.ar    1  UNL1        0.0030
     17 C           5.7892   -0.6123   19.6632 C.ar    1  UNL1        0.0651
     18 C           6.0863    0.8347   19.9240 C.ar    1  UNL1        0.0176
     19 C           6.2529    1.7851   18.7755 C.ar    1  UNL1        0.0015
     20 C           6.1224    1.2884   17.3662 C.ar    1  UNL1        0.0001
     21 C           5.8254   -0.1586   17.1053 C.ar    1  UNL1        0.0015
     22 C           5.6588   -1.1089   18.2539 C.ar    1  UNL1        0.0176
     23 C           7.2918   -5.4024   25.5939 C.3     1  UNL1        0.0912
     24 C           6.6298   -5.9590   26.8194 C.3     1  UNL1        0.0386
     25 C           7.3905   -6.0447   28.1094 C.3     1  UNL1        0.0739
     26 N           6.3605   -3.2912   31.5163 N.pl3   1  UNL1       -0.3049
     27 C           6.7719   -4.7067   31.7941 C.3     1  UNL1        0.1081
     28 C           7.1152   -5.6245   30.6585 C.3     1  UNL1        0.0938
     29 N           7.0472   -5.1269   29.2450 N.3     1  UNL1       -0.2697
     30 C           6.6358   -3.7114   28.9672 C.3     1  UNL1        0.0938
     31 C           6.2924   -2.7936   30.1029 C.3     1  UNL1        0.1081
     32 C           8.4493   -1.4597   32.6489 C.3     1  UNL1        0.0332
     33 C           7.0615   -1.4576   33.2183 C.ar    1  UNL1        0.0020
     34 C           6.7181   -0.5398   34.3539 C.ar    1  UNL1        0.0549
     35 CL          7.7625    0.3759   34.9203 Cl      1  UNL1       -0.0825
     36 C           5.3304   -0.5378   34.9233 C.ar    1  UNL1        0.0112
     37 C           4.2860   -1.4535   34.3570 C.ar    1  UNL1        0.0021
     38 C           4.6294   -2.3713   33.2214 C.ar    1  UNL1        0.0143
     39 C           6.0171   -2.3733   32.6520 C.ar    1  UNL1        0.0447
@<TRIPOS>BOND
     1    32    33    1
     2    33    34   ar
     3    34    35    1
     4    34    36   ar
     5    36    37   ar
     6    37    38   ar
     7    38    39   ar
     8    39    26    1
     9    26    27    1
    10    27    28    1
    11    28    29    1
    12    29    25    1
    13    25    24    1
    14    24    23    1
    15    23     1    1
    16     1     2   am
    17     2     3    2
    18     2     5    1
    19     5     6   ar
    20     6     7   ar
    21     7    11    1
    22    11    12   ar
    23    12    13   ar
    24    13    14   ar
    25    14    15   ar
    26    15    16   ar
    27     7     8   ar
    28     8    17    1
    29    17    18   ar
    30    18    19   ar
    31    19    20   ar
    32    20    21   ar
    33    21    22   ar
    34     8     9   ar
    35     9    10    1
    36    29    30    1
    37    30    31    1
    38    39    33   ar
    39    31    26    1
    40     9     5   ar
    41    16    11   ar
    42    22    17   ar
    43     1     4    1
@<TRIPOS>MOLECULE
*****
 39 43 0 0 0
SMALL
GASTEIGER

@<TRIPOS>ATOM
      1 N           5.6901   -2.3767   31.7589 N.am    1  UNL1       -0.2995
      2 C           4.3917   -2.0065   32.4125 C.2     1  UNL1        0.2648
      3 O           3.9206   -2.7567   33.6230 O.2     1  UNL1       -0.2684
      4 H           5.9992   -1.8843   30.9644 H       1  UNL1        0.1498
      5 C           3.5643   -0.8861   31.8556 C.ar    1  UNL1        0.1479
      6 N           2.8274   -0.8992   30.5492 N.ar    1  UNL1       -0.2222
      7 C           2.1362    0.4229   30.3935 C.ar    1  UNL1        0.1475
      8 N           2.4460    1.2532   31.6037 N.ar    1  UNL1       -0.2938
      9 C           3.3286    0.4443   32.5074 C.ar    1  UNL1        0.0651
     10 C           3.8788    0.8877   33.8304 C.3     1  UNL1        0.0522
     11 C           1.2849    0.8414   29.2316 C.ar    1  UNL1        0.0345
     12 C           1.8350    1.7785   28.1977 C.ar    1  UNL1        0.0030
     13 C           0.9835    2.1969   27.0358 C.ar    1  UNL1        0.0001
     14 C          -0.4181    1.6782   26.9079 C.ar    1  UNL1        0.0000
     15 C          -0.9682    0.7410   27.9418 C.ar    1  UNL1        0.0001
     16 C          -0.1168    0.3226   29.1037 C.ar    1  UNL1        0.0030
     17 C           1.9588    2.6477   31.8645 C.ar    1  UNL1        0.0651
     18 C           2.9282    3.7923   31.8696 C.ar    1  UNL1        0.0176
     19 C           2.4410    5.1868   32.1304 C.ar    1  UNL1        0.0015
     20 C           0.9843    5.4366   32.3862 C.ar    1  UNL1        0.0001
     21 C           0.0148    4.2920   32.3811 C.ar    1  UNL1        0.0015
     22 C           0.5020    2.8976   32.1203 C.ar    1  UNL1        0.0176
     23 C           6.5174   -3.4971   32.3158 C.3     1  UNL1        0.0912
     24 C           7.9984   -3.5250   32.0796 C.3     1  UNL1        0.0386
     25 C           8.5369   -3.9367   30.7415 C.3     1  UNL1        0.0739
     26 N           6.3388   -2.7970   26.9840 N.pl3   1  UNL1       -0.3049
     27 C           6.0831   -4.1272   27.6282 C.3     1  UNL1        0.1081
     28 C           6.8158   -4.5071   28.8807 C.3     1  UNL1        0.0938
     29 N           7.8042   -3.5568   29.4890 N.3     1  UNL1       -0.2697
     30 C           8.0599   -2.2266   28.8448 C.3     1  UNL1        0.0938
     31 C           7.3271   -1.8466   27.5922 C.3     1  UNL1        0.1081
     32 C           4.0484   -0.8637   27.1137 C.3     1  UNL1        0.0332
     33 C           4.4609   -1.4505   25.7963 C.ar    1  UNL1        0.0020
     34 C           3.7282   -1.0706   24.5438 C.ar    1  UNL1        0.0549
     35 CL          2.5830   -0.1039   24.6086 Cl      1  UNL1       -0.0825
     36 C           4.1407   -1.6574   23.2264 C.ar    1  UNL1        0.0112
     37 C           5.2858   -2.6240   23.1615 C.ar    1  UNL1        0.0021
     38 C           6.0185   -3.0038   24.4140 C.ar    1  UNL1        0.0143
     39 C           5.6060   -2.4171   25.7314 C.ar    1  UNL1        0.0447
@<TRIPOS>BOND
     1    32    33    1
     2    33    34   ar
     3    34    35    1
     4    34    36   ar
     5    36    37   ar
     6    37    38   ar
     7    38    39   ar
     8    39    26    1
     9    26    27    1
    10    27    28    1
    11    28    29    1
    12    29    25    1
    13    25    24    1
    14    24    23    1
    15    23     1    1
    16     1     2   am
    17     2     3    2
    18     2     5    1
    19     5     6   ar
    20     6     7   ar
    21     7    11    1
    22    11    12   ar
    23    12    13   ar
    24    13    14   ar
    25    14    15   ar
    26    15    16   ar
    27     7     8   ar
    28     8    17    1
    29    17    18   ar
    30    18    19   ar
    31    19    20   ar
    32    20    21   ar
    33    21    22   ar
    34     8     9   ar
    35     9    10    1
    36    29    30    1
    37    30    31    1
    38    39    33   ar
    39    31    26    1
    40     9     5   ar
    41    16    11   ar
    42    22    17   ar
    43     1     4    1
@<TRIPOS>MOLECULE
*****
 39 43 0 0 0
SMALL
GASTEIGER

@<TRIPOS>ATOM
      1 N           5.7311   -3.5374   27.2345 N.am    1  UNL1       -0.2995
      2 C           5.6150   -2.0440   27.3156 C.2     1  UNL1        0.2648
      3 O           6.2879   -1.2989   28.4300 O.2     1  UNL1       -0.2684
      4 H           5.2894   -4.0264   26.5030 H       1  UNL1        0.1498
      5 C           4.8260   -1.2959   26.2823 C.ar    1  UNL1        0.1479
      6 N           4.9603   -1.4402   24.7953 N.ar    1  UNL1       -0.2222
      7 C           3.9815   -0.5056   24.1485 C.ar    1  UNL1        0.1475
      8 N           3.2421    0.2164   25.2358 N.ar    1  UNL1       -0.2938
      9 C           3.7640   -0.2720   26.5546 C.ar    1  UNL1        0.0651
     10 C           3.3047    0.1834   27.9078 C.3     1  UNL1        0.0522
     11 C           3.7777   -0.3246   22.6735 C.ar    1  UNL1        0.0345
     12 C           2.4630   -0.6856   22.0481 C.ar    1  UNL1        0.0030
     13 C           2.2593   -0.5047   20.5731 C.ar    1  UNL1        0.0001
     14 C           3.3703    0.0373   19.7235 C.ar    1  UNL1        0.0000
     15 C           4.6851    0.3983   20.3488 C.ar    1  UNL1        0.0001
     16 C           4.8888    0.2174   21.8239 C.ar    1  UNL1        0.0030
     17 C           2.1692    1.2460   25.0389 C.ar    1  UNL1        0.0651
     18 C           2.5182    2.5971   24.4885 C.ar    1  UNL1        0.0176
     19 C           1.4453    3.6267   24.2917 C.ar    1  UNL1        0.0015
     20 C           0.0234    3.3052   24.6452 C.ar    1  UNL1        0.0001
     21 C          -0.3255    1.9542   25.1955 C.ar    1  UNL1        0.0015
     22 C           0.7474    0.9246   25.3924 C.ar    1  UNL1        0.0176
     23 C           6.5201   -4.2855   28.2678 C.3     1  UNL1        0.0912
     24 C           7.8735   -4.8344   27.9257 C.3     1  UNL1        0.0386
     25 C           8.7641   -4.0939   26.9726 C.3     1  UNL1        0.0739
     26 N           7.4228   -3.3727   22.7382 N.pl3   1  UNL1       -0.3049
     27 C           7.9411   -2.2336   23.5650 C.3     1  UNL1        0.1081
     28 C           8.3882   -2.4739   24.9765 C.3     1  UNL1        0.0938
     29 N           8.3170   -3.8535   25.5612 N.3     1  UNL1       -0.2697
     30 C           7.7986   -4.9926   24.7343 C.3     1  UNL1        0.0938
     31 C           7.3515   -4.7522   23.3228 C.3     1  UNL1        0.1081
     32 C           4.5779   -3.9119   21.9534 C.3     1  UNL1        0.0332
     33 C           5.5532   -3.4019   20.9343 C.ar    1  UNL1        0.0020
     34 C           5.1062   -3.1615   19.5228 C.ar    1  UNL1        0.0549
     35 CL          3.6837   -3.4311   19.1304 Cl      1  UNL1       -0.0825
     36 C           6.0815   -2.6515   18.5037 C.ar    1  UNL1        0.0112
     37 C           7.5039   -2.3819   18.8961 C.ar    1  UNL1        0.0021
     38 C           7.9510   -2.6223   20.3075 C.ar    1  UNL1        0.0143
     39 C           6.9756   -3.1323   21.3266 C.ar    1  UNL1        0.0447
@<TRIPOS>BOND
     1    32    33    1
     2    33    34   ar
     3    34    35    1
     4    34    36   ar
     5    36    37   ar
     6    37    38   ar
     7    38    39   ar
     8    39    26    1
     9    26    27    1
    10    27    28    1
    11    28    29    1
    12    29    25    1
    13    25    24    1
    14    24    23    1
    15    23     1    1
    16     1     2   am
    17     2     3    2
    18     2     5    1
    19     5     6   ar
    20     6     7   ar
    21     7    11    1
    22    11    12   ar
    23    12    13   ar
    24    13    14   ar
    25    14    15   ar
    26    15    16   ar
    27     7     8   ar
    28     8    17    1
    29    17    18   ar
    30    18    19   ar
    31    19    20   ar
    32    20    21   ar
    33    21    22   ar
    34     8     9   ar
    35     9    10    1
    36    29    30    1
    37    30    31    1
    38    39    33   ar
    39    31    26    1
    40     9     5   ar
    41    16    11   ar
    42    22    17   ar
    43     1     4    1
@<TRIPOS>MOLECULE
*****
 39 43 0 0 0
SMALL
GASTEIGER

@<TRIPOS>ATOM
      1 N           0.4612    0.7139   25.1507 N.am    1  UNL1       -0.2995
      2 C           1.3882    1.1858   24.0699 C.2     1  UNL1        0.2648
      3 O           1.2550    2.5755   23.5216 O.2     1  UNL1       -0.2684
      4 H           0.5486   -0.1983   25.5106 H       1  UNL1        0.1498
      5 C           2.4483    0.2678   23.5375 C.ar    1  UNL1        0.1479
      6 N           3.5582   -0.3526   24.3332 N.ar    1  UNL1       -0.2222
      7 C           4.3806   -1.1948   23.4034 C.ar    1  UNL1        0.1475
      8 N           3.7789   -1.0949   22.0330 N.ar    1  UNL1       -0.2938
      9 C           2.5847   -0.1909   22.1158 C.ar    1  UNL1        0.0651
     10 C           1.6849    0.1877   20.9771 C.3     1  UNL1        0.0522
     11 C           5.5919   -1.9961   23.7782 C.ar    1  UNL1        0.0345
     12 C           6.8527   -1.2990   24.1956 C.ar    1  UNL1        0.0030
     13 C           8.0640   -2.1004   24.5703 C.ar    1  UNL1        0.0001
     14 C           8.0144   -3.5990   24.5276 C.ar    1  UNL1        0.0000
     15 C           6.7536   -4.2962   24.1101 C.ar    1  UNL1        0.0001
     16 C           5.5423   -3.4947   23.7354 C.ar    1  UNL1        0.0030
     17 C           4.2829   -1.7788   20.7968 C.ar    1  UNL1        0.0651
     18 C           5.4308   -1.1919   20.0301 C.ar    1  UNL1        0.0176
     19 C           5.9348   -1.8758   18.7939 C.ar    1  UNL1        0.0015
     20 C           5.2909   -3.1466   18.3244 C.ar    1  UNL1        0.0001
     21 C           4.1429   -3.7334   19.0911 C.ar    1  UNL1        0.0015
     22 C           3.6389   -3.0495   20.3273 C.ar    1  UNL1        0.0176
     23 C          -0.5990    1.6318   25.6831 C.3     1  UNL1        0.0912
     24 C          -0.4484    2.2412   27.0454 C.3     1  UNL1        0.0386
     25 C           0.9064    2.6608   27.5337 C.3     1  UNL1        0.0739
     26 N           4.0536   -0.4424   28.3798 N.pl3   1  UNL1       -0.3049
     27 C           2.6289   -0.6910   28.7780 C.3     1  UNL1        0.1081
     28 C           1.5799    0.3433   28.4959 C.3     1  UNL1        0.0938
     29 N           1.9555    1.6264   27.8157 N.3     1  UNL1       -0.2697
     30 C           3.3801    1.8751   27.4176 C.3     1  UNL1        0.0938
     31 C           4.4292    0.8407   27.6996 C.3     1  UNL1        0.1081
     32 C           5.2569   -0.6502   31.1201 C.3     1  UNL1        0.0332
     33 C           5.7043   -1.5807   30.0319 C.ar    1  UNL1        0.0020
     34 C           6.7533   -2.6151   30.3139 C.ar    1  UNL1        0.0549
     35 CL          7.3549   -2.7190   31.6841 Cl      1  UNL1       -0.0825
     36 C           7.2007   -3.5456   29.2258 C.ar    1  UNL1        0.0112
     37 C           6.5991   -3.4417   27.8557 C.ar    1  UNL1        0.0021
     38 C           5.5501   -2.4073   27.5737 C.ar    1  UNL1        0.0143
     39 C           5.1027   -1.4768   28.6618 C.ar    1  UNL1        0.0447
@<TRIPOS>BOND
     1    32    33    1
     2    33    34   ar
     3    34    35    1
     4    34    36   ar
     5    36    37   ar
     6    37    38   ar
     7    38    39   ar
     8    39    26    1
     9    26    27    1
    10    27    28    1
    11    28    29    1
    12    29    25    1
    13    25    24    1
    14    24    23    1
    15    23     1    1
    16     1     2   am
    17     2     3    2
    18     2     5    1
    19     5     6   ar
    20     6     7   ar
    21     7    11    1
    22    11    12   ar
    23    12    13   ar
    24    13    14   ar
    25    14    15   ar
    26    15    16   ar
    27     7     8   ar
    28     8    17    1
    29    17    18   ar
    30    18    19   ar
    31    19    20   ar
    32    20    21   ar
    33    21    22   ar
    34     8     9   ar
    35     9    10    1
    36    29    30    1
    37    30    31    1
    38    39    33   ar
    39    31    26    1
    40     9     5   ar
    41    16    11   ar
    42    22    17   ar
    43     1     4    1
@<TRIPOS>MOLECULE
*****
 39 43 0 0 0
SMALL
GASTEIGER

@<TRIPOS>ATOM
      1 N           5.7210   -3.1948   25.2178 N.am    1  UNL1       -0.2995
      2 C           5.7211   -1.7066   25.4059 C.2     1  UNL1        0.2648
      3 O           6.8371   -1.0460   26.1597 O.2     1  UNL1       -0.2684
      4 H           4.9885   -3.6283   24.7230 H       1  UNL1        0.1498
      5 C           4.6052   -0.8790   24.8403 C.ar    1  UNL1        0.1479
      6 N           4.2011   -0.8121   23.3973 N.ar    1  UNL1       -0.2222
      7 C           3.0437    0.1352   23.2836 C.ar    1  UNL1        0.1475
      8 N           2.7325    0.6538   24.6562 N.ar    1  UNL1       -0.2938
      9 C           3.6976    0.0270   25.6184 C.ar    1  UNL1        0.0651
     10 C           3.7464    0.2644   27.0986 C.3     1  UNL1        0.0522
     11 C           2.3238    0.5000   22.0192 C.ar    1  UNL1        0.0345
     12 C           2.1107    1.9423   21.6668 C.ar    1  UNL1        0.0030
     13 C           1.3909    2.3070   20.4024 C.ar    1  UNL1        0.0001
     14 C           0.8840    1.2293   19.4904 C.ar    1  UNL1        0.0000
     15 C           1.0971   -0.2130   19.8427 C.ar    1  UNL1        0.0001
     16 C           1.8170   -0.5777   21.1072 C.ar    1  UNL1        0.0030
     17 C           1.6468    1.6281   25.0055 C.ar    1  UNL1        0.0651
     18 C           1.9859    3.0644   25.2740 C.ar    1  UNL1        0.0176
     19 C           0.9002    4.0388   25.6233 C.ar    1  UNL1        0.0015
     20 C          -0.5246    3.5768   25.7041 C.ar    1  UNL1        0.0001
     21 C          -0.8637    2.1405   25.4356 C.ar    1  UNL1        0.0015
     22 C           0.2220    1.1661   25.0863 C.ar    1  UNL1        0.0176
     23 C           6.8369   -4.0224   25.7834 C.3     1  UNL1        0.0912
     24 C           7.9007   -4.5669   24.8769 C.3     1  UNL1        0.0386
     25 C           7.5348   -5.0849   23.5176 C.3     1  UNL1        0.0739
     26 N           5.7081   -2.3202   20.4729 N.pl3   1  UNL1       -0.3049
     27 C           4.8323   -3.2374   21.2741 C.3     1  UNL1        0.1081
     28 C           5.4412   -4.1589   22.2889 C.3     1  UNL1        0.0938
     29 N           6.9259   -4.1633   22.5027 N.3     1  UNL1       -0.2697
     30 C           7.8017   -3.2462   21.7016 C.3     1  UNL1        0.0938
     31 C           7.1927   -2.3246   20.6866 C.3     1  UNL1        0.1081
     32 C           5.8742    0.6509   20.8539 C.3     1  UNL1        0.0332
     33 C           5.1822    0.0868   19.6485 C.ar    1  UNL1        0.0020
     34 C           4.5733    1.0083   18.6336 C.ar    1  UNL1        0.0549
     35 CL          4.6563    2.4939   18.8241 Cl      1  UNL1       -0.0825
     36 C           3.8812    0.4443   17.4282 C.ar    1  UNL1        0.0112
     37 C           3.7981   -1.0412   17.2377 C.ar    1  UNL1        0.0021
     38 C           4.4071   -1.9627   18.2526 C.ar    1  UNL1        0.0143
     39 C           5.0991   -1.3987   19.4580 C.ar    1  UNL1        0.0447
@<TRIPOS>BOND
     1    32    33    1
     2    33    34   ar
     3    34    35    1
     4    34    36   ar
     5    36    37   ar
     6    37    38   ar
     7    38    39   ar
     8    39    26    1
     9    26    27    1
    10    27    28    1
    11    28    29    1
    12    29    25    1
    13    25    24    1
    14    24    23    1
    15    23     1    1
    16     1     2   am
    17     2     3    2
    18     2     5    1
    19     5     6   ar
    20     6     7   ar
    21     7    11    1
    22    11    12   ar
    23    12    13   ar
    24    13    14   ar
    25    14    15   ar
    26    15    16   ar
    27     7     8   ar
    28     8    17    1
    29    17    18   ar
    30    18    19   ar
    31    19    20   ar
    32    20    21   ar
    33    21    22   ar
    34     8     9   ar
    35     9    10    1
    36    29    30    1
    37    30    31    1
    38    39    33   ar
    39    31    26    1
    40     9     5   ar
    41    16    11   ar
    42    22    17   ar
    43     1     4    1
@<TRIPOS>MOLECULE
*****
 39 43 0 0 0
SMALL
GASTEIGER

@<TRIPOS>ATOM
      1 N          -2.4648    2.7805   20.7886 N.am    1  UNL1       -0.2995
      2 C          -1.0867    3.0395   20.2557 C.2     1  UNL1        0.2648
      3 O          -0.8757    4.0798   19.1959 O.2     1  UNL1       -0.2684
      4 H          -2.6033    2.0977   21.4842 H       1  UNL1        0.1498
      5 C           0.0802    2.2583   20.7828 C.ar    1  UNL1        0.1479
      6 N           0.5394    2.2141   22.2101 N.ar    1  UNL1       -0.2222
      7 C           1.7359    1.3126   22.2845 C.ar    1  UNL1        0.1475
      8 N           2.0163    0.7995   20.9032 N.ar    1  UNL1       -0.2938
      9 C           0.9931    1.3839   19.9750 C.ar    1  UNL1        0.0651
     10 C           0.8991    1.1374   18.4984 C.3     1  UNL1        0.0522
     11 C           2.5152    0.9821   23.5228 C.ar    1  UNL1        0.0345
     12 C           2.9997    2.0821   24.4200 C.ar    1  UNL1        0.0030
     13 C           3.7790    1.7516   25.6583 C.ar    1  UNL1        0.0001
     14 C           4.0738    0.3209   25.9993 C.ar    1  UNL1        0.0000
     15 C           3.5893   -0.7792   25.1021 C.ar    1  UNL1        0.0001
     16 C           2.8100   -0.4486   23.8638 C.ar    1  UNL1        0.0030
     17 C           3.1252   -0.1341   20.5176 C.ar    1  UNL1        0.0651
     18 C           2.8254   -1.5745   20.2252 C.ar    1  UNL1        0.0176
     19 C           3.9343   -2.5081   19.8397 C.ar    1  UNL1        0.0015
     20 C           5.3430   -2.0014   19.7464 C.ar    1  UNL1        0.0001
     21 C           5.6428   -0.5610   20.0388 C.ar    1  UNL1        0.0015
     22 C           4.5339    0.3726   20.4244 C.ar    1  UNL1        0.0176
     23 C          -3.6318    3.5617   20.2615 C.3     1  UNL1        0.0912
     24 C          -4.2536    4.6388   21.1002 C.3     1  UNL1        0.0386
     25 C          -3.3827    5.5809   21.8773 C.3     1  UNL1        0.0739
     26 N          -1.1762    4.1210   25.5174 N.pl3   1  UNL1       -0.3049
     27 C          -0.4429    4.8757   24.4484 C.3     1  UNL1        0.1081
     28 C          -1.1784    5.3623   23.2350 C.3     1  UNL1        0.0938
     29 N          -2.6472    5.0943   23.0907 N.3     1  UNL1       -0.2697
     30 C          -3.3805    4.3396   24.1597 C.3     1  UNL1        0.0938
     31 C          -2.6449    3.8529   25.3730 C.3     1  UNL1        0.1081
     32 C          -0.3004    1.2570   25.6923 C.3     1  UNL1        0.0332
     33 C          -0.0027    2.2024   26.8182 C.ar    1  UNL1        0.0020
     34 C           0.7328    1.7159   28.0315 C.ar    1  UNL1        0.0549
     35 CL          1.1707    0.2838   28.1190 Cl      1  UNL1       -0.0825
     36 C           1.0305    2.6613   29.1574 C.ar    1  UNL1        0.0112
     37 C           0.5926    4.0932   29.0700 C.ar    1  UNL1        0.0021
     38 C          -0.1429    4.5798   27.8566 C.ar    1  UNL1        0.0143
     39 C          -0.4406    3.6344   26.7307 C.ar    1  UNL1        0.0447
@<TRIPOS>BOND
     1    32    33    1
     2    33    34   ar
     3    34    35    1
     4    34    36   ar
     5    36    37   ar
     6    37    38   ar
     7    38    39   ar
     8    39    26    1
     9    26    27    1
    10    27    28    1
    11    28    29    1
    12    29    25    1
    13    25    24    1
    14    24    23    1
    15    23     1    1
    16     1     2   am
    17     2     3    2
    18     2     5    1
    19     5     6   ar
    20     6     7   ar
    21     7    11    1
    22    11    12   ar
    23    12    13   ar
    24    13    14   ar
    25    14    15   ar
    26    15    16   ar
    27     7     8   ar
    28     8    17    1
    29    17    18   ar
    30    18    19   ar
    31    19    20   ar
    32    20    21   ar
    33    21    22   ar
    34     8     9   ar
    35     9    10    1
    36    29    30    1
    37    30    31    1
    38    39    33   ar
    39    31    26    1
    40     9     5   ar
    41    16    11   ar
    42    22    17   ar
    43     1     4    1
