@<TRIPOS>MOLECULE
*****
 24 26 0 0 0
SMALL
GASTEIGER

@<TRIPOS>ATOM
      1 C          -9.2048  -20.4930   23.8146 C.3     1  UNL1        0.0285
      2 C          -9.0217  -19.5533   22.6598 C.2     1  UNL1       -0.0154
      3 C          -7.7658  -19.3742   21.8595 C.2     1  UNL1       -0.0046
      4 C          -8.0303  -18.3380   20.8077 C.2     1  UNL1        0.0895
      5 N          -9.4497  -17.8766   20.9580 N.2     1  UNL1       -0.2578
      6 C         -10.0624  -18.6278   22.1027 C.3     1  UNL1        0.1970
      7 C         -11.4689  -18.4795   22.6026 C.2     1  UNL1        0.2487
      8 O         -12.5784  -18.1740   21.6406 O.2     1  UNL1       -0.2727
      9 N         -11.7658  -18.6366   24.0645 N.am    1  UNL1       -0.3041
     10 H         -11.0375  -18.8371   24.6959 H       1  UNL1        0.1494
     11 C         -13.1722  -18.4883   24.5644 C.3     1  UNL1        0.0717
     12 C         -14.1523  -18.4723   25.6998 C.3     1  UNL1        0.0213
     13 C         -14.6280  -18.2474   24.2951 C.3     1  UNL1        0.0213
     14 C          -6.4725  -20.1033   22.0733 C.3     1  UNL1        0.0552
     15 C          -5.1754  -19.4610   21.6795 C.ar    1  UNL1        0.0014
     16 C          -4.4929  -19.8679   20.4073 C.ar    1  UNL1       -0.0009
     17 C          -3.1958  -19.2256   20.0135 C.ar    1  UNL1        0.0228
     18 C          -2.5813  -18.1764   20.8919 C.ar    1  UNL1        0.1526
     19 N          -3.2638  -17.7696   22.1642 N.ar    1  UNL1       -0.2402
     20 C          -4.5609  -18.4119   22.5579 C.ar    1  UNL1        0.0948
     21 C          -1.2842  -17.5341   20.4981 C.3     1  UNL1        0.4348
     22 F           0.0129  -16.8919   20.1043 F       1  UNL1       -0.1644
     23 F          -1.6965  -16.2727   21.1972 F       1  UNL1       -0.1644
     24 F          -0.8719  -18.7955   19.7989 F       1  UNL1       -0.1644
@<TRIPOS>BOND
     1     1     2    1
     2     2     3    2
     3     3    14    1
     4    14    15    1
     5    15    16   ar
     6    16    17   ar
     7    17    18   ar
     8    18    21    1
     9    21    22    1
    10    21    23    1
    11    21    24    1
    12    18    19   ar
    13    19    20   ar
    14     3     4    1
    15     4     5    2
    16     5     6    1
    17     6     7    1
    18     7     8    2
    19     7     9   am
    20     9    11    1
    21    11    12    1
    22    12    13    1
    23     6     2    1
    24    13    11    1
    25    20    15   ar
    26     9    10    1
@<TRIPOS>MOLECULE
*****
 24 26 0 0 0
SMALL
GASTEIGER

@<TRIPOS>ATOM
      1 C          -4.9848  -18.1849   22.9409 C.3     1  UNL1        0.0285
      2 C          -5.2288  -19.2718   21.9364 C.2     1  UNL1       -0.0154
      3 C          -6.5297  -19.9814   21.7036 C.2     1  UNL1       -0.0046
      4 C          -6.3196  -20.9881   20.6116 C.2     1  UNL1        0.0895
      5 N          -4.8890  -20.9006   20.1694 N.2     1  UNL1       -0.2578
      6 C          -4.2148  -19.8399   20.9882 C.3     1  UNL1        0.1970
      7 C          -2.7787  -19.4208   20.8781 C.2     1  UNL1        0.2487
      8 O          -1.7036  -20.2547   21.5096 O.2     1  UNL1       -0.2727
      9 N          -2.4178  -18.1678   20.1366 N.am    1  UNL1       -0.3041
     10 H          -3.1234  -17.6205   19.7222 H       1  UNL1        0.1494
     11 C          -0.9817  -17.7487   20.0265 C.3     1  UNL1        0.0717
     12 C           0.0704  -16.6828   20.1098 C.3     1  UNL1        0.0213
     13 C           0.4533  -18.0884   19.7525 C.3     1  UNL1        0.0213
     14 C          -7.8149  -19.7287   22.4345 C.3     1  UNL1        0.0552
     15 C          -8.8550  -18.8298   21.8341 C.ar    1  UNL1        0.0014
     16 C         -10.0061  -19.4182   21.0735 C.ar    1  UNL1       -0.0009
     17 C         -11.0461  -18.5193   20.4732 C.ar    1  UNL1        0.0228
     18 C         -10.9349  -17.0320   20.6335 C.ar    1  UNL1        0.1526
     19 N          -9.7838  -16.4437   21.3942 N.ar    1  UNL1       -0.2402
     20 C          -8.7438  -17.3426   21.9945 C.ar    1  UNL1        0.0948
     21 C         -11.9750  -16.1331   20.0332 C.3     1  UNL1        0.4348
     22 F         -13.0149  -15.2343   19.4328 F       1  UNL1       -0.1644
     23 F         -13.0248  -16.7748   20.8911 F       1  UNL1       -0.1644
     24 F         -10.9251  -15.4915   19.1753 F       1  UNL1       -0.1644
@<TRIPOS>BOND
     1     1     2    1
     2     2     3    2
     3     3    14    1
     4    14    15    1
     5    15    16   ar
     6    16    17   ar
     7    17    18   ar
     8    18    21    1
     9    21    22    1
    10    21    23    1
    11    21    24    1
    12    18    19   ar
    13    19    20   ar
    14     3     4    1
    15     4     5    2
    16     5     6    1
    17     6     7    1
    18     7     8    2
    19     7     9   am
    20     9    11    1
    21    11    12    1
    22    12    13    1
    23     6     2    1
    24    13    11    1
    25    20    15   ar
    26     9    10    1
@<TRIPOS>MOLECULE
*****
 24 26 0 0 0
SMALL
GASTEIGER

@<TRIPOS>ATOM
      1 C          -7.3054  -19.0114   22.7071 C.3     1  UNL1        0.0285
      2 C          -7.6716  -19.2630   21.2744 C.2     1  UNL1       -0.0154
      3 C          -6.8565  -20.0332   20.2782 C.2     1  UNL1       -0.0046
      4 C          -7.5984  -20.0347   18.9745 C.2     1  UNL1        0.0895
      5 N          -8.8720  -19.2655   19.1650 N.2     1  UNL1       -0.2578
      6 C          -8.9172  -18.7885   20.5864 C.3     1  UNL1        0.1970
      7 C         -10.0153  -17.9792   21.2103 C.2     1  UNL1        0.2487
      8 O         -10.0229  -16.4864   21.0637 O.2     1  UNL1       -0.2727
      9 N         -11.1057  -18.6626   21.9809 N.am    1  UNL1       -0.3041
     10 H         -11.1007  -19.6424   22.0772 H       1  UNL1        0.1494
     11 C         -12.2038  -17.8534   22.6049 C.3     1  UNL1        0.0717
     12 C         -12.8955  -16.5373   22.8034 C.3     1  UNL1        0.0213
     13 C         -13.4140  -17.7677   23.4870 C.3     1  UNL1        0.0213
     14 C          -5.5321  -20.6870   20.5398 C.3     1  UNL1        0.0552
     15 C          -4.2681  -19.8846   20.4466 C.ar    1  UNL1        0.0014
     16 C          -4.1028  -18.8697   19.3545 C.ar    1  UNL1       -0.0009
     17 C          -2.8389  -18.0674   19.2613 C.ar    1  UNL1        0.0228
     18 C          -1.7403  -18.2800   20.2602 C.ar    1  UNL1        0.1526
     19 N          -1.9056  -19.2949   21.3523 N.ar    1  UNL1       -0.2402
     20 C          -3.1695  -20.0972   21.4455 C.ar    1  UNL1        0.0948
     21 C          -0.4763  -17.4776   20.1670 C.3     1  UNL1        0.4348
     22 F           0.7877  -16.6753   20.0738 F       1  UNL1       -0.1644
     23 F          -1.1766  -16.3027   20.7827 F       1  UNL1       -0.1644
     24 F           0.2241  -18.6525   19.5514 F       1  UNL1       -0.1644
@<TRIPOS>BOND
     1     1     2    1
     2     2     3    2
     3     3    14    1
     4    14    15    1
     5    15    16   ar
     6    16    17   ar
     7    17    18   ar
     8    18    21    1
     9    21    22    1
    10    21    23    1
    11    21    24    1
    12    18    19   ar
    13    19    20   ar
    14     3     4    1
    15     4     5    2
    16     5     6    1
    17     6     7    1
    18     7     8    2
    19     7     9   am
    20     9    11    1
    21    11    12    1
    22    12    13    1
    23     6     2    1
    24    13    11    1
    25    20    15   ar
    26     9    10    1
@<TRIPOS>MOLECULE
*****
 24 26 0 0 0
SMALL
GASTEIGER

@<TRIPOS>ATOM
      1 C          -5.2054  -20.8408   20.0678 C.3     1  UNL1        0.0285
      2 C          -5.4906  -19.7351   21.0404 C.2     1  UNL1       -0.0154
      3 C          -6.8314  -19.3955   21.6209 C.2     1  UNL1       -0.0046
      4 C          -6.6545  -18.2253   22.5425 C.2     1  UNL1        0.0895
      5 N          -5.2045  -17.8417   22.5317 N.2     1  UNL1       -0.2578
      6 C          -4.4851  -18.7748   21.6033 C.3     1  UNL1        0.1970
      7 C          -3.0178  -18.7517   21.2924 C.2     1  UNL1        0.2487
      8 O          -2.1309  -19.8598   21.7775 O.2     1  UNL1       -0.2727
      9 N          -2.4375  -17.6205   20.4965 N.am    1  UNL1       -0.3041
     10 H          -3.0197  -16.8932   20.1781 H       1  UNL1        0.1494
     11 C          -0.9703  -17.5973   20.1855 C.3     1  UNL1        0.0717
     12 C           0.3359  -16.8614   20.1376 C.3     1  UNL1        0.0213
     13 C           0.2648  -18.2929   19.6949 C.3     1  UNL1        0.0213
     14 C          -8.1223  -20.1020   21.3306 C.3     1  UNL1        0.0552
     15 C          -9.3974  -19.6224   21.9585 C.ar    1  UNL1        0.0014
     16 C         -10.3528  -18.7798   21.1665 C.ar    1  UNL1       -0.0009
     17 C         -11.6278  -18.3003   21.7943 C.ar    1  UNL1        0.0228
     18 C         -11.9475  -18.6633   23.2142 C.ar    1  UNL1        0.1526
     19 N         -10.9921  -19.5058   24.0062 N.ar    1  UNL1       -0.2402
     20 C          -9.7171  -19.9854   23.3784 C.ar    1  UNL1        0.0948
     21 C         -13.2226  -18.1837   23.8421 C.3     1  UNL1        0.4348
     22 F         -14.4977  -17.7041   24.4699 F       1  UNL1       -0.1644
     23 F         -12.7076  -18.5829   25.1931 F       1  UNL1       -0.1644
     24 F         -13.7376  -17.7844   22.4911 F       1  UNL1       -0.1644
@<TRIPOS>BOND
     1     1     2    1
     2     2     3    2
     3     3    14    1
     4    14    15    1
     5    15    16   ar
     6    16    17   ar
     7    17    18   ar
     8    18    21    1
     9    21    22    1
    10    21    23    1
    11    21    24    1
    12    18    19   ar
    13    19    20   ar
    14     3     4    1
    15     4     5    2
    16     5     6    1
    17     6     7    1
    18     7     8    2
    19     7     9   am
    20     9    11    1
    21    11    12    1
    22    12    13    1
    23     6     2    1
    24    13    11    1
    25    20    15   ar
    26     9    10    1
@<TRIPOS>MOLECULE
*****
 24 26 0 0 0
SMALL
GASTEIGER

@<TRIPOS>ATOM
      1 C          -4.6602  -16.6207   23.6038 C.3     1  UNL1        0.0285
      2 C          -5.4938  -17.5678   22.7926 C.2     1  UNL1       -0.0154
      3 C          -6.9836  -17.7220   22.8733 C.2     1  UNL1       -0.0046
      4 C          -7.3945  -18.7766   21.8888 C.2     1  UNL1        0.0895
      5 N          -6.1586  -19.2741   21.1997 N.2     1  UNL1       -0.2578
      6 C          -4.9838  -18.5271   21.7583 C.3     1  UNL1        0.1970
      7 C          -3.5508  -18.7076   21.3536 C.2     1  UNL1        0.2487
      8 O          -2.8669  -20.0229   21.5821 O.2     1  UNL1       -0.2727
      9 N          -2.8016  -17.5728   20.7204 N.am    1  UNL1       -0.3041
     10 H          -3.2505  -16.7095   20.5705 H       1  UNL1        0.1494
     11 C          -1.3685  -17.7532   20.3157 C.3     1  UNL1        0.0717
     12 C           0.0035  -17.1844   20.1061 C.3     1  UNL1        0.0213
     13 C          -0.2585  -18.6342   19.8243 C.3     1  UNL1        0.0213
     14 C          -7.9015  -16.9561   23.7793 C.3     1  UNL1        0.0552
     15 C          -9.3633  -17.2899   23.8223 C.ar    1  UNL1        0.0014
     16 C         -10.3352  -16.5117   22.9858 C.ar    1  UNL1       -0.0009
     17 C         -11.7969  -16.8455   23.0288 C.ar    1  UNL1        0.0228
     18 C         -12.2868  -17.9575   23.9083 C.ar    1  UNL1        0.1526
     19 N         -11.3149  -18.7357   24.7448 N.ar    1  UNL1       -0.2402
     20 C          -9.8532  -18.4019   24.7018 C.ar    1  UNL1        0.0948
     21 C         -13.7486  -18.2912   23.9513 C.3     1  UNL1        0.4348
     22 F         -15.2103  -18.6250   23.9943 F       1  UNL1       -0.1644
     23 F         -13.8330  -18.1133   22.4643 F       1  UNL1       -0.1644
     24 F         -13.6642  -18.4692   25.4383 F       1  UNL1       -0.1644
@<TRIPOS>BOND
     1     1     2    1
     2     2     3    2
     3     3    14    1
     4    14    15    1
     5    15    16   ar
     6    16    17   ar
     7    17    18   ar
     8    18    21    1
     9    21    22    1
    10    21    23    1
    11    21    24    1
    12    18    19   ar
    13    19    20   ar
    14     3     4    1
    15     4     5    2
    16     5     6    1
    17     6     7    1
    18     7     8    2
    19     7     9   am
    20     9    11    1
    21    11    12    1
    22    12    13    1
    23     6     2    1
    24    13    11    1
    25    20    15   ar
    26     9    10    1
@<TRIPOS>MOLECULE
*****
 24 26 0 0 0
SMALL
GASTEIGER

@<TRIPOS>ATOM
      1 C          -8.6055  -16.1278   25.3070 C.3     1  UNL1        0.0285
      2 C          -8.4182  -16.8069   23.9828 C.2     1  UNL1       -0.0154
      3 C          -7.1078  -17.0525   23.2954 C.2     1  UNL1       -0.0046
      4 C          -7.3881  -17.7571   22.0012 C.2     1  UNL1        0.0895
      5 N          -8.8718  -17.9468   21.8886 N.2     1  UNL1       -0.2578
      6 C          -9.5084  -17.3595   23.1134 C.3     1  UNL1        0.1970
      7 C         -10.9774  -17.3301   23.4156 C.2     1  UNL1        0.2487
      8 O         -11.8362  -16.2346   22.8568 O.2     1  UNL1       -0.2727
      9 N         -11.5875  -18.3962   24.2765 N.am    1  UNL1       -0.3041
     10 H         -11.0237  -19.1152   24.6432 H       1  UNL1        0.1494
     11 C         -13.0564  -18.3669   24.5788 C.3     1  UNL1        0.0717
     12 C         -14.1834  -18.4937   25.5605 C.3     1  UNL1        0.0213
     13 C         -14.4737  -18.1893   24.1207 C.3     1  UNL1        0.0213
     14 C          -5.7546  -16.6622   23.8117 C.3     1  UNL1        0.0552
     15 C          -4.5311  -16.9299   22.9862 C.ar    1  UNL1        0.0014
     16 C          -4.1650  -18.3383   22.6225 C.ar    1  UNL1       -0.0009
     17 C          -2.9415  -18.6059   21.7971 C.ar    1  UNL1        0.0228
     18 C          -2.0841  -17.4650   21.3352 C.ar    1  UNL1        0.1526
     19 N          -2.4502  -16.0566   21.6989 N.ar    1  UNL1       -0.2402
     20 C          -3.6737  -15.7890   22.5243 C.ar    1  UNL1        0.0948
     21 C          -0.8605  -17.7327   20.5097 C.3     1  UNL1        0.4348
     22 F           0.3630  -18.0002   19.6843 F       1  UNL1       -0.1644
     23 F          -1.1914  -19.1956   20.4936 F       1  UNL1       -0.1644
     24 F          -0.5297  -16.2697   20.5259 F       1  UNL1       -0.1644
@<TRIPOS>BOND
     1     1     2    1
     2     2     3    2
     3     3    14    1
     4    14    15    1
     5    15    16   ar
     6    16    17   ar
     7    17    18   ar
     8    18    21    1
     9    21    22    1
    10    21    23    1
    11    21    24    1
    12    18    19   ar
    13    19    20   ar
    14     3     4    1
    15     4     5    2
    16     5     6    1
    17     6     7    1
    18     7     8    2
    19     7     9   am
    20     9    11    1
    21    11    12    1
    22    12    13    1
    23     6     2    1
    24    13    11    1
    25    20    15   ar
    26     9    10    1
@<TRIPOS>MOLECULE
*****
 24 26 0 0 0
SMALL
GASTEIGER

@<TRIPOS>ATOM
      1 C         -13.7606   -5.7813   19.6469 C.3     1  UNL1        0.0285
      2 C         -12.8263   -6.4737   18.6995 C.2     1  UNL1       -0.0154
      3 C         -11.4077   -6.0788   18.4139 C.2     1  UNL1       -0.0046
      4 C         -10.8513   -7.0437   17.4091 C.2     1  UNL1        0.0895
      5 N         -11.9260   -8.0349   17.0738 N.2     1  UNL1       -0.2578
      6 C         -13.1466   -7.6826   17.8713 C.3     1  UNL1        0.1970
      7 C         -14.4575   -8.4114   17.8452 C.2     1  UNL1        0.2487
      8 O         -15.3155   -8.3678   16.6156 O.2     1  UNL1       -0.2727
      9 N         -14.9103   -9.1838   19.0487 N.am    1  UNL1       -0.3041
     10 H         -14.3472   -9.2124   19.8557 H       1  UNL1        0.1494
     11 C         -16.2211   -9.9125   19.0226 C.3     1  UNL1        0.0717
     12 C         -17.6849   -9.9649   19.3461 C.3     1  UNL1        0.0213
     13 C         -17.0278  -11.1223   18.6542 C.3     1  UNL1        0.0213
     14 C         -10.6743   -4.9221   19.0255 C.3     1  UNL1        0.0552
     15 C         -10.9825   -3.5215   18.5857 C.ar    1  UNL1        0.0014
     16 C         -11.9284   -2.6753   19.3851 C.ar    1  UNL1       -0.0009
     17 C         -12.2365   -1.2748   18.9453 C.ar    1  UNL1        0.0228
     18 C         -11.5987   -0.7204   17.7060 C.ar    1  UNL1        0.1526
     19 N         -10.6528   -1.5666   16.9065 N.ar    1  UNL1       -0.2402
     20 C         -10.3447   -2.9671   17.3464 C.ar    1  UNL1        0.0948
     21 C         -11.9069    0.6802   17.2661 C.3     1  UNL1        0.4348
     22 F         -12.2150    2.0807   16.8264 F       1  UNL1       -0.1644
     23 F         -11.1292    0.4548   16.0034 F       1  UNL1       -0.1644
     24 F         -12.6845    0.9056   18.5288 F       1  UNL1       -0.1644
@<TRIPOS>BOND
     1     1     2    1
     2     2     3    2
     3     3    14    1
     4    14    15    1
     5    15    16   ar
     6    16    17   ar
     7    17    18   ar
     8    18    21    1
     9    21    22    1
    10    21    23    1
    11    21    24    1
    12    18    19   ar
    13    19    20   ar
    14     3     4    1
    15     4     5    2
    16     5     6    1
    17     6     7    1
    18     7     8    2
    19     7     9   am
    20     9    11    1
    21    11    12    1
    22    12    13    1
    23     6     2    1
    24    13    11    1
    25    20    15   ar
    26     9    10    1
@<TRIPOS>MOLECULE
*****
 24 26 0 0 0
SMALL
GASTEIGER

@<TRIPOS>ATOM
      1 C          -6.1254  -18.3600   22.4366 C.3     1  UNL1        0.0285
      2 C          -5.6885  -17.1848   23.2600 C.2     1  UNL1       -0.0154
      3 C          -6.5658  -16.3598   24.1542 C.2     1  UNL1       -0.0046
      4 C          -5.7171  -15.2934   24.7806 C.2     1  UNL1        0.0895
      5 N          -4.3152  -15.4592   24.2735 N.2     1  UNL1       -0.2578
      6 C          -4.2976  -16.6282   23.3336 C.3     1  UNL1        0.1970
      7 C          -3.0993  -17.1491   22.5968 C.2     1  UNL1        0.2487
      8 O          -2.1703  -18.1182   23.2660 O.2     1  UNL1       -0.2727
      9 N          -2.8301  -16.7009   21.1909 N.am    1  UNL1       -0.3041
     10 H          -3.4398  -16.0649   20.7517 H       1  UNL1        0.1494
     11 C          -1.6318  -17.2218   20.4540 C.3     1  UNL1        0.0717
     12 C          -1.0454  -18.0260   19.3319 C.3     1  UNL1        0.0213
     13 C          -0.1430  -17.3197   20.2998 C.3     1  UNL1        0.0213
     14 C          -8.0341  -16.5653   24.3821 C.3     1  UNL1        0.0552
     15 C          -9.0024  -16.3741   23.2525 C.ar    1  UNL1        0.0014
     16 C         -10.3789  -16.9642   23.3366 C.ar    1  UNL1       -0.0009
     17 C         -11.3471  -16.7730   22.2071 C.ar    1  UNL1        0.0228
     18 C         -10.9388  -15.9918   20.9934 C.ar    1  UNL1        0.1526
     19 N          -9.5624  -15.4018   20.9092 N.ar    1  UNL1       -0.2402
     20 C          -8.5941  -15.5930   22.0388 C.ar    1  UNL1        0.0948
     21 C         -11.9071  -15.8007   19.8638 C.3     1  UNL1        0.4348
     22 F         -12.8754  -15.6096   18.7342 F       1  UNL1       -0.1644
     23 F         -12.9835  -16.4588   20.6750 F       1  UNL1       -0.1644
     24 F         -10.8308  -15.1426   19.0525 F       1  UNL1       -0.1644
@<TRIPOS>BOND
     1     1     2    1
     2     2     3    2
     3     3    14    1
     4    14    15    1
     5    15    16   ar
     6    16    17   ar
     7    17    18   ar
     8    18    21    1
     9    21    22    1
    10    21    23    1
    11    21    24    1
    12    18    19   ar
    13    19    20   ar
    14     3     4    1
    15     4     5    2
    16     5     6    1
    17     6     7    1
    18     7     8    2
    19     7     9   am
    20     9    11    1
    21    11    12    1
    22    12    13    1
    23     6     2    1
    24    13    11    1
    25    20    15   ar
    26     9    10    1
@<TRIPOS>MOLECULE
*****
 24 26 0 0 0
SMALL
GASTEIGER

@<TRIPOS>ATOM
      1 C          -6.4945  -18.0725   22.8058 C.3     1  UNL1        0.0285
      2 C          -7.3041  -18.5521   21.6376 C.2     1  UNL1       -0.0154
      3 C          -8.8014  -18.5667   21.5492 C.2     1  UNL1       -0.0046
      4 C          -9.1811  -19.1248   20.2097 C.2     1  UNL1        0.0895
      5 N          -7.9186  -19.4552   19.4703 N.2     1  UNL1       -0.2578
      6 C          -6.7584  -19.1012   20.3528 C.3     1  UNL1        0.1970
      7 C          -5.3074  -19.2672   20.0106 C.2     1  UNL1        0.2487
      8 O          -4.6751  -20.6263   20.0635 O.2     1  UNL1       -0.2727
      9 N          -4.4888  -18.0740   19.6156 N.am    1  UNL1       -0.3041
     10 H          -4.9038  -17.1819   19.5809 H       1  UNL1        0.1494
     11 C          -3.0378  -18.2399   19.2733 C.3     1  UNL1        0.0717
     12 C          -1.6929  -18.8344   19.5699 C.3     1  UNL1        0.0213
     13 C          -1.8694  -17.9328   18.3842 C.3     1  UNL1        0.0213
     14 C          -9.7520  -18.1043   22.6133 C.3     1  UNL1        0.0552
     15 C          -9.2412  -17.3218   23.7868 C.ar    1  UNL1        0.0014
     16 C          -8.6416  -15.9629   23.5784 C.ar    1  UNL1       -0.0009
     17 C          -8.1308  -15.1805   24.7518 C.ar    1  UNL1        0.0228
     18 C          -8.2198  -15.7571   26.1337 C.ar    1  UNL1        0.1526
     19 N          -8.8195  -17.1161   26.3421 N.ar    1  UNL1       -0.2402
     20 C          -9.3302  -17.8985   25.1687 C.ar    1  UNL1        0.0948
     21 C          -7.7090  -14.9746   27.3072 C.3     1  UNL1        0.4348
     22 F          -7.1982  -14.1922   28.4806 F       1  UNL1       -0.1644
     23 F          -9.1184  -14.6457   27.7014 F       1  UNL1       -0.1644
     24 F          -6.2996  -15.3035   26.9130 F       1  UNL1       -0.1644
@<TRIPOS>BOND
     1     1     2    1
     2     2     3    2
     3     3    14    1
     4    14    15    1
     5    15    16   ar
     6    16    17   ar
     7    17    18   ar
     8    18    21    1
     9    21    22    1
    10    21    23    1
    11    21    24    1
    12    18    19   ar
    13    19    20   ar
    14     3     4    1
    15     4     5    2
    16     5     6    1
    17     6     7    1
    18     7     8    2
    19     7     9   am
    20     9    11    1
    21    11    12    1
    22    12    13    1
    23     6     2    1
    24    13    11    1
    25    20    15   ar
    26     9    10    1
