@<TRIPOS>MOLECULE
*****
 39 44 0 0 0
SMALL
GASTEIGER

@<TRIPOS>ATOM
      1 C           5.5414   -3.4092   22.3556 C.ar    1  UNL1        0.2400
      2 N           4.6290   -2.2968   21.9311 N.ar    1  UNL1       -0.2090
      3 C           3.9769   -1.4262   22.9639 C.ar    1  UNL1        0.1021
      4 C           4.0227   -1.3958   24.5047 C.ar    1  UNL1        0.0221
      5 C           4.8670   -2.4814   23.9058 C.ar    1  UNL1        0.0222
      6 C           5.8017   -3.6508   23.8130 C.ar    1  UNL1        0.1178
      7 N           6.7141   -4.7632   24.2374 N.pl3   1  UNL1       -0.2104
      8 S           7.4941   -5.6842   25.1281 S.O2    1  UNL1        0.0737
      9 O           8.4109   -6.8412   24.8623 O.2     1  UNL1       -0.1499
     10 O           7.6669   -5.9821   23.6682 O.2     1  UNL1       -0.1499
     11 C           8.0477   -6.3029   26.3775 C.ar    1  UNL1        0.1253
     12 C           8.9824   -7.4724   26.2847 C.ar    1  UNL1        0.0202
     13 C           9.5359   -8.0910   27.5340 C.ar    1  UNL1        0.0015
     14 C           9.1547   -7.5402   28.8761 C.ar    1  UNL1        0.0046
     15 C           8.2200   -6.3708   28.9689 C.ar    1  UNL1        0.0547
     16 C           7.6665   -5.7521   27.7196 C.ar    1  UNL1        0.0247
     17 C           7.8625   -5.8293   30.6665 C.2     1  UNL1        0.2461
     18 O           8.6425   -6.7503   31.5572 O.2     1  UNL1       -0.2701
     19 N           7.2104   -4.9586   31.6992 N.am    1  UNL1       -0.2969
     20 C           6.3661   -3.8731   32.2982 C.3     1  UNL1        0.1181
     21 C           5.4313   -2.7036   32.3910 C.ar    1  UNL1        0.0167
     22 C           4.8461   -1.9075   33.5745 C.ar    1  UNL1        0.0962
     23 N           3.9113   -0.7380   33.6673 N.ar    1  UNL1       -0.2425
     24 C           3.3578   -0.1194   32.4180 C.ar    1  UNL1        0.1003
     25 C           3.7390   -0.6702   31.0758 C.ar    1  UNL1        0.0366
     26 C           4.5189   -1.5912   31.9665 C.ar    1  UNL1        0.0020
     27 C           3.1854   -0.0515   29.8265 C.ar    1  UNL1        0.0860
     28 C           2.4068    0.9627   30.6109 C.ar    1  UNL1        0.1180
     29 N           1.6653    1.8312   29.6383 N.ar    1  UNL1       -0.2249
     30 C           1.9856    1.3537   28.2529 C.ar    1  UNL1        0.1478
     31 C           1.8598    1.4053   26.3982 C.ar    1  UNL1        0.0374
     32 C           2.4400    0.6183   25.2607 C.ar    1  UNL1        0.0046
     33 C           3.3706   -0.5252   25.5375 C.ar    1  UNL1        0.0192
     34 C           2.9894    0.0256   26.8796 C.ar    1  UNL1        0.0814
     35 N           2.9251    0.1901   28.3692 N.ar    1  UNL1       -0.2887
     36 H           6.9643   -5.1247   23.3566 H       1  UNL1        0.1739
     37 H           7.5737   -5.3646   32.5192 H       1  UNL1        0.1501
     38 C           7.5068   -3.8753   20.7216 C.3     1  UNL1        0.2543
     39 O           6.1934   -4.2798   21.3228 O.3     1  UNL1       -0.4553
@<TRIPOS>BOND
     1    38    39    1
     2    39     1    1
     3     1     2   ar
     4     2     3   ar
     5     3     4   ar
     6     4     5   ar
     7     5     6   ar
     8     6     7    1
     9     7     8    1
    10     8     9    2
    11     8    10    2
    12     8    11    1
    13    11    12   ar
    14    12    13   ar
    15    13    14   ar
    16    14    15   ar
    17    15    16   ar
    18    15    17    1
    19    17    18    2
    20    17    19   am
    21    19    20    1
    22    20    21    1
    23    21    22   ar
    24    22    23   ar
    25    23    24   ar
    26    24    25   ar
    27    25    26   ar
    28    25    27    1
    29    27    28   ar
    30    28    29   ar
    31    29    30   ar
    32    30    31   ar
    33    31    32   ar
    34    32    33   ar
    35    33    34   ar
    36    34    35   ar
    37     6     1   ar
    38    16    11   ar
    39    26    21   ar
    40    35    27   ar
    41    33     4    1
    42    35    30   ar
    43     7    36    1
    44    19    37    1
@<TRIPOS>MOLECULE
*****
 39 44 0 0 0
SMALL
GASTEIGER

@<TRIPOS>ATOM
      1 C           7.9852   -5.7747   25.2495 C.ar    1  UNL1        0.2400
      2 N           8.6369   -6.2951   26.4963 N.ar    1  UNL1       -0.2090
      3 C           8.2673   -5.7205   27.8316 C.ar    1  UNL1        0.1021
      4 C           7.2846   -4.6181   28.2744 C.ar    1  UNL1        0.0221
      5 C           7.3015   -4.8390   26.7908 C.ar    1  UNL1        0.0222
      6 C           6.9638   -4.6797   25.3381 C.ar    1  UNL1        0.1178
      7 N           6.3121   -4.1593   24.0913 N.pl3   1  UNL1       -0.2104
      8 S           5.4250   -3.3406   23.2010 S.O2    1  UNL1        0.0737
      9 O           5.2030   -3.3082   21.7178 O.2     1  UNL1       -0.1499
     10 O           6.2646   -4.3332   22.4527 O.2     1  UNL1       -0.1499
     11 C           4.4095   -2.3224   22.7743 C.ar    1  UNL1        0.1253
     12 C           4.0717   -2.1631   21.3216 C.ar    1  UNL1        0.0202
     13 C           3.0563   -1.1448   20.8950 C.ar    1  UNL1        0.0015
     14 C           2.3785   -0.2859   21.9211 C.ar    1  UNL1        0.0046
     15 C           2.7163   -0.4452   23.3739 C.ar    1  UNL1        0.0547
     16 C           3.7317   -1.4635   23.8004 C.ar    1  UNL1        0.0247
     17 C           1.8063    0.6711   24.4822 C.2     1  UNL1        0.2461
     18 O           0.9192    1.4898   23.5918 O.2     1  UNL1       -0.2701
     19 N           1.4367    1.2457   25.8176 N.am    1  UNL1       -0.2969
     20 C           1.4197    1.4667   27.3011 C.3     1  UNL1        0.1181
     21 C           1.7575    1.3073   28.7539 C.ar    1  UNL1        0.0167
     22 C           1.2654    2.0047   30.0378 C.ar    1  UNL1        0.0962
     23 N           1.6032    1.8454   31.4906 N.ar    1  UNL1       -0.2425
     24 C           2.6186    0.8271   31.9172 C.ar    1  UNL1        0.1003
     25 C           3.2964   -0.0318   30.8911 C.ar    1  UNL1        0.0366
     26 C           2.4092    0.7869   30.0007 C.ar    1  UNL1        0.0020
     27 C           4.3118   -1.0500   31.3177 C.ar    1  UNL1        0.0860
     28 C           4.1511   -0.6819   32.7629 C.ar    1  UNL1        0.1180
     29 N           5.0732   -1.5493   33.5675 N.ar    1  UNL1       -0.2249
     30 C           5.8037   -2.4535   32.6196 C.ar    1  UNL1        0.1478
     31 C           7.0166   -3.7976   32.1942 C.ar    1  UNL1        0.0374
     32 C           7.4821   -4.4636   30.9334 C.ar    1  UNL1        0.0046
     33 C           6.9150   -4.0435   29.6098 C.ar    1  UNL1        0.0192
     34 C           6.2372   -3.1846   30.6359 C.ar    1  UNL1        0.0814
     35 N           5.3332   -2.1450   31.2290 N.ar    1  UNL1       -0.2887
     36 H           6.7569   -4.7231   23.4178 H       1  UNL1        0.1739
     37 H           0.7703    1.9140   25.5376 H       1  UNL1        0.1501
     38 C           9.1980   -7.5875   23.8378 C.3     1  UNL1        0.2543
     39 O           8.3548   -6.3493   23.9142 O.3     1  UNL1       -0.4553
@<TRIPOS>BOND
     1    38    39    1
     2    39     1    1
     3     1     2   ar
     4     2     3   ar
     5     3     4   ar
     6     4     5   ar
     7     5     6   ar
     8     6     7    1
     9     7     8    1
    10     8     9    2
    11     8    10    2
    12     8    11    1
    13    11    12   ar
    14    12    13   ar
    15    13    14   ar
    16    14    15   ar
    17    15    16   ar
    18    15    17    1
    19    17    18    2
    20    17    19   am
    21    19    20    1
    22    20    21    1
    23    21    22   ar
    24    22    23   ar
    25    23    24   ar
    26    24    25   ar
    27    25    26   ar
    28    25    27    1
    29    27    28   ar
    30    28    29   ar
    31    29    30   ar
    32    30    31   ar
    33    31    32   ar
    34    32    33   ar
    35    33    34   ar
    36    34    35   ar
    37     6     1   ar
    38    16    11   ar
    39    26    21   ar
    40    35    27   ar
    41    33     4    1
    42    35    30   ar
    43     7    36    1
    44    19    37    1
@<TRIPOS>MOLECULE
*****
 39 44 0 0 0
SMALL
GASTEIGER

@<TRIPOS>ATOM
      1 C         -10.5586   -5.8906   17.5538 C.ar    1  UNL1        0.2400
      2 N          -9.6473   -4.7590   17.1811 N.ar    1  UNL1       -0.2090
      3 C         -10.1684   -3.3527   17.1586 C.ar    1  UNL1        0.1021
      4 C         -11.5473   -2.7297   17.4547 C.ar    1  UNL1        0.0221
      5 C         -11.5205   -4.2205   17.6186 C.ar    1  UNL1        0.0222
      6 C         -11.9911   -5.6158   17.9041 C.ar    1  UNL1        0.1178
      7 N         -12.9024   -6.7475   18.2768 N.pl3   1  UNL1       -0.2104
      8 S         -14.1445   -7.4788   18.6918 S.O2    1  UNL1        0.0737
      9 O         -14.4528   -8.9257   18.9400 O.2     1  UNL1       -0.1499
     10 O         -12.9656   -8.3821   18.4812 O.2     1  UNL1       -0.1499
     11 C         -15.5676   -7.7218   19.0990 C.ar    1  UNL1        0.1253
     12 C         -16.0382   -9.1171   19.3846 C.ar    1  UNL1        0.0202
     13 C         -17.4613   -9.3601   19.7917 C.ar    1  UNL1        0.0015
     14 C         -18.4138   -8.2077   19.9134 C.ar    1  UNL1        0.0046
     15 C         -17.9432   -6.8123   19.6279 C.ar    1  UNL1        0.0547
     16 C         -16.5201   -6.5694   19.2207 C.ar    1  UNL1        0.0247
     17 C         -19.2215   -5.5352   19.8221 C.2     1  UNL1        0.2461
     18 O         -20.4636   -6.2666   20.2371 O.2     1  UNL1       -0.2701
     19 N         -19.7425   -4.1288   19.7996 N.am    1  UNL1       -0.2969
     20 C         -19.7694   -2.6381   19.6357 C.3     1  UNL1        0.1181
     21 C         -19.2987   -1.2427   19.3502 C.ar    1  UNL1        0.0167
     22 C         -19.9915    0.1344   19.3768 C.ar    1  UNL1        0.0962
     23 N         -19.5208    1.5298   19.0913 N.ar    1  UNL1       -0.2425
     24 C         -18.0978    1.7727   18.6841 C.ar    1  UNL1        0.1003
     25 C         -17.1453    0.6203   18.5625 C.ar    1  UNL1        0.0366
     26 C         -18.3874   -0.1110   18.9775 C.ar    1  UNL1        0.0020
     27 C         -15.7222    0.8632   18.1553 C.ar    1  UNL1        0.0860
     28 C         -15.9506    2.3418   18.0465 C.ar    1  UNL1        0.1180
     29 N         -14.6593    2.9808   17.6290 N.ar    1  UNL1       -0.2249
     30 C         -13.6329    1.8972   17.4798 C.ar    1  UNL1        0.1478
     31 C         -11.9313    1.2498   17.1005 C.ar    1  UNL1        0.0374
     32 C         -11.2759   -0.0992   17.0806 C.ar    1  UNL1        0.0046
     33 C         -12.0684   -1.3233   17.4322 C.ar    1  UNL1        0.0192
     34 C         -13.0209   -0.1709   17.5539 C.ar    1  UNL1        0.0814
     35 N         -14.2898    0.5884   17.8050 N.ar    1  UNL1       -0.2887
     36 H         -12.2772   -7.5038   18.1970 H       1  UNL1        0.1739
     37 H         -20.6765   -4.2883   20.0668 H       1  UNL1        0.1501
     38 C          -9.4032   -7.8421   18.8215 C.3     1  UNL1        0.2543
     39 O         -10.0376   -7.2970   17.5763 O.3     1  UNL1       -0.4553
@<TRIPOS>BOND
     1    38    39    1
     2    39     1    1
     3     1     2   ar
     4     2     3   ar
     5     3     4   ar
     6     4     5   ar
     7     5     6   ar
     8     6     7    1
     9     7     8    1
    10     8     9    2
    11     8    10    2
    12     8    11    1
    13    11    12   ar
    14    12    13   ar
    15    13    14   ar
    16    14    15   ar
    17    15    16   ar
    18    15    17    1
    19    17    18    2
    20    17    19   am
    21    19    20    1
    22    20    21    1
    23    21    22   ar
    24    22    23   ar
    25    23    24   ar
    26    24    25   ar
    27    25    26   ar
    28    25    27    1
    29    27    28   ar
    30    28    29   ar
    31    29    30   ar
    32    30    31   ar
    33    31    32   ar
    34    32    33   ar
    35    33    34   ar
    36    34    35   ar
    37     6     1   ar
    38    16    11   ar
    39    26    21   ar
    40    35    27   ar
    41    33     4    1
    42    35    30   ar
    43     7    36    1
    44    19    37    1
@<TRIPOS>MOLECULE
*****
 39 44 0 0 0
SMALL
GASTEIGER

@<TRIPOS>ATOM
      1 C           4.3650   -0.8019   33.1216 C.ar    1  UNL1        0.2400
      2 N           3.4155    0.3463   33.2951 N.ar    1  UNL1       -0.2090
      3 C           2.7512    0.9577   32.0973 C.ar    1  UNL1        0.1021
      4 C           2.8149    0.6623   30.5854 C.ar    1  UNL1        0.0221
      5 C           3.6830   -0.2450   31.4060 C.ar    1  UNL1        0.0222
      6 C           4.6501   -1.3386   31.7502 C.ar    1  UNL1        0.1178
      7 N           5.5996   -2.4868   31.5767 N.pl3   1  UNL1       -0.2104
      8 S           6.4169   -3.5510   30.9063 S.O2    1  UNL1        0.0737
      9 O           7.3637   -4.5964   31.4169 O.2     1  UNL1       -0.1499
     10 O           6.5803   -3.5273   32.3972 O.2     1  UNL1       -0.1499
     11 C           7.0035   -4.4029   29.8199 C.ar    1  UNL1        0.1253
     12 C           7.9706   -5.4966   30.1641 C.ar    1  UNL1        0.0202
     13 C           8.5572   -6.3484   29.0777 C.ar    1  UNL1        0.0015
     14 C           8.1766   -6.1066   27.6471 C.ar    1  UNL1        0.0046
     15 C           7.2095   -5.0129   27.3029 C.ar    1  UNL1        0.0547
     16 C           6.6230   -4.1611   28.3892 C.ar    1  UNL1        0.0247
     17 C           6.8573   -4.8548   25.5270 C.2     1  UNL1        0.2461
     18 O           7.6746   -5.9190   24.8566 O.2     1  UNL1       -0.2701
     19 N           6.1929   -4.2433   24.3292 N.am    1  UNL1       -0.2969
     20 C           5.3248   -3.3361   23.5087 C.3     1  UNL1        0.1181
     21 C           4.3576   -2.2423   23.1645 C.ar    1  UNL1        0.0167
     22 C           3.7640   -1.7337   21.8356 C.ar    1  UNL1        0.0962
     23 N           2.7969   -0.6400   21.4914 N.ar    1  UNL1       -0.2425
     24 C           2.2103    0.2119   22.5778 C.ar    1  UNL1        0.1003
     25 C           2.5908   -0.0300   24.0084 C.ar    1  UNL1        0.0366
     26 C           3.4081   -1.0942   23.3380 C.ar    1  UNL1        0.0020
     27 C           2.0043    0.8219   25.0948 C.ar    1  UNL1        0.0860
     28 C           1.2062    1.6222   24.1086 C.ar    1  UNL1        0.1180
     29 N           0.4278    2.6537   24.8705 N.ar    1  UNL1       -0.2249
     30 C           0.7449    2.4908   26.3274 C.ar    1  UNL1        0.1478
     31 C           0.5949    2.9302   28.1282 C.ar    1  UNL1        0.0374
     32 C           1.1837    2.4204   29.4101 C.ar    1  UNL1        0.0046
     33 C           2.1505    1.2737   29.3877 C.ar    1  UNL1        0.0192
     34 C           1.7700    1.5156   27.9570 C.ar    1  UNL1        0.0814
     35 N           1.7192    1.3587   26.4662 N.ar    1  UNL1       -0.2887
     36 H           5.8493   -2.6456   32.5157 H       1  UNL1        0.1739
     37 H           6.5779   -4.8024   23.6162 H       1  UNL1        0.1501
     38 C           5.2383   -0.5962   35.5598 C.3     1  UNL1        0.2543
     39 O           5.0294   -1.4133   34.3194 O.3     1  UNL1       -0.4553
@<TRIPOS>BOND
     1    38    39    1
     2    39     1    1
     3     1     2   ar
     4     2     3   ar
     5     3     4   ar
     6     4     5   ar
     7     5     6   ar
     8     6     7    1
     9     7     8    1
    10     8     9    2
    11     8    10    2
    12     8    11    1
    13    11    12   ar
    14    12    13   ar
    15    13    14   ar
    16    14    15   ar
    17    15    16   ar
    18    15    17    1
    19    17    18    2
    20    17    19   am
    21    19    20    1
    22    20    21    1
    23    21    22   ar
    24    22    23   ar
    25    23    24   ar
    26    24    25   ar
    27    25    26   ar
    28    25    27    1
    29    27    28   ar
    30    28    29   ar
    31    29    30   ar
    32    30    31   ar
    33    31    32   ar
    34    32    33   ar
    35    33    34   ar
    36    34    35   ar
    37     6     1   ar
    38    16    11   ar
    39    26    21   ar
    40    35    27   ar
    41    33     4    1
    42    35    30   ar
    43     7    36    1
    44    19    37    1
@<TRIPOS>MOLECULE
*****
 39 44 0 0 0
SMALL
GASTEIGER

@<TRIPOS>ATOM
      1 C           7.6438   -4.5526   26.1923 C.ar    1  UNL1        0.2400
      2 N           7.8229   -4.4010   27.6738 N.ar    1  UNL1       -0.2090
      3 C           6.9548   -3.4479   28.4406 C.ar    1  UNL1        0.1021
      4 C           5.8130   -2.4948   28.0342 C.ar    1  UNL1        0.0221
      5 C           6.3866   -3.2622   26.8800 C.ar    1  UNL1        0.0222
      6 C           6.5965   -3.7512   25.4776 C.ar    1  UNL1        0.1178
      7 N           6.4173   -3.9029   23.9960 N.pl3   1  UNL1       -0.2104
      8 S           5.8707   -3.6989   22.6142 S.O2    1  UNL1        0.0737
      9 O           6.2069   -4.2890   21.2767 O.2     1  UNL1       -0.1499
     10 O           6.9851   -4.7014   22.6703 O.2     1  UNL1       -0.1499
     11 C           5.0226   -3.1639   21.4985 C.ar    1  UNL1        0.1253
     12 C           5.2325   -3.6529   20.0961 C.ar    1  UNL1        0.0202
     13 C           4.3844   -3.1179   18.9805 C.ar    1  UNL1        0.0015
     14 C           3.3265   -2.0940   19.2674 C.ar    1  UNL1        0.0046
     15 C           3.1166   -1.6050   20.6698 C.ar    1  UNL1        0.0547
     16 C           3.9647   -2.1400   21.7853 C.ar    1  UNL1        0.0247
     17 C           1.7972   -0.3672   20.8429 C.2     1  UNL1        0.2461
     18 O           1.2506   -0.1633   19.4610 O.2     1  UNL1       -0.2701
     19 N           0.9292    0.5858   21.6097 N.am    1  UNL1       -0.2969
     20 C           0.3555    1.3532   22.7639 C.3     1  UNL1        0.1181
     21 C           0.1457    1.8422   24.1664 C.ar    1  UNL1        0.0167
     22 C          -0.8247    2.8598   24.7986 C.ar    1  UNL1        0.0962
     23 N          -1.0346    3.3488   26.2011 N.ar    1  UNL1       -0.2425
     24 C          -0.1865    2.8138   27.3166 C.ar    1  UNL1        0.1003
     25 C           0.8714    1.7899   27.0298 C.ar    1  UNL1        0.0366
     26 C           0.3248    1.9939   25.6479 C.ar    1  UNL1        0.0020
     27 C           1.7195    1.2549   28.1454 C.ar    1  UNL1        0.0860
     28 C           1.0175    2.1092   29.1590 C.ar    1  UNL1        0.1180
     29 N           1.6310    1.8358   30.5003 N.ar    1  UNL1       -0.2249
     30 C           2.7121    0.8125   30.3155 C.ar    1  UNL1        0.1478
     31 C           4.0759   -0.3021   30.9124 C.ar    1  UNL1        0.0374
     32 C           5.0112   -1.2883   30.2779 C.ar    1  UNL1        0.0046
     33 C           4.9449   -1.5417   28.8009 C.ar    1  UNL1        0.0192
     34 C           3.8869   -0.5178   29.0878 C.ar    1  UNL1        0.0814
     35 N           2.7668    0.4535   28.8601 N.ar    1  UNL1       -0.2887
     36 H           7.1117   -4.5749   23.8078 H       1  UNL1        0.1739
     37 H           0.3725    0.9370   20.8775 H       1  UNL1        0.1501
     38 C           8.1139   -6.9464   25.2984 C.3     1  UNL1        0.2543
     39 O           8.5119   -5.5057   25.4256 O.3     1  UNL1       -0.4553
@<TRIPOS>BOND
     1    38    39    1
     2    39     1    1
     3     1     2   ar
     4     2     3   ar
     5     3     4   ar
     6     4     5   ar
     7     5     6   ar
     8     6     7    1
     9     7     8    1
    10     8     9    2
    11     8    10    2
    12     8    11    1
    13    11    12   ar
    14    12    13   ar
    15    13    14   ar
    16    14    15   ar
    17    15    16   ar
    18    15    17    1
    19    17    18    2
    20    17    19   am
    21    19    20    1
    22    20    21    1
    23    21    22   ar
    24    22    23   ar
    25    23    24   ar
    26    24    25   ar
    27    25    26   ar
    28    25    27    1
    29    27    28   ar
    30    28    29   ar
    31    29    30   ar
    32    30    31   ar
    33    31    32   ar
    34    32    33   ar
    35    33    34   ar
    36    34    35   ar
    37     6     1   ar
    38    16    11   ar
    39    26    21   ar
    40    35    27   ar
    41    33     4    1
    42    35    30   ar
    43     7    36    1
    44    19    37    1
@<TRIPOS>MOLECULE
*****
 39 44 0 0 0
SMALL
GASTEIGER

@<TRIPOS>ATOM
      1 C          -0.1766    1.4911   20.7534 C.ar    1  UNL1        0.2400
      2 N           0.2243    0.9474   19.4141 N.ar    1  UNL1       -0.2090
      3 C           1.3635   -0.0226   19.3089 C.ar    1  UNL1        0.1021
      4 C           2.3133   -0.6566   20.3449 C.ar    1  UNL1        0.0221
      5 C           1.3093    0.2781   20.9519 C.ar    1  UNL1        0.0222
      6 C           0.5619    1.0648   21.9875 C.ar    1  UNL1        0.1178
      7 N           0.1610    1.6085   23.3267 N.pl3   1  UNL1       -0.2104
      8 S           0.1552    1.8437   24.8082 S.O2    1  UNL1        0.0737
      9 O          -0.6895    2.6914   25.7125 O.2     1  UNL1       -0.1499
     10 O          -0.9038    2.6169   24.0797 O.2     1  UNL1       -0.1499
     11 C           0.5450    1.7420   26.2531 C.ar    1  UNL1        0.1253
     12 C          -0.2024    2.5287   27.2887 C.ar    1  UNL1        0.0202
     13 C           0.1874    2.4270   28.7336 C.ar    1  UNL1        0.0015
     14 C           1.3246    1.5386   29.1428 C.ar    1  UNL1        0.0046
     15 C           2.0720    0.7520   28.1073 C.ar    1  UNL1        0.0547
     16 C           1.6822    0.8537   26.6624 C.ar    1  UNL1        0.0247
     17 C           3.4187   -0.2722   28.7709 C.2     1  UNL1        0.2461
     18 O           3.4129   -0.0370   30.2523 O.2     1  UNL1       -0.2701
     19 N           4.5580   -1.2422   28.6656 N.am    1  UNL1       -0.2969
     20 C           5.5619   -2.1769   28.0587 C.3     1  UNL1        0.1181
     21 C           6.3094   -2.9636   27.0230 C.ar    1  UNL1        0.0167
     22 C           7.4957   -3.9459   27.0921 C.ar    1  UNL1        0.0962
     23 N           8.2431   -4.7325   26.0564 N.ar    1  UNL1       -0.2425
     24 C           7.8533   -4.6308   24.6116 C.ar    1  UNL1        0.1003
     25 C           6.7161   -3.7425   24.2023 C.ar    1  UNL1        0.0366
     26 C           6.7102   -3.5073   25.6837 C.ar    1  UNL1        0.0020
     27 C           6.3263   -3.6408   22.7574 C.ar    1  UNL1        0.0860
     28 C           7.4001   -4.6038   22.3456 C.ar    1  UNL1        0.1180
     29 N           7.3254   -4.7726   20.8569 N.ar    1  UNL1       -0.2249
     30 C           6.2053   -3.9140   20.3488 C.ar    1  UNL1        0.1478
     31 C           5.1142   -3.2074   19.0189 C.ar    1  UNL1        0.0374
     32 C           3.9611   -2.2492   18.9732 C.ar    1  UNL1        0.0046
     33 C           3.4525   -1.6266   20.2397 C.ar    1  UNL1        0.0192
     34 C           4.5898   -2.5150   20.6490 C.ar    1  UNL1        0.0814
     35 N           5.5878   -3.2145   21.5233 N.ar    1  UNL1       -0.2887
     36 H          -0.5854    2.1916   23.0581 H       1  UNL1        0.1739
     37 H           4.8138   -1.3089   29.6139 H       1  UNL1        0.1501
     38 C          -1.0799    3.9236   20.6232 C.3     1  UNL1        0.2543
     39 O          -1.3158    2.4611   20.8586 O.3     1  UNL1       -0.4553
@<TRIPOS>BOND
     1    38    39    1
     2    39     1    1
     3     1     2   ar
     4     2     3   ar
     5     3     4   ar
     6     4     5   ar
     7     5     6   ar
     8     6     7    1
     9     7     8    1
    10     8     9    2
    11     8    10    2
    12     8    11    1
    13    11    12   ar
    14    12    13   ar
    15    13    14   ar
    16    14    15   ar
    17    15    16   ar
    18    15    17    1
    19    17    18    2
    20    17    19   am
    21    19    20    1
    22    20    21    1
    23    21    22   ar
    24    22    23   ar
    25    23    24   ar
    26    24    25   ar
    27    25    26   ar
    28    25    27    1
    29    27    28   ar
    30    28    29   ar
    31    29    30   ar
    32    30    31   ar
    33    31    32   ar
    34    32    33   ar
    35    33    34   ar
    36    34    35   ar
    37     6     1   ar
    38    16    11   ar
    39    26    21   ar
    40    35    27   ar
    41    33     4    1
    42    35    30   ar
    43     7    36    1
    44    19    37    1
@<TRIPOS>MOLECULE
*****
 39 44 0 0 0
SMALL
GASTEIGER

@<TRIPOS>ATOM
      1 C           0.3717    2.4165   26.4581 C.ar    1  UNL1        0.2400
      2 N           0.0711    2.9393   27.8315 N.ar    1  UNL1       -0.2090
      3 C           0.7909    2.3780   29.0218 C.ar    1  UNL1        0.1021
      4 C           1.8688    1.2886   29.1905 C.ar    1  UNL1        0.0221
      5 C           1.4533    1.4987   27.7645 C.ar    1  UNL1        0.0222
      6 C           1.3922    1.3324   26.2751 C.ar    1  UNL1        0.1178
      7 N           1.6928    0.8096   24.9016 N.pl3   1  UNL1       -0.2104
      8 S           2.3189   -0.0067   23.8100 S.O2    1  UNL1        0.0737
      9 O           2.1367   -0.0476   22.3217 O.2     1  UNL1       -0.1499
     10 O           1.2985    0.9721   23.3092 O.2     1  UNL1       -0.1499
     11 C           3.1950   -1.0178   23.1317 C.ar    1  UNL1        0.1253
     12 C           3.1339   -1.1842   21.6422 C.ar    1  UNL1        0.0202
     13 C           4.0100   -2.1953   20.9639 C.ar    1  UNL1        0.0015
     14 C           4.9472   -3.0401   21.7752 C.ar    1  UNL1        0.0046
     15 C           5.0083   -2.8737   23.2646 C.ar    1  UNL1        0.0547
     16 C           4.1322   -1.8626   23.9429 C.ar    1  UNL1        0.0247
     17 C           6.1942   -3.9730   24.0940 C.2     1  UNL1        0.2461
     18 O           6.8204   -4.7892   23.0024 O.2     1  UNL1       -0.2701
     19 N           6.9140   -4.5342   25.2844 N.am    1  UNL1       -0.2969
     20 C           7.3295   -4.7444   26.7103 C.3     1  UNL1        0.1181
     21 C           7.3906   -4.5779   28.1998 C.ar    1  UNL1        0.0167
     22 C           8.2160   -5.2612   29.3083 C.ar    1  UNL1        0.0962
     23 N           8.2771   -5.0948   30.7979 N.ar    1  UNL1       -0.2425
     24 C           7.4010   -4.0836   31.4761 C.ar    1  UNL1        0.1003
     25 C           6.4638   -3.2389   30.6649 C.ar    1  UNL1        0.0366
     26 C           7.0900   -4.0551   29.5732 C.ar    1  UNL1        0.0020
     27 C           5.5877   -2.2278   31.3431 C.ar    1  UNL1        0.0860
     28 C           6.1332   -2.5839   32.6943 C.ar    1  UNL1        0.1180
     29 N           5.4499   -1.7199   33.7125 N.ar    1  UNL1       -0.2249
     30 C           4.4822   -0.8298   32.9906 C.ar    1  UNL1        0.1478
     31 C           3.1844    0.4991   32.8993 C.ar    1  UNL1        0.0374
     32 C           2.3911    1.1514   31.8060 C.ar    1  UNL1        0.0046
     33 C           2.5885    0.7274   30.3808 C.ar    1  UNL1        0.0192
     34 C           3.5257   -0.1174   31.1920 C.ar    1  UNL1        0.0814
     35 N           4.5673   -1.1437   31.5262 N.ar    1  UNL1       -0.2887
     36 H           1.0777    1.3640   24.3692 H       1  UNL1        0.1739
     37 H           7.4890   -5.1978   24.8392 H       1  UNL1        0.1501
     38 C          -1.8368    3.1563   25.3070 C.3     1  UNL1        0.2543
     39 O          -0.3480    2.9778   25.2678 O.3     1  UNL1       -0.4553
@<TRIPOS>BOND
     1    38    39    1
     2    39     1    1
     3     1     2   ar
     4     2     3   ar
     5     3     4   ar
     6     4     5   ar
     7     5     6   ar
     8     6     7    1
     9     7     8    1
    10     8     9    2
    11     8    10    2
    12     8    11    1
    13    11    12   ar
    14    12    13   ar
    15    13    14   ar
    16    14    15   ar
    17    15    16   ar
    18    15    17    1
    19    17    18    2
    20    17    19   am
    21    19    20    1
    22    20    21    1
    23    21    22   ar
    24    22    23   ar
    25    23    24   ar
    26    24    25   ar
    27    25    26   ar
    28    25    27    1
    29    27    28   ar
    30    28    29   ar
    31    29    30   ar
    32    30    31   ar
    33    31    32   ar
    34    32    33   ar
    35    33    34   ar
    36    34    35   ar
    37     6     1   ar
    38    16    11   ar
    39    26    21   ar
    40    35    27   ar
    41    33     4    1
    42    35    30   ar
    43     7    36    1
    44    19    37    1
@<TRIPOS>MOLECULE
*****
 39 44 0 0 0
SMALL
GASTEIGER

@<TRIPOS>ATOM
      1 C           8.2251   -5.4403   27.7686 C.ar    1  UNL1        0.2400
      2 N           8.4668   -5.8292   26.3402 N.ar    1  UNL1       -0.2090
      3 C           7.6872   -5.1702   25.2412 C.ar    1  UNL1        0.1021
      4 C           6.5920   -4.0851   25.2239 C.ar    1  UNL1        0.0221
      5 C           7.0752   -4.4207   26.6038 C.ar    1  UNL1        0.0222
      6 C           7.2037   -4.3923   28.0980 C.ar    1  UNL1        0.1178
      7 N           6.9619   -4.0034   29.5264 N.pl3   1  UNL1       -0.2104
      8 S           6.3791   -3.3008   30.7166 S.O2    1  UNL1        0.0737
      9 O           6.6297   -3.3955   32.1925 O.2     1  UNL1       -0.1499
     10 O           7.4312   -4.3073   31.0772 O.2     1  UNL1       -0.1499
     11 C           5.5255   -2.3693   31.5252 C.ar    1  UNL1        0.1253
     12 C           5.6540   -2.3409   33.0194 C.ar    1  UNL1        0.0202
     13 C           4.8004   -1.4095   33.8280 C.ar    1  UNL1        0.0015
     14 C           3.8183   -0.5065   33.1423 C.ar    1  UNL1        0.0046
     15 C           3.6899   -0.5349   31.6482 C.ar    1  UNL1        0.0547
     16 C           4.5434   -1.4663   30.8396 C.ar    1  UNL1        0.0247
     17 C           2.4560    0.6198   30.9794 C.2     1  UNL1        0.2461
     18 O           1.8732    1.3224   32.1697 O.2     1  UNL1       -0.2701
     19 N           1.6764    1.2788   29.8804 N.am    1  UNL1       -0.2969
     20 C           1.1932    1.6144   28.5006 C.3     1  UNL1        0.1181
     21 C           1.0647    1.5860   27.0063 C.ar    1  UNL1        0.0167
     22 C           0.1821    2.3574   26.0049 C.ar    1  UNL1        0.0962
     23 N           0.0536    2.3289   24.5106 N.ar    1  UNL1       -0.2425
     24 C           0.9072    1.3975   23.7021 C.ar    1  UNL1        0.1003
     25 C           1.8893    0.4945   24.3877 C.ar    1  UNL1        0.0366
     26 C           1.3064    1.1970   25.5779 C.ar    1  UNL1        0.0020
     27 C           2.7429   -0.4370   23.5791 C.ar    1  UNL1        0.0860
     28 C           2.1319    0.0352   22.2931 C.ar    1  UNL1        0.1180
     29 N           2.7757   -0.7210   21.1689 N.ar    1  UNL1       -0.2249
     30 C           3.7845   -1.6605   21.7601 C.ar    1  UNL1        0.1478
     31 C           5.0981   -2.9736   21.6683 C.ar    1  UNL1        0.0374
     32 C           5.9476   -3.7133   22.6589 C.ar    1  UNL1        0.0046
     33 C           5.8123   -3.4261   24.1250 C.ar    1  UNL1        0.0192
     34 C           4.8303   -2.5230   23.4393 C.ar    1  UNL1        0.0814
     35 N           3.7643   -1.4850   23.2498 N.ar    1  UNL1       -0.2887
     36 H           7.6065   -4.5960   29.9764 H       1  UNL1        0.1739
     37 H           1.1162    1.8901   30.4111 H       1  UNL1        0.1501
     38 C           9.0156   -7.5945   28.9869 C.3     1  UNL1        0.2543
     39 O           9.0047   -6.0993   28.8676 O.3     1  UNL1       -0.4553
@<TRIPOS>BOND
     1    38    39    1
     2    39     1    1
     3     1     2   ar
     4     2     3   ar
     5     3     4   ar
     6     4     5   ar
     7     5     6   ar
     8     6     7    1
     9     7     8    1
    10     8     9    2
    11     8    10    2
    12     8    11    1
    13    11    12   ar
    14    12    13   ar
    15    13    14   ar
    16    14    15   ar
    17    15    16   ar
    18    15    17    1
    19    17    18    2
    20    17    19   am
    21    19    20    1
    22    20    21    1
    23    21    22   ar
    24    22    23   ar
    25    23    24   ar
    26    24    25   ar
    27    25    26   ar
    28    25    27    1
    29    27    28   ar
    30    28    29   ar
    31    29    30   ar
    32    30    31   ar
    33    31    32   ar
    34    32    33   ar
    35    33    34   ar
    36    34    35   ar
    37     6     1   ar
    38    16    11   ar
    39    26    21   ar
    40    35    27   ar
    41    33     4    1
    42    35    30   ar
    43     7    36    1
    44    19    37    1
@<TRIPOS>MOLECULE
*****
 39 44 0 0 0
SMALL
GASTEIGER

@<TRIPOS>ATOM
      1 C          -0.6424    3.0257   23.3243 C.ar    1  UNL1        0.2400
      2 N          -0.8487    3.1711   21.8457 N.ar    1  UNL1       -0.2090
      3 C          -0.0092    2.3768   20.8895 C.ar    1  UNL1        0.1021
      4 C           1.1236    1.3480   21.0780 C.ar    1  UNL1        0.0221
      5 C           0.5819    1.8801   22.3717 C.ar    1  UNL1        0.0222
      6 C           0.4035    2.0858   23.8467 C.ar    1  UNL1        0.1178
      7 N           0.6098    1.9404   25.3253 N.pl3   1  UNL1       -0.2104
      8 S           1.1760    1.4612   26.6291 S.O2    1  UNL1        0.0737
      9 O           0.8719    1.7805   28.0628 O.2     1  UNL1       -0.1499
     10 O           0.0773    2.4692   26.7931 O.2     1  UNL1       -0.1499
     11 C           2.0338    0.7062   27.6009 C.ar    1  UNL1        0.1253
     12 C           1.8554    0.9120   29.0759 C.ar    1  UNL1        0.0202
     13 C           2.7131    0.1570   30.0476 C.ar    1  UNL1        0.0015
     14 C           3.7493   -0.8038   29.5442 C.ar    1  UNL1        0.0046
     15 C           3.9277   -1.0095   28.0692 C.ar    1  UNL1        0.0547
     16 C           3.0700   -0.2545   27.0975 C.ar    1  UNL1        0.0247
     17 C           5.2236   -2.2055   27.6301 C.2     1  UNL1        0.2461
     18 O           5.7898   -2.6847   28.9339 O.2     1  UNL1       -0.2701
     19 N           6.0631   -2.9998   26.6739 N.am    1  UNL1       -0.2969
     20 C           6.6048   -3.5320   25.3803 C.3     1  UNL1        0.1181
     21 C           6.7832   -3.7377   23.9052 C.ar    1  UNL1        0.0167
     22 C           7.7262   -4.6231   23.0663 C.ar    1  UNL1        0.0962
     23 N           7.9046   -4.8288   21.5912 N.ar    1  UNL1       -0.2425
     24 C           7.0469   -4.0738   20.6195 C.ar    1  UNL1        0.1003
     25 C           6.0107   -3.1131   21.1228 C.ar    1  UNL1        0.0366
     26 C           6.5769   -3.5922   22.4266 C.ar    1  UNL1        0.0020
     27 C           5.1530   -2.3581   20.1511 C.ar    1  UNL1        0.0860
     28 C           5.8239   -3.0048   18.9757 C.ar    1  UNL1        0.1180
     29 N           5.1926   -2.4646   17.7267 N.ar    1  UNL1       -0.2249
     30 C           4.1316   -1.4842   18.1303 C.ar    1  UNL1        0.1478
     31 C           2.7764   -0.2566   17.7912 C.ar    1  UNL1        0.0374
     32 C           1.8681    0.5970   18.6255 C.ar    1  UNL1        0.0046
     33 C           1.9631    0.5537   20.1219 C.ar    1  UNL1        0.0192
     34 C           2.9993   -0.4070   19.6185 C.ar    1  UNL1        0.0814
     35 N           4.1071   -1.4183   19.6287 N.ar    1  UNL1       -0.2887
     36 H          -0.0703    2.5709   25.6557 H       1  UNL1        0.1739
     37 H           6.6261   -3.4953   27.3117 H       1  UNL1        0.1501
     38 C          -2.9263    3.4686   24.4807 C.3     1  UNL1        0.2543
     39 O          -1.4819    3.8200   24.2804 O.3     1  UNL1       -0.4553
@<TRIPOS>BOND
     1    38    39    1
     2    39     1    1
     3     1     2   ar
     4     2     3   ar
     5     3     4   ar
     6     4     5   ar
     7     5     6   ar
     8     6     7    1
     9     7     8    1
    10     8     9    2
    11     8    10    2
    12     8    11    1
    13    11    12   ar
    14    12    13   ar
    15    13    14   ar
    16    14    15   ar
    17    15    16   ar
    18    15    17    1
    19    17    18    2
    20    17    19   am
    21    19    20    1
    22    20    21    1
    23    21    22   ar
    24    22    23   ar
    25    23    24   ar
    26    24    25   ar
    27    25    26   ar
    28    25    27    1
    29    27    28   ar
    30    28    29   ar
    31    29    30   ar
    32    30    31   ar
    33    31    32   ar
    34    32    33   ar
    35    33    34   ar
    36    34    35   ar
    37     6     1   ar
    38    16    11   ar
    39    26    21   ar
    40    35    27   ar
    41    33     4    1
    42    35    30   ar
    43     7    36    1
    44    19    37    1
