@<TRIPOS>MOLECULE
*****
 31 33 0 0 0
SMALL
GASTEIGER

@<TRIPOS>ATOM
      1 C           6.0595   -3.0566   20.2152 C.ar    1  UNL1       -0.0141
      2 C           6.6245   -4.0571   21.1794 C.ar    1  UNL1        0.0303
      3 C           8.0542   -3.9494   21.6201 C.ar    1  UNL1        0.1319
      4 N           8.9190   -2.8412   21.0966 N.ar    1  UNL1       -0.2290
      5 C           8.3540   -1.8407   20.1324 C.ar    1  UNL1        0.1045
      6 C           6.9242   -1.9484   19.6917 C.ar    1  UNL1        0.0686
      7 C           4.2064   -2.3235   20.9423 C.3     1  UNL1        0.0044
      8 C           4.6297   -3.1643   19.7745 C.3     1  UNL1        0.0192
      9 C           5.0530   -4.0051   18.6067 C.3     1  UNL1        0.0044
     10 C           3.2000   -3.2720   19.3338 C.3     1  UNL1        0.0044
     11 C           6.3592   -0.9479   18.7274 C.2     1  UNL1        0.2471
     12 O           6.4722   -1.1832   17.2503 O.2     1  UNL1       -0.2701
     13 N           5.6813    0.2880   19.2402 N.am    1  UNL1       -0.3008
     14 H           5.6071    0.4424   20.2097 H       1  UNL1        0.1497
     15 C           5.1163    1.2885   18.2759 C.3     1  UNL1        0.0898
     16 C           3.6527    1.6153   18.3059 C.3     1  UNL1        0.0246
     17 C           2.6377    0.5109   18.3154 C.3     1  UNL1        0.0338
     18 C           1.1740    0.8376   18.3453 C.3     1  UNL1        0.1422
     19 O           0.7253    2.2688   18.3657 O.3     1  UNL1       -0.3538
     20 C           1.7403    3.3732   18.3562 C.3     1  UNL1        0.1422
     21 C           3.2040    3.0465   18.3263 C.3     1  UNL1        0.0338
     22 N           8.6192   -4.9499   22.5844 N.pl3   1  UNL1       -0.2973
     23 H           9.3852   -5.5093   22.3209 H       1  UNL1        0.1536
     24 C           8.0170   -5.0980   23.9502 C.ar    1  UNL1        0.0601
     25 C           7.4055   -3.9106   24.6331 C.ar    1  UNL1        0.0164
     26 C           6.8033   -4.0588   25.9989 C.ar    1  UNL1        0.0127
     27 C           6.8126   -5.3943   26.6818 C.ar    1  UNL1        0.0586
     28 CL          6.2104   -5.5424   28.0476 Cl      1  UNL1       -0.0822
     29 C           7.4241   -6.5816   25.9990 C.ar    1  UNL1        0.0240
     30 C           8.0263   -6.4335   24.6332 C.ar    1  UNL1        0.0719
     31 CL          8.6379   -7.6209   23.9503 Cl      1  UNL1       -0.0809
@<TRIPOS>BOND
     1     7     8    1
     2     8     9    1
     3     8    10    1
     4     8     1    1
     5     1     2   ar
     6     2     3   ar
     7     3    22    1
     8    22    24    1
     9    24    25   ar
    10    25    26   ar
    11    26    27   ar
    12    27    28    1
    13    27    29   ar
    14    29    30   ar
    15    30    31    1
    16     3     4   ar
    17     4     5   ar
    18     5     6   ar
    19     6    11    1
    20    11    12    2
    21    11    13   am
    22    13    15    1
    23    15    16    1
    24    16    17    1
    25    17    18    1
    26    18    19    1
    27    19    20    1
    28    20    21    1
    29     6     1   ar
    30    21    16    1
    31    30    24   ar
    32    22    23    1
    33    13    14    1
@<TRIPOS>MOLECULE
*****
 31 33 0 0 0
SMALL
GASTEIGER

@<TRIPOS>ATOM
      1 C           5.9345   -3.5149   19.9635 C.ar    1  UNL1       -0.0141
      2 C           6.9506   -4.2673   20.7705 C.ar    1  UNL1        0.0303
      3 C           8.3230   -3.6956   20.9695 C.ar    1  UNL1        0.1319
      4 N           8.6793   -2.3715   20.3614 N.ar    1  UNL1       -0.2290
      5 C           7.6632   -1.6191   19.5544 C.ar    1  UNL1        0.1045
      6 C           6.2908   -2.1908   19.3554 C.ar    1  UNL1        0.0686
      7 C           5.0624   -4.8805   18.5943 C.3     1  UNL1        0.0044
      8 C           4.5620   -4.0866   19.7645 C.3     1  UNL1        0.0192
      9 C           4.0617   -3.2927   20.9347 C.3     1  UNL1        0.0044
     10 C           3.1896   -4.6583   19.5656 C.3     1  UNL1        0.0044
     11 C           5.2746   -1.4383   18.5484 C.2     1  UNL1        0.2471
     12 O           5.0308   -1.8093   17.1156 O.2     1  UNL1       -0.2701
     13 N           4.5024   -0.3150   19.1741 N.am    1  UNL1       -0.3008
     14 H           4.6624   -0.0715   20.1145 H       1  UNL1        0.1497
     15 C           3.4862    0.4375   18.3670 C.3     1  UNL1        0.0898
     16 C           2.1635    0.7986   18.9752 C.3     1  UNL1        0.0246
     17 C           1.4886   -0.1504   19.9206 C.3     1  UNL1        0.0338
     18 C           0.1658    0.2107   20.5288 C.3     1  UNL1        0.1422
     19 O          -0.4821    1.5208   20.1915 O.3     1  UNL1       -0.3538
     20 C           0.1928    2.4698   19.2460 C.3     1  UNL1        0.1422
     21 C           1.5155    2.1087   18.6378 C.3     1  UNL1        0.0338
     22 N           9.3392   -4.4481   21.7766 N.pl3   1  UNL1       -0.2973
     23 H          10.2949   -4.3822   21.5496 H       1  UNL1        0.1536
     24 C           8.8991   -5.3009   22.9294 C.ar    1  UNL1        0.0601
     25 C           8.9936   -6.7951   22.8359 C.ar    1  UNL1        0.0164
     26 C           8.5535   -7.6479   23.9888 C.ar    1  UNL1        0.0127
     27 C           8.0190   -7.0066   25.2351 C.ar    1  UNL1        0.0586
     28 CL          7.5790   -7.8594   26.3879 Cl      1  UNL1       -0.0822
     29 C           7.9246   -5.5125   25.3284 C.ar    1  UNL1        0.0240
     30 C           8.3647   -4.6597   24.1756 C.ar    1  UNL1        0.0719
     31 CL          8.2703   -3.1655   24.2691 Cl      1  UNL1       -0.0809
@<TRIPOS>BOND
     1     7     8    1
     2     8     9    1
     3     8    10    1
     4     8     1    1
     5     1     2   ar
     6     2     3   ar
     7     3    22    1
     8    22    24    1
     9    24    25   ar
    10    25    26   ar
    11    26    27   ar
    12    27    28    1
    13    27    29   ar
    14    29    30   ar
    15    30    31    1
    16     3     4   ar
    17     4     5   ar
    18     5     6   ar
    19     6    11    1
    20    11    12    2
    21    11    13   am
    22    13    15    1
    23    15    16    1
    24    16    17    1
    25    17    18    1
    26    18    19    1
    27    19    20    1
    28    20    21    1
    29     6     1   ar
    30    21    16    1
    31    30    24   ar
    32    22    23    1
    33    13    14    1
@<TRIPOS>MOLECULE
*****
 31 33 0 0 0
SMALL
GASTEIGER

@<TRIPOS>ATOM
      1 C           5.3450   -2.1950   20.6142 C.ar    1  UNL1       -0.0141
      2 C           4.2981   -1.5138   19.7836 C.ar    1  UNL1        0.0303
      3 C           4.5675   -1.2089   18.3398 C.ar    1  UNL1        0.1319
      4 N           5.8837   -1.5852   17.7267 N.ar    1  UNL1       -0.2290
      5 C           6.9305   -2.2664   18.5573 C.ar    1  UNL1        0.1045
      6 C           6.6612   -2.5713   20.0011 C.ar    1  UNL1        0.0686
      7 C           4.5390   -3.8468   21.6735 C.3     1  UNL1        0.0044
      8 C           5.0756   -2.4999   22.0580 C.3     1  UNL1        0.0192
      9 C           5.6122   -1.1529   22.4426 C.3     1  UNL1        0.0044
     10 C           4.8063   -2.8048   23.5018 C.3     1  UNL1        0.0044
     11 C           7.7081   -3.2525   20.8318 C.2     1  UNL1        0.2471
     12 O           8.6674   -2.4363   21.6464 O.2     1  UNL1       -0.2701
     13 N           7.7957   -4.7498   20.8478 N.am    1  UNL1       -0.3008
     14 H           7.1661   -5.2855   20.3131 H       1  UNL1        0.1497
     15 C           8.8426   -5.4311   21.6785 C.3     1  UNL1        0.0898
     16 C           8.5069   -5.9176   23.0570 C.3     1  UNL1        0.0246
     17 C           7.7234   -5.0434   23.9907 C.3     1  UNL1        0.0338
     18 C           7.3876   -5.5299   25.3694 C.3     1  UNL1        0.1422
     19 O           7.8353   -6.8907   25.8142 O.3     1  UNL1       -0.3538
     20 C           8.6188   -7.7649   24.8804 C.3     1  UNL1        0.1422
     21 C           8.9546   -7.2783   23.5019 C.3     1  UNL1        0.0338
     22 N           3.5205   -0.5277   17.5091 N.pl3   1  UNL1       -0.2973
     23 H           3.3093   -0.8659   16.6090 H       1  UNL1        0.1536
     24 C           2.7954    0.6688   18.0500 C.ar    1  UNL1        0.0601
     25 C           1.3383    0.5710   18.3930 C.ar    1  UNL1        0.0164
     26 C           0.6132    1.7675   18.9338 C.ar    1  UNL1        0.0127
     27 C           1.3451    3.0619   19.1317 C.ar    1  UNL1        0.0586
     28 CL          0.6200    4.2584   19.6726 Cl      1  UNL1       -0.0822
     29 C           2.8021    3.1596   18.7888 C.ar    1  UNL1        0.0240
     30 C           3.5272    1.9631   18.2479 C.ar    1  UNL1        0.0719
     31 CL          4.9842    2.0609   17.9049 Cl      1  UNL1       -0.0809
@<TRIPOS>BOND
     1     7     8    1
     2     8     9    1
     3     8    10    1
     4     8     1    1
     5     1     2   ar
     6     2     3   ar
     7     3    22    1
     8    22    24    1
     9    24    25   ar
    10    25    26   ar
    11    26    27   ar
    12    27    28    1
    13    27    29   ar
    14    29    30   ar
    15    30    31    1
    16     3     4   ar
    17     4     5   ar
    18     5     6   ar
    19     6    11    1
    20    11    12    2
    21    11    13   am
    22    13    15    1
    23    15    16    1
    24    16    17    1
    25    17    18    1
    26    18    19    1
    27    19    20    1
    28    20    21    1
    29     6     1   ar
    30    21    16    1
    31    30    24   ar
    32    22    23    1
    33    13    14    1
@<TRIPOS>MOLECULE
*****
 31 33 0 0 0
SMALL
GASTEIGER

@<TRIPOS>ATOM
      1 C           4.3973   -0.7534   31.9639 C.ar    1  UNL1       -0.0141
      2 C           3.6316   -1.0648   30.7122 C.ar    1  UNL1        0.0303
      3 C           2.3836   -0.2991   30.3863 C.ar    1  UNL1        0.1319
      4 N           1.9013    0.7780   31.3121 N.ar    1  UNL1       -0.2290
      5 C           2.6669    1.0893   32.5638 C.ar    1  UNL1        0.1045
      6 C           3.9149    0.3237   32.8897 C.ar    1  UNL1        0.0686
      7 C           4.8254   -2.5500   33.0075 C.3     1  UNL1        0.0044
      8 C           5.6453   -1.5191   32.2898 C.3     1  UNL1        0.0192
      9 C           6.4652   -0.4882   31.5721 C.3     1  UNL1        0.0044
     10 C           6.8933   -2.2848   32.6156 C.3     1  UNL1        0.0044
     11 C           4.6806    0.6351   34.1415 C.2     1  UNL1        0.2471
     12 O           5.7179    1.7186   34.1362 O.2     1  UNL1       -0.2701
     13 N           4.4089   -0.1369   35.3985 N.am    1  UNL1       -0.3008
     14 H           3.7281   -0.8481   35.4020 H       1  UNL1        0.1497
     15 C           5.1746    0.1745   36.6503 C.3     1  UNL1        0.0898
     16 C           4.6083    1.1310   37.6574 C.3     1  UNL1        0.0246
     17 C           3.1338    1.1448   37.9321 C.3     1  UNL1        0.0338
     18 C           2.5674    2.1014   38.9393 C.3     1  UNL1        0.1422
     19 O           3.4757    3.0441   39.6717 O.3     1  UNL1       -0.3538
     20 C           4.9503    3.0302   39.3969 C.3     1  UNL1        0.1422
     21 C           5.5165    2.0737   38.3898 C.3     1  UNL1        0.0338
     22 N           1.6180   -0.6106   29.1346 N.pl3   1  UNL1       -0.2973
     23 H           1.5515   -1.5399   28.8165 H       1  UNL1        0.1536
     24 C           0.9536    0.4940   28.3673 C.ar    1  UNL1        0.0601
     25 C           1.7851    1.5514   27.7035 C.ar    1  UNL1        0.0164
     26 C           1.1207    2.6560   26.9363 C.ar    1  UNL1        0.0127
     27 C          -0.3750    2.7031   26.8329 C.ar    1  UNL1        0.0586
     28 CL         -1.0393    3.8077   26.0657 Cl      1  UNL1       -0.0822
     29 C          -1.2063    1.6457   27.4968 C.ar    1  UNL1        0.0240
     30 C          -0.5420    0.5412   28.2640 C.ar    1  UNL1        0.0719
     31 CL         -1.3734   -0.5163   28.9279 Cl      1  UNL1       -0.0809
@<TRIPOS>BOND
     1     7     8    1
     2     8     9    1
     3     8    10    1
     4     8     1    1
     5     1     2   ar
     6     2     3   ar
     7     3    22    1
     8    22    24    1
     9    24    25   ar
    10    25    26   ar
    11    26    27   ar
    12    27    28    1
    13    27    29   ar
    14    29    30   ar
    15    30    31    1
    16     3     4   ar
    17     4     5   ar
    18     5     6   ar
    19     6    11    1
    20    11    12    2
    21    11    13   am
    22    13    15    1
    23    15    16    1
    24    16    17    1
    25    17    18    1
    26    18    19    1
    27    19    20    1
    28    20    21    1
    29     6     1   ar
    30    21    16    1
    31    30    24   ar
    32    22    23    1
    33    13    14    1
@<TRIPOS>MOLECULE
*****
 31 33 0 0 0
SMALL
GASTEIGER

@<TRIPOS>ATOM
      1 C          -8.0452  -18.2627   21.9377 C.ar    1  UNL1       -0.0141
      2 C          -6.6822  -18.8791   21.8273 C.ar    1  UNL1        0.0303
      3 C          -6.3286  -19.7074   20.6278 C.ar    1  UNL1        0.1319
      4 N          -7.3380  -19.9194   19.5387 N.ar    1  UNL1       -0.2290
      5 C          -8.7010  -19.3029   19.6492 C.ar    1  UNL1        0.1045
      6 C          -9.0546  -18.4746   20.8487 C.ar    1  UNL1        0.0686
      7 C          -8.8250  -18.6734   23.8673 C.3     1  UNL1        0.0044
      8 C          -8.3987  -17.4343   23.1372 C.3     1  UNL1        0.0192
      9 C          -7.9724  -16.1952   22.4072 C.3     1  UNL1        0.0044
     10 C          -8.7523  -16.6060   24.3368 C.3     1  UNL1        0.0044
     11 C         -10.4176  -17.8581   20.9591 C.2     1  UNL1        0.2471
     12 O         -10.7906  -16.7005   20.0811 O.2     1  UNL1       -0.2701
     13 N         -11.4077  -18.3993   21.9474 N.am    1  UNL1       -0.3008
     14 H         -11.1629  -19.1591   22.5236 H       1  UNL1        0.1497
     15 C         -12.7708  -17.7829   22.0578 C.3     1  UNL1        0.0898
     16 C         -13.6545  -18.1204   23.2219 C.3     1  UNL1        0.0246
     17 C         -13.0808  -18.1800   24.6065 C.3     1  UNL1        0.0338
     18 C         -13.9645  -18.5175   25.7707 C.3     1  UNL1        0.1422
     19 O         -15.4219  -18.7954   25.5501 O.3     1  UNL1       -0.3538
     20 C         -15.9957  -18.7358   24.1654 C.3     1  UNL1        0.1422
     21 C         -15.1119  -18.3983   23.0013 C.3     1  UNL1        0.0338
     22 N          -4.9655  -20.3239   20.5174 N.pl3   1  UNL1       -0.2973
     23 H          -4.8660  -21.3033   20.5266 H       1  UNL1        0.1536
     24 C          -3.7542  -19.4480   20.3929 C.ar    1  UNL1        0.0601
     25 C          -3.2234  -19.0905   19.0361 C.ar    1  UNL1        0.0164
     26 C          -2.0121  -18.2147   18.9116 C.ar    1  UNL1        0.0127
     27 C          -1.3315  -17.6963   20.1438 C.ar    1  UNL1        0.0586
     28 CL         -0.1201  -16.8205   20.0193 Cl      1  UNL1       -0.0822
     29 C          -1.8623  -18.0538   21.5004 C.ar    1  UNL1        0.0240
     30 C          -3.0736  -18.9297   21.6249 C.ar    1  UNL1        0.0719
     31 CL         -3.6044  -19.2872   22.9816 Cl      1  UNL1       -0.0809
@<TRIPOS>BOND
     1     7     8    1
     2     8     9    1
     3     8    10    1
     4     8     1    1
     5     1     2   ar
     6     2     3   ar
     7     3    22    1
     8    22    24    1
     9    24    25   ar
    10    25    26   ar
    11    26    27   ar
    12    27    28    1
    13    27    29   ar
    14    29    30   ar
    15    30    31    1
    16     3     4   ar
    17     4     5   ar
    18     5     6   ar
    19     6    11    1
    20    11    12    2
    21    11    13   am
    22    13    15    1
    23    15    16    1
    24    16    17    1
    25    17    18    1
    26    18    19    1
    27    19    20    1
    28    20    21    1
    29     6     1   ar
    30    21    16    1
    31    30    24   ar
    32    22    23    1
    33    13    14    1
@<TRIPOS>MOLECULE
*****
 31 33 0 0 0
SMALL
GASTEIGER

@<TRIPOS>ATOM
      1 C           2.3687    1.5266   19.9724 C.ar    1  UNL1       -0.0141
      2 C           1.5250    2.7586   19.8298 C.ar    1  UNL1        0.0303
      3 C           0.0625    2.7083   20.1592 C.ar    1  UNL1        0.1319
      4 N          -0.5564    1.4261   20.6312 N.ar    1  UNL1       -0.2290
      5 C           0.2873    0.1941   20.7738 C.ar    1  UNL1        0.1045
      6 C           1.7499    0.2444   20.4444 C.ar    1  UNL1        0.0686
      7 C           3.5232    1.2149   18.2203 C.3     1  UNL1        0.0044
      8 C           3.8312    1.5769   19.6430 C.3     1  UNL1        0.0192
      9 C           4.1392    1.9388   21.0658 C.3     1  UNL1        0.0044
     10 C           5.2937    1.6272   19.3136 C.3     1  UNL1        0.0044
     11 C           2.5936   -0.9877   20.5871 C.2     1  UNL1        0.2471
     12 O           3.2523   -1.2978   21.8985 O.2     1  UNL1       -0.2701
     13 N           2.7784   -1.9095   19.4184 N.am    1  UNL1       -0.3008
     14 H           2.3461   -1.7060   18.5577 H       1  UNL1        0.1497
     15 C           3.6222   -3.1416   19.5611 C.3     1  UNL1        0.0898
     16 C           5.1180   -3.0320   19.5469 C.3     1  UNL1        0.0246
     17 C           5.8014   -2.2331   18.4770 C.3     1  UNL1        0.0338
     18 C           7.2974   -2.1235   18.4628 C.3     1  UNL1        0.1422
     19 O           8.1099   -2.8128   19.5186 O.3     1  UNL1       -0.3538
     20 C           7.4265   -3.6117   20.5885 C.3     1  UNL1        0.1422
     21 C           5.9306   -3.7213   20.6027 C.3     1  UNL1        0.0338
     22 N          -0.7812    3.9404   20.0165 N.pl3   1  UNL1       -0.2973
     23 H          -0.3789    4.8299   20.1431 H       1  UNL1        0.1536
     24 C          -2.2380    3.8170   19.6808 C.ar    1  UNL1        0.0601
     25 C          -2.6881    3.9000   18.2523 C.ar    1  UNL1        0.0164
     26 C          -4.1449    3.7766   17.9167 C.ar    1  UNL1        0.0127
     27 C          -5.1515    3.5704   19.0096 C.ar    1  UNL1        0.0586
     28 CL         -6.6082    3.4470   18.6739 Cl      1  UNL1       -0.0822
     29 C          -4.7013    3.4874   20.4380 C.ar    1  UNL1        0.0240
     30 C          -3.2446    3.6108   20.7736 C.ar    1  UNL1        0.0719
     31 CL         -2.7944    3.5278   22.2021 Cl      1  UNL1       -0.0809
@<TRIPOS>BOND
     1     7     8    1
     2     8     9    1
     3     8    10    1
     4     8     1    1
     5     1     2   ar
     6     2     3   ar
     7     3    22    1
     8    22    24    1
     9    24    25   ar
    10    25    26   ar
    11    26    27   ar
    12    27    28    1
    13    27    29   ar
    14    29    30   ar
    15    30    31    1
    16     3     4   ar
    17     4     5   ar
    18     5     6   ar
    19     6    11    1
    20    11    12    2
    21    11    13   am
    22    13    15    1
    23    15    16    1
    24    16    17    1
    25    17    18    1
    26    18    19    1
    27    19    20    1
    28    20    21    1
    29     6     1   ar
    30    21    16    1
    31    30    24   ar
    32    22    23    1
    33    13    14    1
@<TRIPOS>MOLECULE
*****
 31 33 0 0 0
SMALL
GASTEIGER

@<TRIPOS>ATOM
      1 C           1.6737    1.9560   19.0542 C.ar    1  UNL1       -0.0141
      2 C           2.5476    0.9878   18.3133 C.ar    1  UNL1        0.0303
      3 C           2.7691   -0.3918   18.8590 C.ar    1  UNL1        0.1319
      4 N           2.1167   -0.8031   20.1455 N.ar    1  UNL1       -0.2290
      5 C           1.2428    0.1651   20.8863 C.ar    1  UNL1        0.1045
      6 C           1.0213    1.5446   20.3407 C.ar    1  UNL1        0.0686
      7 C           2.7417    3.7874   19.1275 C.3     1  UNL1        0.0044
      8 C           1.4522    3.3356   18.5085 C.3     1  UNL1        0.0192
      9 C           0.1628    2.8837   17.8895 C.3     1  UNL1        0.0044
     10 C           1.2307    4.7151   17.9628 C.3     1  UNL1        0.0044
     11 C           0.1474    2.5129   21.0816 C.2     1  UNL1        0.2471
     12 O           0.7646    3.5535   21.9681 O.2     1  UNL1       -0.2701
     13 N          -1.3437    2.4404   20.9359 N.am    1  UNL1       -0.3008
     14 H          -1.7489    1.7574   20.3540 H       1  UNL1        0.1497
     15 C          -2.2177    3.4086   21.6768 C.3     1  UNL1        0.0898
     16 C          -3.6391    3.6174   21.2458 C.3     1  UNL1        0.0246
     17 C          -4.0048    3.5192   19.7944 C.3     1  UNL1        0.0338
     18 C          -5.4264    3.7279   19.3633 C.3     1  UNL1        0.1422
     19 O          -6.4821    4.0349   20.3837 O.3     1  UNL1       -0.3538
     20 C          -6.1164    4.1331   21.8351 C.3     1  UNL1        0.1422
     21 C          -4.6949    3.9243   22.2662 C.3     1  UNL1        0.0338
     22 N           3.6430   -1.3600   18.1181 N.pl3   1  UNL1       -0.2973
     23 H           3.4889   -1.5289   17.1605 H       1  UNL1        0.1536
     24 C           4.7516   -2.0708   18.8362 C.ar    1  UNL1        0.0601
     25 C           6.0619   -1.3776   19.0662 C.ar    1  UNL1        0.0164
     26 C           7.1705   -2.0884   19.7843 C.ar    1  UNL1        0.0127
     27 C           6.9689   -3.4924   20.2725 C.ar    1  UNL1        0.0586
     28 CL          8.0775   -4.2032   20.9906 Cl      1  UNL1       -0.0822
     29 C           5.6587   -4.1855   20.0425 C.ar    1  UNL1        0.0240
     30 C           4.5500   -3.4747   19.3244 C.ar    1  UNL1        0.0719
     31 CL          3.2398   -4.1679   19.0944 Cl      1  UNL1       -0.0809
@<TRIPOS>BOND
     1     7     8    1
     2     8     9    1
     3     8    10    1
     4     8     1    1
     5     1     2   ar
     6     2     3   ar
     7     3    22    1
     8    22    24    1
     9    24    25   ar
    10    25    26   ar
    11    26    27   ar
    12    27    28    1
    13    27    29   ar
    14    29    30   ar
    15    30    31    1
    16     3     4   ar
    17     4     5   ar
    18     5     6   ar
    19     6    11    1
    20    11    12    2
    21    11    13   am
    22    13    15    1
    23    15    16    1
    24    16    17    1
    25    17    18    1
    26    18    19    1
    27    19    20    1
    28    20    21    1
    29     6     1   ar
    30    21    16    1
    31    30    24   ar
    32    22    23    1
    33    13    14    1
@<TRIPOS>MOLECULE
*****
 31 33 0 0 0
SMALL
GASTEIGER

@<TRIPOS>ATOM
      1 C           2.7437    1.0877   20.0442 C.ar    1  UNL1       -0.0141
      2 C           1.8411    2.2835   19.9704 C.ar    1  UNL1        0.0303
      3 C           0.3642    2.1224   20.1776 C.ar    1  UNL1        0.1319
      4 N          -0.2101    0.7655   20.4585 N.ar    1  UNL1       -0.2290
      5 C           0.6925   -0.4303   20.5323 C.ar    1  UNL1        0.1045
      6 C           2.1694   -0.2692   20.3251 C.ar    1  UNL1        0.0686
      7 C           4.0287    1.1040   18.3564 C.3     1  UNL1        0.0044
      8 C           4.2205    1.2489   19.8370 C.3     1  UNL1        0.0192
      9 C           4.4124    1.3938   21.3176 C.3     1  UNL1        0.0044
     10 C           5.6974    1.4100   19.6299 C.3     1  UNL1        0.0044
     11 C           3.0720   -1.4650   20.3989 C.2     1  UNL1        0.2471
     12 O           3.6123   -1.9162   21.7235 O.2     1  UNL1       -0.2701
     13 N           3.4342   -2.2096   19.1482 N.am    1  UNL1       -0.3008
     14 H           3.0795   -1.9134   18.2789 H       1  UNL1        0.1497
     15 C           4.3367   -3.4054   19.2220 C.3     1  UNL1        0.0898
     16 C           5.8112   -3.2207   19.4262 C.3     1  UNL1        0.0246
     17 C           6.5160   -3.9665   20.5203 C.3     1  UNL1        0.0338
     18 C           7.9906   -3.7818   20.7246 C.3     1  UNL1        0.1422
     19 O           8.7602   -2.8514   19.8348 O.3     1  UNL1       -0.3538
     20 C           8.0554   -2.1056   18.7406 C.3     1  UNL1        0.1422
     21 C           6.5809   -2.2903   18.5364 C.3     1  UNL1        0.0338
     22 N          -0.5383    3.3182   20.1038 N.pl3   1  UNL1       -0.2973
     23 H          -0.3276    4.0567   19.4878 H       1  UNL1        0.1536
     24 C          -1.7620    3.3888   20.9685 C.ar    1  UNL1        0.0601
     25 C          -3.1193    3.1763   20.3662 C.ar    1  UNL1        0.0164
     26 C          -4.3429    3.2469   21.2310 C.ar    1  UNL1        0.0127
     27 C          -4.2092    3.5300   22.6980 C.ar    1  UNL1        0.0586
     28 CL         -5.4328    3.6006   23.5627 Cl      1  UNL1       -0.0822
     29 C          -2.8519    3.7424   23.3002 C.ar    1  UNL1        0.0240
     30 C          -1.6283    3.6719   22.4354 C.ar    1  UNL1        0.0719
     31 CL         -0.2710    3.8844   23.0377 Cl      1  UNL1       -0.0809
@<TRIPOS>BOND
     1     7     8    1
     2     8     9    1
     3     8    10    1
     4     8     1    1
     5     1     2   ar
     6     2     3   ar
     7     3    22    1
     8    22    24    1
     9    24    25   ar
    10    25    26   ar
    11    26    27   ar
    12    27    28    1
    13    27    29   ar
    14    29    30   ar
    15    30    31    1
    16     3     4   ar
    17     4     5   ar
    18     5     6   ar
    19     6    11    1
    20    11    12    2
    21    11    13   am
    22    13    15    1
    23    15    16    1
    24    16    17    1
    25    17    18    1
    26    18    19    1
    27    19    20    1
    28    20    21    1
    29     6     1   ar
    30    21    16    1
    31    30    24   ar
    32    22    23    1
    33    13    14    1
@<TRIPOS>MOLECULE
*****
 31 33 0 0 0
SMALL
GASTEIGER

@<TRIPOS>ATOM
      1 C           4.9132   -1.6213   23.2173 C.ar    1  UNL1       -0.0141
      2 C           4.0319   -1.3996   22.0240 C.ar    1  UNL1        0.0303
      3 C           3.9839   -2.4214   20.9269 C.ar    1  UNL1        0.1319
      4 N           4.8172   -3.6649   21.0231 N.ar    1  UNL1       -0.2290
      5 C           5.6985   -3.8866   22.2165 C.ar    1  UNL1        0.1045
      6 C           5.7465   -2.8648   23.3136 C.ar    1  UNL1        0.0686
      7 C           6.0612    0.1223   23.5941 C.3     1  UNL1        0.0044
      8 C           4.9611   -0.5995   24.3144 C.3     1  UNL1        0.0192
      9 C           3.8611   -1.3213   25.0348 C.3     1  UNL1        0.0044
     10 C           5.0091    0.4223   25.4115 C.3     1  UNL1        0.0044
     11 C           6.6278   -3.0865   24.5070 C.2     1  UNL1        0.2471
     12 O           8.0002   -2.4826   24.5484 O.2     1  UNL1       -0.2701
     13 N           6.1367   -3.9121   25.6590 N.am    1  UNL1       -0.3008
     14 H           5.2359   -4.3085   25.6319 H       1  UNL1        0.1497
     15 C           7.0180   -4.1338   26.8524 C.3     1  UNL1        0.0898
     16 C           7.4709   -5.5201   27.2031 C.3     1  UNL1        0.0246
     17 C           7.1983   -6.6580   26.2646 C.3     1  UNL1        0.0338
     18 C           7.6512   -8.0444   26.6153 C.3     1  UNL1        0.1422
     19 O           8.3767   -8.2928   27.9044 O.3     1  UNL1       -0.3538
     20 C           8.6493   -7.1548   28.8429 C.3     1  UNL1        0.1422
     21 C           8.1964   -5.7685   28.4923 C.3     1  UNL1        0.0338
     22 N           3.1026   -2.1997   19.7334 N.pl3   1  UNL1       -0.2973
     23 H           3.0004   -2.9090   19.0584 H       1  UNL1        0.1536
     24 C           2.3770   -0.8973   19.5686 C.ar    1  UNL1        0.0601
     25 C           1.0588   -0.6815   20.2513 C.ar    1  UNL1        0.0164
     26 C           0.3332    0.6209   20.0865 C.ar    1  UNL1        0.0127
     27 C           0.9257    1.7076   19.2390 C.ar    1  UNL1        0.0586
     28 CL          0.2001    3.0100   19.0741 Cl      1  UNL1       -0.0822
     29 C           2.2438    1.4917   18.5563 C.ar    1  UNL1        0.0240
     30 C           2.9694    0.1893   18.7212 C.ar    1  UNL1        0.0719
     31 CL          4.2876   -0.0265   18.0385 Cl      1  UNL1       -0.0809
@<TRIPOS>BOND
     1     7     8    1
     2     8     9    1
     3     8    10    1
     4     8     1    1
     5     1     2   ar
     6     2     3   ar
     7     3    22    1
     8    22    24    1
     9    24    25   ar
    10    25    26   ar
    11    26    27   ar
    12    27    28    1
    13    27    29   ar
    14    29    30   ar
    15    30    31    1
    16     3     4   ar
    17     4     5   ar
    18     5     6   ar
    19     6    11    1
    20    11    12    2
    21    11    13   am
    22    13    15    1
    23    15    16    1
    24    16    17    1
    25    17    18    1
    26    18    19    1
    27    19    20    1
    28    20    21    1
    29     6     1   ar
    30    21    16    1
    31    30    24   ar
    32    22    23    1
    33    13    14    1
