@<TRIPOS>MOLECULE
*****
 35 37 0 0 0
SMALL
GASTEIGER

@<TRIPOS>ATOM
      1 C         -10.3160  -17.2491   23.3438 C.3     1  UNL1        0.1326
      2 C         -11.6959  -16.6892   23.5240 C.3     1  UNL1        0.0276
      3 C         -12.8739  -16.7899   22.6010 C.3     1  UNL1        0.0042
      4 C         -12.9632  -17.4754   21.2698 C.3     1  UNL1        0.0247
      5 C         -11.8964  -18.2296   20.5329 C.3     1  UNL1        0.1103
      6 N         -10.4768  -18.4844   20.9451 N.ar    1  UNL1       -0.2802
      7 C          -9.7735  -18.0482   22.1960 C.ar    1  UNL1        0.1410
      8 N          -8.3352  -18.4136   22.4142 N.ar    1  UNL1       -0.2228
      9 C          -7.6001  -19.2155   21.3813 C.ar    1  UNL1        0.1740
     10 C          -8.3034  -19.6518   20.1304 C.ar    1  UNL1        0.2130
     11 O          -7.5685  -20.4536   19.0975 O.3     1  UNL1       -0.5006
     12 C          -9.7418  -19.2863   19.9122 C.ar    1  UNL1        0.2973
     13 O         -10.4451  -19.7227   18.6612 O.2     1  UNL1       -0.2636
     14 H          -6.6700  -20.6820   19.2337 H       1  UNL1        0.2924
     15 C          -8.4388  -15.7854   24.3847 C.2     1  UNL1        0.3032
     16 O          -8.4913  -14.8725   23.1956 O.2     1  UNL1       -0.2649
     17 N          -9.3511  -16.9737   24.4588 N.am    1  UNL1       -0.2654
     18 C          -9.2986  -17.8866   25.6478 C.3     1  UNL1        0.1157
     19 C          -5.0358  -15.1844   26.3363 C.3     1  UNL1        0.1154
     20 N          -6.0007  -15.4599   25.2213 N.am    1  UNL1       -0.2688
     21 C          -5.4925  -15.6851   23.8282 C.3     1  UNL1        0.1154
     22 C          -7.4739  -15.5100   25.4996 C.2     1  UNL1        0.3030
     23 O          -7.9820  -15.2847   26.8928 O.2     1  UNL1       -0.2649
     24 C          -6.1618  -19.5810   21.5994 C.2     1  UNL1        0.2671
     25 O          -5.5742  -20.7672   20.8939 O.2     1  UNL1       -0.2684
     26 N          -5.3111  -18.7604   22.5229 N.am    1  UNL1       -0.2956
     27 H          -5.6967  -17.9819   22.9859 H       1  UNL1        0.1501
     28 C          -3.8727  -19.1260   22.7409 C.3     1  UNL1        0.1166
     29 C          -2.7988  -18.4599   21.9327 C.ar    1  UNL1       -0.0024
     30 C          -2.0466  -19.2411   20.8964 C.ar    1  UNL1       -0.0003
     31 C          -0.9727  -18.5749   20.0883 C.ar    1  UNL1        0.0294
     32 C          -0.6511  -17.1277   20.3165 C.ar    1  UNL1        0.1401
     33 F           0.4228  -16.4616   19.5083 F       1  UNL1       -0.2042
     34 C          -1.4033  -16.3465   21.3528 C.ar    1  UNL1        0.0294
     35 C          -2.4772  -17.0127   22.1610 C.ar    1  UNL1       -0.0003
@<TRIPOS>BOND
     1    19    20    1
     2    20    21    1
     3    20    22   am
     4    22    23    2
     5    22    15    1
     6    15    16    2
     7    15    17   am
     8    17    18    1
     9     1    17    1
    10     1     2    1
    11     2     3    1
    12     3     4    1
    13     4     5    1
    14     5     6    1
    15     6     7   ar
    16     7     8   ar
    17     8     9   ar
    18     9    24    1
    19    24    25    2
    20    24    26   am
    21    26    28    1
    22    28    29    1
    23    29    30   ar
    24    30    31   ar
    25    31    32   ar
    26    32    33    1
    27    32    34   ar
    28    34    35   ar
    29     9    10   ar
    30    10    11    1
    31    10    12   ar
    32    12    13    2
    33     7     1    1
    34    35    29   ar
    35    12     6   ar
    36    26    27    1
    37    11    14    1
@<TRIPOS>MOLECULE
*****
 35 37 0 0 0
SMALL
GASTEIGER

@<TRIPOS>ATOM
      1 C         -12.7418   -4.8047   17.2679 C.3     1  UNL1        0.1326
      2 C         -11.7545   -5.7841   16.7057 C.3     1  UNL1        0.0276
      3 C         -10.3490   -5.5350   16.2449 C.3     1  UNL1        0.0042
      4 C          -9.5834   -4.2451   16.2326 C.3     1  UNL1        0.0247
      5 C         -10.0345   -2.8856   16.6780 C.3     1  UNL1        0.1103
      6 N         -11.3624   -2.4804   17.2458 N.ar    1  UNL1       -0.2802
      7 C         -12.5672   -3.3343   17.5083 C.ar    1  UNL1        0.1410
      8 N         -13.8085   -2.7226   18.0871 N.ar    1  UNL1       -0.2228
      9 C         -13.8449   -1.2567   18.4034 C.ar    1  UNL1        0.1740
     10 C         -12.6401   -0.4027   18.1409 C.ar    1  UNL1        0.2130
     11 O         -12.6764    1.0631   18.4571 O.3     1  UNL1       -0.5006
     12 C         -11.3988   -1.0145   17.5620 C.ar    1  UNL1        0.2973
     13 O         -10.1939   -0.1604   17.2995 O.2     1  UNL1       -0.2636
     14 H         -13.4517    1.4453   18.8187 H       1  UNL1        0.2924
     15 C         -14.3278   -5.8583   19.0356 C.2     1  UNL1        0.3032
     16 O         -13.2361   -5.7805   20.0614 O.2     1  UNL1       -0.2649
     17 N         -14.0806   -5.3704   17.6389 N.am    1  UNL1       -0.2654
     18 C         -15.1722   -5.4482   16.6131 C.3     1  UNL1        0.1157
     19 C         -17.2686   -8.4581   19.6207 C.3     1  UNL1        0.1154
     20 N         -15.9298   -7.8924   19.2498 N.am    1  UNL1       -0.2688
     21 C         -14.8543   -8.7950   18.7221 C.3     1  UNL1        0.1154
     22 C         -15.6666   -6.4240   19.4065 C.2     1  UNL1        0.3030
     23 O         -16.7421   -5.5213   19.9342 O.2     1  UNL1       -0.2649
     24 C         -15.0861   -0.6449   18.9822 C.2     1  UNL1        0.2671
     25 O         -15.8513   -1.3689   20.0501 O.2     1  UNL1       -0.2684
     26 N         -15.5622    0.6908   18.4932 N.am    1  UNL1       -0.2956
     27 H         -15.0600    1.1659   17.7923 H       1  UNL1        0.1501
     28 C         -16.8034    1.3026   19.0721 C.3     1  UNL1        0.1166
     29 C         -16.7350    2.0530   20.3691 C.ar    1  UNL1       -0.0024
     30 C         -15.9771    3.3450   20.4489 C.ar    1  UNL1       -0.0003
     31 C         -15.9087    4.0954   21.7460 C.ar    1  UNL1        0.0294
     32 C         -16.5982    3.5537   22.9631 C.ar    1  UNL1        0.1401
     33 F         -16.5297    4.3042   24.2601 F       1  UNL1       -0.2042
     34 C         -17.3561    2.2617   22.8832 C.ar    1  UNL1        0.0294
     35 C         -17.4245    1.5114   21.5861 C.ar    1  UNL1       -0.0003
@<TRIPOS>BOND
     1    19    20    1
     2    20    21    1
     3    20    22   am
     4    22    23    2
     5    22    15    1
     6    15    16    2
     7    15    17   am
     8    17    18    1
     9     1    17    1
    10     1     2    1
    11     2     3    1
    12     3     4    1
    13     4     5    1
    14     5     6    1
    15     6     7   ar
    16     7     8   ar
    17     8     9   ar
    18     9    24    1
    19    24    25    2
    20    24    26   am
    21    26    28    1
    22    28    29    1
    23    29    30   ar
    24    30    31   ar
    25    31    32   ar
    26    32    33    1
    27    32    34   ar
    28    34    35   ar
    29     9    10   ar
    30    10    11    1
    31    10    12   ar
    32    12    13    2
    33     7     1    1
    34    35    29   ar
    35    12     6   ar
    36    26    27    1
    37    11    14    1
@<TRIPOS>MOLECULE
*****
 35 37 0 0 0
SMALL
GASTEIGER

@<TRIPOS>ATOM
      1 C           3.2373   -0.0990   20.0012 C.3     1  UNL1        0.1326
      2 C           3.2911   -0.2411   18.5088 C.3     1  UNL1        0.0276
      3 C           3.9567   -1.3107   17.6948 C.3     1  UNL1        0.0042
      4 C           4.7329   -2.5024   18.1717 C.3     1  UNL1        0.0247
      5 C           5.0352   -2.9187   19.5807 C.3     1  UNL1        0.1103
      6 N           4.6359   -2.2462   20.8607 N.ar    1  UNL1       -0.2802
      7 C           3.8358   -0.9914   21.0479 C.ar    1  UNL1        0.1410
      8 N           3.5460   -0.4857   22.4300 N.ar    1  UNL1       -0.2228
      9 C           4.0564   -1.2350   23.6250 C.ar    1  UNL1        0.1740
     10 C           4.8566   -2.4899   23.4379 C.ar    1  UNL1        0.2130
     11 O           5.3670   -3.2392   24.6329 O.3     1  UNL1       -0.5006
     12 C           5.1463   -2.9956   22.0557 C.ar    1  UNL1        0.2973
     13 O           5.9465   -4.2505   21.8686 O.2     1  UNL1       -0.2636
     14 H           5.1861   -2.9234   25.4963 H       1  UNL1        0.2924
     15 C           1.0057    1.0053   20.7432 C.2     1  UNL1        0.3032
     16 O           0.2775   -0.2748   20.4581 O.2     1  UNL1       -0.2649
     17 N           2.4855    1.0931   20.5148 N.am    1  UNL1       -0.2654
     18 C           3.2137    2.3732   20.7998 C.3     1  UNL1        0.1157
     19 C          -1.0436    4.4033   20.8088 C.3     1  UNL1        0.1154
     20 N          -0.2919    3.2111   20.2952 N.am    1  UNL1       -0.2688
     21 C          -0.0859    3.0327   18.8202 C.3     1  UNL1        0.1154
     22 C           0.2539    2.1974   21.2568 C.2     1  UNL1        0.3030
     23 O           0.0480    2.3758   22.7318 O.2     1  UNL1       -0.2649
     24 C           3.7668   -0.7294   25.0072 C.2     1  UNL1        0.2671
     25 O           3.7940   -1.6739   26.1723 O.2     1  UNL1       -0.2684
     26 N           3.4498    0.7205   25.2244 N.am    1  UNL1       -0.2956
     27 H           3.4319    1.3403   24.4597 H       1  UNL1        0.1501
     28 C           3.1601    1.2260   26.6067 C.3     1  UNL1        0.1166
     29 C           1.8204    0.9732   27.2322 C.ar    1  UNL1       -0.0024
     30 C           1.7078    0.0698   28.4244 C.ar    1  UNL1       -0.0003
     31 C           0.3681   -0.1830   29.0499 C.ar    1  UNL1        0.0294
     32 C          -0.8590    0.4676   28.4832 C.ar    1  UNL1        0.1401
     33 F          -2.1987    0.2147   29.1088 F       1  UNL1       -0.2042
     34 C          -0.7464    1.3709   27.2910 C.ar    1  UNL1        0.0294
     35 C           0.5934    1.6237   26.6655 C.ar    1  UNL1       -0.0003
@<TRIPOS>BOND
     1    19    20    1
     2    20    21    1
     3    20    22   am
     4    22    23    2
     5    22    15    1
     6    15    16    2
     7    15    17   am
     8    17    18    1
     9     1    17    1
    10     1     2    1
    11     2     3    1
    12     3     4    1
    13     4     5    1
    14     5     6    1
    15     6     7   ar
    16     7     8   ar
    17     8     9   ar
    18     9    24    1
    19    24    25    2
    20    24    26   am
    21    26    28    1
    22    28    29    1
    23    29    30   ar
    24    30    31   ar
    25    31    32   ar
    26    32    33    1
    27    32    34   ar
    28    34    35   ar
    29     9    10   ar
    30    10    11    1
    31    10    12   ar
    32    12    13    2
    33     7     1    1
    34    35    29   ar
    35    12     6   ar
    36    26    27    1
    37    11    14    1
@<TRIPOS>MOLECULE
*****
 35 37 0 0 0
SMALL
GASTEIGER

@<TRIPOS>ATOM
      1 C           3.4039    0.1714   19.8674 C.3     1  UNL1        0.1326
      2 C           2.5347    0.6156   18.7284 C.3     1  UNL1        0.0276
      3 C           1.1265    1.1301   18.7719 C.3     1  UNL1        0.0042
      4 C           0.2394    1.3276   19.9653 C.3     1  UNL1        0.0247
      5 C           0.5415    1.0593   21.4098 C.3     1  UNL1        0.1103
      6 N           1.8055    0.5273   22.0178 N.ar    1  UNL1       -0.2802
      7 C           3.0792    0.1322   21.3314 C.ar    1  UNL1        0.1410
      8 N           4.2364   -0.3818   22.1357 N.ar    1  UNL1       -0.2228
      9 C           4.1197   -0.5006   23.6264 C.ar    1  UNL1        0.1740
     10 C           2.8459   -0.1055   24.3129 C.ar    1  UNL1        0.2130
     11 O           2.7291   -0.2242   25.8035 O.3     1  UNL1       -0.5006
     12 C           1.6887    0.4085   23.5085 C.ar    1  UNL1        0.2973
     13 O           0.4148    0.8037   24.1950 O.2     1  UNL1       -0.2636
     14 H           3.4519   -0.5453   26.3060 H       1  UNL1        0.2924
     15 C           5.0342   -1.7512   19.2386 C.2     1  UNL1        0.3032
     16 O           3.9133   -2.7409   19.3585 O.2     1  UNL1       -0.2649
     17 N           4.7794   -0.2951   19.4931 N.am    1  UNL1       -0.2654
     18 C           5.9003    0.6945   19.3732 C.3     1  UNL1        0.1157
     19 C           8.7703   -3.0505   19.5603 C.3     1  UNL1        0.1154
     20 N           7.3947   -2.5840   19.9347 N.am    1  UNL1       -0.2688
     21 C           7.0041   -2.4837   21.3794 C.3     1  UNL1        0.1154
     22 C           6.4098   -2.2177   18.8642 C.2     1  UNL1        0.3030
     23 O           6.8004   -2.3180   17.4195 O.2     1  UNL1       -0.2649
     24 C           5.2768   -1.0146   24.4307 C.2     1  UNL1        0.2671
     25 O           6.5709   -0.2564   24.4520 O.2     1  UNL1       -0.2684
     26 N           5.1398   -2.2865   25.2137 N.am    1  UNL1       -0.2956
     27 H           4.2904   -2.7841   25.1998 H       1  UNL1        0.1501
     28 C           6.2970   -2.8005   26.0181 C.3     1  UNL1        0.1166
     29 C           6.8453   -4.1711   25.7521 C.ar    1  UNL1       -0.0024
     30 C           6.7580   -5.2319   26.8090 C.ar    1  UNL1       -0.0003
     31 C           7.3064   -6.6025   26.5429 C.ar    1  UNL1        0.0294
     32 C           7.9420   -6.9123   25.2200 C.ar    1  UNL1        0.1401
     33 F           8.4903   -8.2829   24.9540 F       1  UNL1       -0.2042
     34 C           8.0293   -5.8514   24.1631 C.ar    1  UNL1        0.0294
     35 C           7.4809   -4.4808   24.4292 C.ar    1  UNL1       -0.0003
@<TRIPOS>BOND
     1    19    20    1
     2    20    21    1
     3    20    22   am
     4    22    23    2
     5    22    15    1
     6    15    16    2
     7    15    17   am
     8    17    18    1
     9     1    17    1
    10     1     2    1
    11     2     3    1
    12     3     4    1
    13     4     5    1
    14     5     6    1
    15     6     7   ar
    16     7     8   ar
    17     8     9   ar
    18     9    24    1
    19    24    25    2
    20    24    26   am
    21    26    28    1
    22    28    29    1
    23    29    30   ar
    24    30    31   ar
    25    31    32   ar
    26    32    33    1
    27    32    34   ar
    28    34    35   ar
    29     9    10   ar
    30    10    11    1
    31    10    12   ar
    32    12    13    2
    33     7     1    1
    34    35    29   ar
    35    12     6   ar
    36    26    27    1
    37    11    14    1
@<TRIPOS>MOLECULE
*****
 35 37 0 0 0
SMALL
GASTEIGER

@<TRIPOS>ATOM
      1 C           5.6729   -1.3151   29.5360 C.3     1  UNL1        0.1326
      2 C           5.3864   -0.4551   30.7312 C.3     1  UNL1        0.0276
      3 C           5.4947   -0.8081   32.1849 C.3     1  UNL1        0.0042
      4 C           5.9164   -2.1083   32.8028 C.3     1  UNL1        0.0247
      5 C           6.3339   -3.3766   32.1194 C.3     1  UNL1        0.1103
      6 N           6.4328   -3.6579   30.6493 N.ar    1  UNL1       -0.2802
      7 C           6.1387   -2.7406   29.4996 C.ar    1  UNL1        0.1410
      8 N           6.3043   -3.2271   28.0905 N.ar    1  UNL1       -0.2228
      9 C           6.7641   -4.6311   27.8309 C.ar    1  UNL1        0.1740
     10 C           7.0583   -5.5486   28.9806 C.ar    1  UNL1        0.2130
     11 O           7.5181   -6.9526   28.7212 O.3     1  UNL1       -0.5006
     12 C           6.8926   -5.0620   30.3898 C.ar    1  UNL1        0.2973
     13 O           7.1868   -5.9795   31.5395 O.2     1  UNL1       -0.2636
     14 H           7.6215   -7.2566   27.8409 H       1  UNL1        0.2924
     15 C           4.1070   -0.6664   27.5671 C.2     1  UNL1        0.3032
     16 O           2.9538   -1.3208   28.2686 O.2     1  UNL1       -0.2649
     17 N           5.4665   -0.6636   28.2008 N.am    1  UNL1       -0.2654
     18 C           6.6196   -0.0093   27.4992 C.3     1  UNL1        0.1157
     19 C           3.3040    2.0831   24.8201 C.3     1  UNL1        0.1154
     20 N           3.5104    1.4316   26.1554 N.am    1  UNL1       -0.2688
     21 C           3.3268    2.2264   27.4141 C.3     1  UNL1        0.1154
     22 C           3.9005   -0.0149   26.2318 C.2     1  UNL1        0.3030
     23 O           4.0842   -0.8097   24.9731 O.2     1  UNL1       -0.2649
     24 C           6.9297   -5.1178   26.4218 C.2     1  UNL1        0.2671
     25 O           6.8322   -6.5835   26.1182 O.2     1  UNL1       -0.2684
     26 N           7.1929   -4.1388   25.3162 N.am    1  UNL1       -0.2956
     27 H           7.2568   -3.1768   25.5155 H       1  UNL1        0.1501
     28 C           7.3585   -4.6255   23.9070 C.3     1  UNL1        0.1166
     29 C           6.5120   -4.0500   22.8105 C.ar    1  UNL1       -0.0024
     30 C           5.1414   -3.5241   23.1185 C.ar    1  UNL1       -0.0003
     31 C           4.2951   -2.9486   22.0219 C.ar    1  UNL1        0.0294
     32 C           4.8194   -2.8991   20.6173 C.ar    1  UNL1        0.1401
     33 F           3.9729   -2.3236   19.5208 F       1  UNL1       -0.2042
     34 C           6.1900   -3.4250   20.3094 C.ar    1  UNL1        0.0294
     35 C           7.0363   -4.0005   21.4060 C.ar    1  UNL1       -0.0003
@<TRIPOS>BOND
     1    19    20    1
     2    20    21    1
     3    20    22   am
     4    22    23    2
     5    22    15    1
     6    15    16    2
     7    15    17   am
     8    17    18    1
     9     1    17    1
    10     1     2    1
    11     2     3    1
    12     3     4    1
    13     4     5    1
    14     5     6    1
    15     6     7   ar
    16     7     8   ar
    17     8     9   ar
    18     9    24    1
    19    24    25    2
    20    24    26   am
    21    26    28    1
    22    28    29    1
    23    29    30   ar
    24    30    31   ar
    25    31    32   ar
    26    32    33    1
    27    32    34   ar
    28    34    35   ar
    29     9    10   ar
    30    10    11    1
    31    10    12   ar
    32    12    13    2
    33     7     1    1
    34    35    29   ar
    35    12     6   ar
    36    26    27    1
    37    11    14    1
@<TRIPOS>MOLECULE
*****
 35 37 0 0 0
SMALL
GASTEIGER

@<TRIPOS>ATOM
      1 C           3.0406    0.2481   21.3424 C.3     1  UNL1        0.1326
      2 C           1.7494    1.0093   21.2829 C.3     1  UNL1        0.0276
      3 C           0.9221    1.3549   20.0805 C.3     1  UNL1        0.0042
      4 C           1.1815    1.0246   18.6404 C.3     1  UNL1        0.0247
      5 C           2.3323    0.2672   18.0472 C.3     1  UNL1        0.1103
      6 N           3.5080   -0.3470   18.7476 N.ar    1  UNL1       -0.2802
      7 C           3.8233   -0.3555   20.2140 C.ar    1  UNL1        0.1410
      8 N           5.0654   -1.0343   20.7103 N.ar    1  UNL1       -0.2228
      9 C           5.9925   -1.7045   19.7400 C.ar    1  UNL1        0.1740
     10 C           5.6772   -1.6960   18.2735 C.ar    1  UNL1        0.2130
     11 O           6.6042   -2.3663   17.3032 O.3     1  UNL1       -0.5006
     12 C           4.4350   -1.0173   17.7773 C.ar    1  UNL1        0.2973
     13 O           4.1198   -1.0088   16.3108 O.2     1  UNL1       -0.2636
     14 H           7.3801   -2.7903   17.6131 H       1  UNL1        0.2924
     15 C           4.5964    1.0751   23.2517 C.2     1  UNL1        0.3032
     16 O           4.9803    2.2654   22.4234 O.2     1  UNL1       -0.2649
     17 N           3.6266    0.0665   22.7112 N.am    1  UNL1       -0.2654
     18 C           3.2428   -1.1237   23.5395 C.3     1  UNL1        0.1157
     19 C           7.0486   -0.0507   26.1620 C.3     1  UNL1        0.1154
     20 N           6.4626    0.1309   24.7932 N.am    1  UNL1       -0.2688
     21 C           7.1566   -0.4501   23.5971 C.3     1  UNL1        0.1154
     22 C           5.1824    0.8935   24.6205 C.2     1  UNL1        0.3030
     23 O           4.4884    1.4745   25.8166 O.2     1  UNL1       -0.2649
     24 C           7.2347   -2.3833   20.2361 C.2     1  UNL1        0.2671
     25 O           8.5640   -2.0558   19.6231 O.2     1  UNL1       -0.2684
     26 N           7.1476   -3.3894   21.3452 N.am    1  UNL1       -0.2956
     27 H           6.2752   -3.6043   21.7475 H       1  UNL1        0.1501
     28 C           8.3899   -4.0681   21.8413 C.3     1  UNL1        0.1166
     29 C           8.2928   -5.1384   22.8878 C.ar    1  UNL1       -0.0024
     30 C           8.9930   -6.4496   22.6868 C.ar    1  UNL1       -0.0003
     31 C           8.8958   -7.5198   23.7334 C.ar    1  UNL1        0.0294
     32 C           8.0985   -7.2788   24.9809 C.ar    1  UNL1        0.1401
     33 F           8.0014   -8.3490   26.0273 F       1  UNL1       -0.2042
     34 C           7.3983   -5.9675   25.1818 C.ar    1  UNL1        0.0294
     35 C           7.4955   -4.8973   24.1352 C.ar    1  UNL1       -0.0003
@<TRIPOS>BOND
     1    19    20    1
     2    20    21    1
     3    20    22   am
     4    22    23    2
     5    22    15    1
     6    15    16    2
     7    15    17   am
     8    17    18    1
     9     1    17    1
    10     1     2    1
    11     2     3    1
    12     3     4    1
    13     4     5    1
    14     5     6    1
    15     6     7   ar
    16     7     8   ar
    17     8     9   ar
    18     9    24    1
    19    24    25    2
    20    24    26   am
    21    26    28    1
    22    28    29    1
    23    29    30   ar
    24    30    31   ar
    25    31    32   ar
    26    32    33    1
    27    32    34   ar
    28    34    35   ar
    29     9    10   ar
    30    10    11    1
    31    10    12   ar
    32    12    13    2
    33     7     1    1
    34    35    29   ar
    35    12     6   ar
    36    26    27    1
    37    11    14    1
@<TRIPOS>MOLECULE
*****
 35 37 0 0 0
SMALL
GASTEIGER

@<TRIPOS>ATOM
      1 C         -15.1307   -7.6896   17.9784 C.3     1  UNL1        0.1326
      2 C         -14.8675   -9.1633   17.8829 C.3     1  UNL1        0.0276
      3 C         -15.7480  -10.3001   18.3093 C.3     1  UNL1        0.0042
      4 C         -17.1094  -10.2444   18.9367 C.3     1  UNL1        0.0247
      5 C         -17.9265   -9.0377   19.2924 C.3     1  UNL1        0.1103
      6 N         -17.5838   -7.5890   19.1087 N.ar    1  UNL1       -0.2802
      7 C         -16.3397   -6.9890   18.5240 C.ar    1  UNL1        0.1410
      8 N         -16.1974   -5.4986   18.4320 N.ar    1  UNL1       -0.2228
      9 C         -17.2993   -4.6082   18.9248 C.ar    1  UNL1        0.1740
     10 C         -18.5436   -5.2081   19.5096 C.ar    1  UNL1        0.2130
     11 O         -19.6455   -4.3178   20.0025 O.3     1  UNL1       -0.5006
     12 C         -18.6858   -6.6986   19.6016 C.ar    1  UNL1        0.2973
     13 O         -19.9301   -7.2985   20.1864 O.2     1  UNL1       -0.2636
     14 H         -19.5567   -3.3868   19.9450 H       1  UNL1        0.2924
     15 C         -13.1145   -6.1113   18.4182 C.2     1  UNL1        0.3032
     16 O         -13.2776   -6.3146   19.8955 O.2     1  UNL1       -0.2649
     17 N         -14.0410   -6.7988   17.4597 N.am    1  UNL1       -0.2654
     18 C         -13.8779   -6.5955   15.9826 C.3     1  UNL1        0.1157
     19 C          -9.5291   -4.8435   17.2834 C.3     1  UNL1        0.1154
     20 N         -10.6188   -5.7343   17.8021 N.am    1  UNL1       -0.2688
     21 C         -10.3026   -7.1388   18.2232 C.3     1  UNL1        0.1154
     22 C         -12.0247   -5.2205   17.8996 C.2     1  UNL1        0.3030
     23 O         -12.3409   -3.8160   17.4785 O.2     1  UNL1       -0.2649
     24 C         -17.1571   -3.1178   18.8328 C.2     1  UNL1        0.2671
     25 O         -17.5517   -2.4030   17.5745 O.2     1  UNL1       -0.2684
     26 N         -16.6204   -2.3422   19.9991 N.am    1  UNL1       -0.2956
     27 H         -16.3614   -2.8113   20.8250 H       1  UNL1        0.1501
     28 C         -16.4782   -0.8517   19.9071 C.3     1  UNL1        0.1166
     29 C         -15.2919   -0.2531   19.2110 C.ar    1  UNL1       -0.0024
     30 C         -14.0675   -1.0843   18.9667 C.ar    1  UNL1       -0.0003
     31 C         -12.8812   -0.4856   18.2706 C.ar    1  UNL1        0.0294
     32 C         -12.9195    0.9443   17.8189 C.ar    1  UNL1        0.1401
     33 F         -11.7333    1.5429   17.1229 F       1  UNL1       -0.2042
     34 C         -14.1440    1.7755   18.0634 C.ar    1  UNL1        0.0294
     35 C         -15.3302    1.1768   18.7594 C.ar    1  UNL1       -0.0003
@<TRIPOS>BOND
     1    19    20    1
     2    20    21    1
     3    20    22   am
     4    22    23    2
     5    22    15    1
     6    15    16    2
     7    15    17   am
     8    17    18    1
     9     1    17    1
    10     1     2    1
    11     2     3    1
    12     3     4    1
    13     4     5    1
    14     5     6    1
    15     6     7   ar
    16     7     8   ar
    17     8     9   ar
    18     9    24    1
    19    24    25    2
    20    24    26   am
    21    26    28    1
    22    28    29    1
    23    29    30   ar
    24    30    31   ar
    25    31    32   ar
    26    32    33    1
    27    32    34   ar
    28    34    35   ar
    29     9    10   ar
    30    10    11    1
    31    10    12   ar
    32    12    13    2
    33     7     1    1
    34    35    29   ar
    35    12     6   ar
    36    26    27    1
    37    11    14    1
@<TRIPOS>MOLECULE
*****
 35 37 0 0 0
SMALL
GASTEIGER

@<TRIPOS>ATOM
      1 C           3.5903   -0.9009   19.6121 C.3     1  UNL1        0.1326
      2 C           4.0802   -1.5535   18.3534 C.3     1  UNL1        0.0276
      3 C           4.9287   -2.7815   18.2058 C.3     1  UNL1        0.0042
      4 C           5.4970   -3.6604   19.2804 C.3     1  UNL1        0.0247
      5 C           5.3571   -3.5282   20.7680 C.3     1  UNL1        0.1103
      6 N           4.6143   -2.4845   21.5484 N.ar    1  UNL1       -0.2802
      7 C           3.8280   -1.3153   21.0340 C.ar    1  UNL1        0.1410
      8 N           3.1551   -0.3821   21.9965 N.ar    1  UNL1       -0.2228
      9 C           3.2685   -0.6182   23.4735 C.ar    1  UNL1        0.1740
     10 C           4.0548   -1.7875   23.9879 C.ar    1  UNL1        0.2130
     11 O           4.1683   -2.0236   25.4648 O.3     1  UNL1       -0.5006
     12 C           4.7277   -2.7206   23.0254 C.ar    1  UNL1        0.2973
     13 O           5.5140   -3.8899   23.5398 O.2     1  UNL1       -0.2636
     14 H           3.7480   -1.4407   26.0661 H       1  UNL1        0.2924
     15 C           3.3891    1.6856   19.4726 C.2     1  UNL1        0.3032
     16 O           4.8648    1.8132   19.7094 O.2     1  UNL1       -0.2649
     17 N           2.7518    0.3286   19.4240 N.am    1  UNL1       -0.2654
     18 C           1.2762    0.2011   19.1872 C.3     1  UNL1        0.1157
     19 C           1.1489    4.8581   20.2897 C.3     1  UNL1        0.1154
     20 N           1.9874    3.6286   20.4778 N.am    1  UNL1       -0.2688
     21 C           2.2626    3.1126   21.8591 C.3     1  UNL1        0.1154
     22 C           2.5506    2.9151   19.2845 C.2     1  UNL1        0.3030
     23 O           2.2754    3.4311   17.9033 O.2     1  UNL1       -0.2649
     24 C           2.5957    0.3149   24.4361 C.2     1  UNL1        0.2671
     25 O           1.1847    0.7592   24.1877 O.2     1  UNL1       -0.2684
     26 N           3.3338    0.8037   25.6469 N.am    1  UNL1       -0.2956
     27 H           4.2598    0.5121   25.8099 H       1  UNL1        0.1501
     28 C           2.6608    1.7369   26.6095 C.3     1  UNL1        0.1166
     29 C           1.4156    1.3053   27.3260 C.ar    1  UNL1       -0.0024
     30 C           1.4687    0.1695   28.3043 C.ar    1  UNL1       -0.0003
     31 C           0.2235   -0.2620   29.0208 C.ar    1  UNL1        0.0294
     32 C          -1.0747    0.4424   28.7590 C.ar    1  UNL1        0.1401
     33 F          -2.3198    0.0109   29.4755 F       1  UNL1       -0.2042
     34 C          -1.1277    1.5783   27.7807 C.ar    1  UNL1        0.0294
     35 C           0.1175    2.0097   27.0642 C.ar    1  UNL1       -0.0003
@<TRIPOS>BOND
     1    19    20    1
     2    20    21    1
     3    20    22   am
     4    22    23    2
     5    22    15    1
     6    15    16    2
     7    15    17   am
     8    17    18    1
     9     1    17    1
    10     1     2    1
    11     2     3    1
    12     3     4    1
    13     4     5    1
    14     5     6    1
    15     6     7   ar
    16     7     8   ar
    17     8     9   ar
    18     9    24    1
    19    24    25    2
    20    24    26   am
    21    26    28    1
    22    28    29    1
    23    29    30   ar
    24    30    31   ar
    25    31    32   ar
    26    32    33    1
    27    32    34   ar
    28    34    35   ar
    29     9    10   ar
    30    10    11    1
    31    10    12   ar
    32    12    13    2
    33     7     1    1
    34    35    29   ar
    35    12     6   ar
    36    26    27    1
    37    11    14    1
@<TRIPOS>MOLECULE
*****
 35 37 0 0 0
SMALL
GASTEIGER

@<TRIPOS>ATOM
      1 C          -1.4914    3.6803   25.0341 C.3     1  UNL1        0.1326
      2 C          -2.0085    3.9159   26.4223 C.3     1  UNL1        0.0276
      3 C          -3.4260    4.1119   26.8715 C.3     1  UNL1        0.0042
      4 C          -4.6768    4.1207   26.0436 C.3     1  UNL1        0.0247
      5 C          -4.8188    3.9357   24.5618 C.3     1  UNL1        0.1103
      6 N          -3.7451    3.6962   23.5421 N.ar    1  UNL1       -0.2802
      7 C          -2.2644    3.5825   23.7522 C.ar    1  UNL1        0.1410
      8 N          -1.3573    3.3389   22.5827 N.ar    1  UNL1       -0.2228
      9 C          -1.9312    3.2089   21.2028 C.ar    1  UNL1        0.1740
     10 C          -3.4120    3.3226   20.9927 C.ar    1  UNL1        0.2130
     11 O          -3.9859    3.1926   19.6129 O.3     1  UNL1       -0.5006
     12 C          -4.3190    3.5662   22.1623 C.ar    1  UNL1        0.2973
     13 O          -5.7999    3.6799   21.9521 O.2     1  UNL1       -0.2636
     14 H          -3.4194    3.0404   18.8823 H       1  UNL1        0.2924
     15 C           0.6210    2.1684   25.0768 C.2     1  UNL1        0.3032
     16 O          -0.2396    0.9740   25.3649 O.2     1  UNL1       -0.2649
     17 N          -0.0049    3.5215   24.9114 N.am    1  UNL1       -0.2654
     18 C           0.8558    4.7157   24.6234 C.3     1  UNL1        0.1157
     19 C           4.4554    1.8811   26.0593 C.3     1  UNL1        0.1154
     20 N           2.9689    2.0399   26.1820 N.am    1  UNL1       -0.2688
     21 C           2.3437    2.2291   27.5322 C.3     1  UNL1        0.1154
     22 C           2.1076    2.0096   24.9542 C.2     1  UNL1        0.3030
     23 O           2.7327    1.8204   23.6039 O.2     1  UNL1       -0.2649
     24 C          -1.0242    2.9652   20.0332 C.2     1  UNL1        0.2671
     25 O          -1.0761    3.8751   18.8417 O.2     1  UNL1       -0.2684
     26 N          -0.0655    1.8119   20.0550 N.am    1  UNL1       -0.2956
     27 H          -0.0315    1.2147   20.8369 H       1  UNL1        0.1501
     28 C           0.8414    1.5683   18.8852 C.3     1  UNL1        0.1166
     29 C           1.8132    0.4260   18.9149 C.ar    1  UNL1       -0.0024
     30 C           1.7387   -0.5938   20.0123 C.ar    1  UNL1       -0.0003
     31 C           2.7105   -1.7361   20.0419 C.ar    1  UNL1        0.0294
     32 C           3.7569   -1.8584   18.9740 C.ar    1  UNL1        0.1401
     33 F           4.7286   -3.0007   19.0036 F       1  UNL1       -0.2042
     34 C           3.8313   -0.8386   17.8766 C.ar    1  UNL1        0.0294
     35 C           2.8595    0.3037   17.8470 C.ar    1  UNL1       -0.0003
@<TRIPOS>BOND
     1    19    20    1
     2    20    21    1
     3    20    22   am
     4    22    23    2
     5    22    15    1
     6    15    16    2
     7    15    17   am
     8    17    18    1
     9     1    17    1
    10     1     2    1
    11     2     3    1
    12     3     4    1
    13     4     5    1
    14     5     6    1
    15     6     7   ar
    16     7     8   ar
    17     8     9   ar
    18     9    24    1
    19    24    25    2
    20    24    26   am
    21    26    28    1
    22    28    29    1
    23    29    30   ar
    24    30    31   ar
    25    31    32   ar
    26    32    33    1
    27    32    34   ar
    28    34    35   ar
    29     9    10   ar
    30    10    11    1
    31    10    12   ar
    32    12    13    2
    33     7     1    1
    34    35    29   ar
    35    12     6   ar
    36    26    27    1
    37    11    14    1
