@<TRIPOS>MOLECULE
*****
 24 27 0 0 0
SMALL
GASTEIGER

@<TRIPOS>ATOM
      1 C         -13.1355   -3.8646   19.3216 C.ar    1  UNL1        0.1917
      2 N         -13.2783   -2.4117   19.6658 N.ar    1  UNL1       -0.1268
      3 N         -14.7335   -2.1312   19.8979 N.ar    1  UNL1       -0.1316
      4 C         -15.4900   -3.4108   19.6972 C.ar    1  UNL1        0.1615
      5 N         -14.5024   -4.4821   19.3410 N.ar    1  UNL1       -0.2940
      6 C         -14.9753   -5.8815   19.0804 C.3     1  UNL1        0.1302
      7 C         -16.4359   -6.2096   19.1759 C.3     1  UNL1        0.1186
      8 N         -17.4235   -5.1383   19.5321 N.am    1  UNL1       -0.2688
      9 C         -18.8841   -5.4663   19.6276 C.2     1  UNL1        0.2493
     10 O         -19.8717   -4.3950   19.9838 O.2     1  UNL1       -0.2699
     11 C         -16.9505   -3.7388   19.7927 C.3     1  UNL1        0.1343
     12 C         -17.9381   -2.6675   20.1489 C.3     1  UNL1        0.0298
     13 C          -9.4698   -7.6362   18.8546 C.3     1  UNL1        0.0744
     14 C         -10.1664   -6.3090   18.7977 C.ar    1  UNL1        0.1481
     15 N          -9.5839   -5.0292   18.2751 N.ar    1  UNL1       -0.1929
     16 S         -10.6253   -3.9578   18.4078 S.2     1  UNL1        0.0369
     17 C         -11.8513   -4.5754   19.0123 C.ar    1  UNL1        0.1652
     18 N         -11.5677   -6.0285   19.2533 N.ar    1  UNL1       -0.2190
     19 C         -19.3570   -6.8657   19.3670 C.ar    1  UNL1        0.0536
     20 C         -19.6566   -7.3073   17.9651 C.ar    1  UNL1        0.0045
     21 C         -20.1296   -8.7068   17.7045 C.ar    1  UNL1        0.0001
     22 C         -20.3029   -9.6646   18.8457 C.ar    1  UNL1        0.0000
     23 C         -20.0033   -9.2231   20.2476 C.ar    1  UNL1        0.0001
     24 C         -19.5303   -7.8237   20.5082 C.ar    1  UNL1        0.0045
@<TRIPOS>BOND
     1    13    14    1
     2    14    15   ar
     3    15    16   ar
     4    16    17   ar
     5    17     1    1
     6     1     2   ar
     7     2     3   ar
     8     3     4   ar
     9     4     5   ar
    10     5     6    1
    11     6     7    1
    12     7     8    1
    13     8     9   am
    14     9    10    2
    15     9    19    1
    16    19    20   ar
    17    20    21   ar
    18    21    22   ar
    19    22    23   ar
    20    23    24   ar
    21     8    11    1
    22    11    12    1
    23    17    18   ar
    24    18    14   ar
    25     5     1   ar
    26    24    19   ar
    27    11     4    1
@<TRIPOS>MOLECULE
*****
 24 27 0 0 0
SMALL
GASTEIGER

@<TRIPOS>ATOM
      1 C         -15.0270   -0.0644   19.0335 C.ar    1  UNL1        0.1917
      2 N         -14.4454    1.2697   18.6703 N.ar    1  UNL1       -0.1268
      3 N         -13.0937    1.0363   18.0634 N.ar    1  UNL1       -0.1316
      4 C         -12.8399   -0.4421   18.0515 C.ar    1  UNL1        0.1615
      5 N         -14.0348   -1.1223   18.6510 N.ar    1  UNL1       -0.2940
      6 C         -14.0649   -2.6172   18.7713 C.3     1  UNL1        0.1302
      7 C         -12.9001   -3.4318   18.2919 C.3     1  UNL1        0.1186
      8 N         -11.7052   -2.7516   17.6923 N.am    1  UNL1       -0.2688
      9 C         -10.5405   -3.5661   17.2129 C.2     1  UNL1        0.2493
     10 O          -9.3456   -2.8858   16.6134 O.2     1  UNL1       -0.2699
     11 C         -11.6752   -1.2566   17.5721 C.3     1  UNL1        0.1343
     12 C         -10.4803   -0.5763   16.9725 C.3     1  UNL1        0.0298
     13 C         -19.6192   -2.2883   20.3924 C.3     1  UNL1        0.0744
     14 C         -18.4766   -1.3217   20.2924 C.ar    1  UNL1        0.1481
     15 N         -18.3755   -0.0004   20.9955 N.ar    1  UNL1       -0.1929
     16 S         -17.0709    0.6314   20.6094 S.2     1  UNL1        0.0369
     17 C         -16.3658   -0.2994   19.6678 C.ar    1  UNL1        0.1652
     18 N         -17.2346   -1.5064   19.4719 N.ar    1  UNL1       -0.2190
     19 C         -10.5706   -5.0609   17.3332 C.ar    1  UNL1        0.0536
     20 C         -11.3021   -5.8809   16.3121 C.ar    1  UNL1        0.0045
     21 C         -11.3322   -7.3758   16.4324 C.ar    1  UNL1        0.0001
     22 C         -10.6309   -8.0507   17.5737 C.ar    1  UNL1        0.0000
     23 C          -9.8994   -7.2307   18.5948 C.ar    1  UNL1        0.0001
     24 C          -9.8693   -5.7359   18.4745 C.ar    1  UNL1        0.0045
@<TRIPOS>BOND
     1    13    14    1
     2    14    15   ar
     3    15    16   ar
     4    16    17   ar
     5    17     1    1
     6     1     2   ar
     7     2     3   ar
     8     3     4   ar
     9     4     5   ar
    10     5     6    1
    11     6     7    1
    12     7     8    1
    13     8     9   am
    14     9    10    2
    15     9    19    1
    16    19    20   ar
    17    20    21   ar
    18    21    22   ar
    19    22    23   ar
    20    23    24   ar
    21     8    11    1
    22    11    12    1
    23    17    18   ar
    24    18    14   ar
    25     5     1   ar
    26    24    19   ar
    27    11     4    1
@<TRIPOS>MOLECULE
*****
 24 27 0 0 0
SMALL
GASTEIGER

@<TRIPOS>ATOM
      1 C         -12.8839   -2.6612   18.5888 C.ar    1  UNL1        0.1917
      2 N         -11.4481   -3.0850   18.4950 N.ar    1  UNL1       -0.1268
      3 N         -11.4064   -4.5844   18.4973 N.ar    1  UNL1       -0.1316
      4 C         -12.8164   -5.0873   18.5926 C.ar    1  UNL1        0.1615
      5 N         -13.7295   -3.8986   18.6492 N.ar    1  UNL1       -0.2940
      6 C         -15.2131   -4.0965   18.7483 C.3     1  UNL1        0.1302
      7 C         -15.7835   -5.4832   18.7909 C.3     1  UNL1        0.1186
      8 N         -14.8704   -6.6719   18.7344 N.am    1  UNL1       -0.2688
      9 C         -15.4408   -8.0585   18.7769 C.2     1  UNL1        0.2493
     10 O         -14.5276   -9.2472   18.7204 O.2     1  UNL1       -0.2699
     11 C         -13.3868   -6.4739   18.6352 C.3     1  UNL1        0.1343
     12 C         -12.4736   -7.6626   18.5787 C.3     1  UNL1        0.0298
     13 C         -15.9890    1.5518   19.2887 C.3     1  UNL1        0.0744
     14 C         -14.8132    0.6885   18.9390 C.ar    1  UNL1        0.1481
     15 N         -13.5038    1.1650   18.3834 N.ar    1  UNL1       -0.1929
     16 S         -12.6217   -0.0319   18.1846 S.2     1  UNL1        0.0369
     17 C         -13.3859   -1.2480   18.6174 C.ar    1  UNL1        0.1652
     18 N         -14.7403   -0.8027   19.0836 N.ar    1  UNL1       -0.2190
     19 C         -16.9243   -8.2565   18.8761 C.ar    1  UNL1        0.0536
     20 C         -17.7302   -8.5197   17.6386 C.ar    1  UNL1        0.0045
     21 C         -19.2138   -8.7177   17.7378 C.ar    1  UNL1        0.0001
     22 C         -19.8915   -8.6524   19.0744 C.ar    1  UNL1        0.0000
     23 C         -19.0856   -8.3892   20.3119 C.ar    1  UNL1        0.0001
     24 C         -17.6020   -8.1913   20.2127 C.ar    1  UNL1        0.0045
@<TRIPOS>BOND
     1    13    14    1
     2    14    15   ar
     3    15    16   ar
     4    16    17   ar
     5    17     1    1
     6     1     2   ar
     7     2     3   ar
     8     3     4   ar
     9     4     5   ar
    10     5     6    1
    11     6     7    1
    12     7     8    1
    13     8     9   am
    14     9    10    2
    15     9    19    1
    16    19    20   ar
    17    20    21   ar
    18    21    22   ar
    19    22    23   ar
    20    23    24   ar
    21     8    11    1
    22    11    12    1
    23    17    18   ar
    24    18    14   ar
    25     5     1   ar
    26    24    19   ar
    27    11     4    1
@<TRIPOS>MOLECULE
*****
 24 27 0 0 0
SMALL
GASTEIGER

@<TRIPOS>ATOM
      1 C           6.5872   -4.0269   23.5371 C.ar    1  UNL1        0.1917
      2 N           7.4393   -4.9217   22.6866 N.ar    1  UNL1       -0.1268
      3 N           7.0822   -4.6739   21.2509 N.ar    1  UNL1       -0.1316
      4 C           6.0094   -3.6261   21.2142 C.ar    1  UNL1        0.1615
      5 N           5.7036   -3.2262   22.6272 N.ar    1  UNL1       -0.2940
      6 C           4.6599   -2.1847   22.9027 C.3     1  UNL1        0.1302
      7 C           3.9221   -1.5429   21.7652 C.3     1  UNL1        0.1186
      8 N           4.2280   -1.9428   20.3522 N.am    1  UNL1       -0.2688
      9 C           3.4902   -1.3011   19.2147 C.2     1  UNL1        0.2493
     10 O           3.7961   -1.7010   17.8017 O.2     1  UNL1       -0.2699
     11 C           5.2717   -2.9844   20.0767 C.3     1  UNL1        0.1343
     12 C           5.5776   -3.3843   18.6637 C.3     1  UNL1        0.0298
     13 C           6.7232   -5.3879   28.6371 C.3     1  UNL1        0.0744
     14 C           6.6766   -4.5725   27.3789 C.ar    1  UNL1        0.1481
     15 N           6.6345   -3.0752   27.2998 N.ar    1  UNL1       -0.1929
     16 S           6.5959   -2.6885   25.8509 S.2     1  UNL1        0.0369
     17 C           6.6141   -3.9469   25.0348 C.ar    1  UNL1        0.1652
     18 N           6.6641   -5.1113   25.9791 N.ar    1  UNL1       -0.2190
     19 C           2.4466   -0.2596   19.4902 C.ar    1  UNL1        0.0536
     20 C           2.6764    1.1619   19.0701 C.ar    1  UNL1        0.0045
     21 C           1.6327    2.2035   19.3456 C.ar    1  UNL1        0.0001
     22 C           0.3593    1.8236   20.0412 C.ar    1  UNL1        0.0000
     23 C           0.1295    0.4021   20.4614 C.ar    1  UNL1        0.0001
     24 C           1.1731   -0.6395   20.1859 C.ar    1  UNL1        0.0045
@<TRIPOS>BOND
     1    13    14    1
     2    14    15   ar
     3    15    16   ar
     4    16    17   ar
     5    17     1    1
     6     1     2   ar
     7     2     3   ar
     8     3     4   ar
     9     4     5   ar
    10     5     6    1
    11     6     7    1
    12     7     8    1
    13     8     9   am
    14     9    10    2
    15     9    19    1
    16    19    20   ar
    17    20    21   ar
    18    21    22   ar
    19    22    23   ar
    20    23    24   ar
    21     8    11    1
    22    11    12    1
    23    17    18   ar
    24    18    14   ar
    25     5     1   ar
    26    24    19   ar
    27    11     4    1
@<TRIPOS>MOLECULE
*****
 24 27 0 0 0
SMALL
GASTEIGER

@<TRIPOS>ATOM
      1 C           5.5991   -1.1846   33.2427 C.ar    1  UNL1        0.1917
      2 N           5.6968   -0.6029   34.6219 N.ar    1  UNL1       -0.1268
      3 N           4.6351    0.4479   34.7579 N.ar    1  UNL1       -0.1316
      4 C           3.8813    0.5157   33.4629 C.ar    1  UNL1        0.1615
      5 N           4.4771   -0.4933   32.5264 N.ar    1  UNL1       -0.2940
      6 C           3.9209   -0.6522   31.1424 C.3     1  UNL1        0.1302
      7 C           2.7689    0.1979   30.6949 C.3     1  UNL1        0.1186
      8 N           2.1731    1.2070   31.6313 N.am    1  UNL1       -0.2688
      9 C           1.0212    2.0571   31.1838 C.2     1  UNL1        0.2493
     10 O           0.4254    3.0661   32.1203 O.2     1  UNL1       -0.2699
     11 C           2.7293    1.3658   33.0154 C.3     1  UNL1        0.1343
     12 C           2.1336    2.3748   33.9518 C.3     1  UNL1        0.0298
     13 C           7.2161   -5.7873   31.2224 C.3     1  UNL1        0.0744
     14 C           7.2137   -4.3832   31.7502 C.ar    1  UNL1        0.1481
     15 N           8.4089   -3.4850   31.8720 N.ar    1  UNL1       -0.1929
     16 S           7.9495   -2.1775   32.4459 S.2     1  UNL1        0.0369
     17 C           6.4705   -2.2676   32.6788 C.ar    1  UNL1        0.1652
     18 N           6.0157   -3.6308   32.2488 N.ar    1  UNL1       -0.2190
     19 C           0.4650    1.8982   29.7999 C.ar    1  UNL1        0.0536
     20 C          -0.5140    0.8003   29.5065 C.ar    1  UNL1        0.0045
     21 C          -1.0702    0.6414   28.1224 C.ar    1  UNL1        0.0001
     22 C          -0.6473    1.5804   27.0319 C.ar    1  UNL1        0.0000
     23 C           0.3318    2.6783   27.3252 C.ar    1  UNL1        0.0001
     24 C           0.8880    2.8372   28.7092 C.ar    1  UNL1        0.0045
@<TRIPOS>BOND
     1    13    14    1
     2    14    15   ar
     3    15    16   ar
     4    16    17   ar
     5    17     1    1
     6     1     2   ar
     7     2     3   ar
     8     3     4   ar
     9     4     5   ar
    10     5     6    1
    11     6     7    1
    12     7     8    1
    13     8     9   am
    14     9    10    2
    15     9    19    1
    16    19    20   ar
    17    20    21   ar
    18    21    22   ar
    19    22    23   ar
    20    23    24   ar
    21     8    11    1
    22    11    12    1
    23    17    18   ar
    24    18    14   ar
    25     5     1   ar
    26    24    19   ar
    27    11     4    1
@<TRIPOS>MOLECULE
*****
 24 27 0 0 0
SMALL
GASTEIGER

@<TRIPOS>ATOM
      1 C         -13.4005   -5.9423   18.9226 C.ar    1  UNL1        0.1917
      2 N         -11.9051   -5.9923   19.0287 N.ar    1  UNL1       -0.1268
      3 N         -11.3904   -4.5839   18.9902 N.ar    1  UNL1       -0.1316
      4 C         -12.5676   -3.6635   18.8603 C.ar    1  UNL1        0.1615
      5 N         -13.8100   -4.5030   18.8185 N.ar    1  UNL1       -0.2940
      6 C         -15.1535   -3.8485   18.6910 C.3     1  UNL1        0.1302
      7 C         -15.2548   -2.3543   18.6054 C.3     1  UNL1        0.1186
      8 N         -14.0125   -1.5147   18.6472 N.am    1  UNL1       -0.2688
      9 C         -14.1137   -0.0206   18.5616 C.2     1  UNL1        0.2493
     10 O         -12.8713    0.8189   18.6034 O.2     1  UNL1       -0.2699
     11 C         -12.6688   -2.1694   18.7747 C.3     1  UNL1        0.1343
     12 C         -11.4265   -1.3299   18.8165 C.3     1  UNL1        0.0298
     13 C         -17.5695   -9.0587   19.8103 C.3     1  UNL1        0.0744
     14 C         -16.2406   -8.5565   19.3289 C.ar    1  UNL1        0.1481
     15 N         -15.2512   -9.3288   18.5074 N.ar    1  UNL1       -0.1929
     16 S         -14.0668   -8.4434   18.2553 S.2     1  UNL1        0.0369
     17 C         -14.3243   -7.1241   18.9208 C.ar    1  UNL1        0.1652
     18 N         -15.6677   -7.1939   19.5844 N.ar    1  UNL1       -0.2190
     19 C         -15.4573    0.6339   18.4341 C.ar    1  UNL1        0.0536
     20 C         -16.2362    0.9933   19.6646 C.ar    1  UNL1        0.0045
     21 C         -17.5799    1.6479   19.5371 C.ar    1  UNL1        0.0001
     22 C         -18.1445    1.9431   18.1792 C.ar    1  UNL1        0.0000
     23 C         -17.3655    1.5837   16.9487 C.ar    1  UNL1        0.0001
     24 C         -16.0220    0.9291   17.0761 C.ar    1  UNL1        0.0045
@<TRIPOS>BOND
     1    13    14    1
     2    14    15   ar
     3    15    16   ar
     4    16    17   ar
     5    17     1    1
     6     1     2   ar
     7     2     3   ar
     8     3     4   ar
     9     4     5   ar
    10     5     6    1
    11     6     7    1
    12     7     8    1
    13     8     9   am
    14     9    10    2
    15     9    19    1
    16    19    20   ar
    17    20    21   ar
    18    21    22   ar
    19    22    23   ar
    20    23    24   ar
    21     8    11    1
    22    11    12    1
    23    17    18   ar
    24    18    14   ar
    25     5     1   ar
    26    24    19   ar
    27    11     4    1
@<TRIPOS>MOLECULE
*****
 24 27 0 0 0
SMALL
GASTEIGER

@<TRIPOS>ATOM
      1 C          -0.2805    3.6731   19.0486 C.ar    1  UNL1        0.1917
      2 N           0.4228    4.8788   18.4993 N.ar    1  UNL1       -0.1268
      3 N           1.8573    4.5103   18.2617 N.ar    1  UNL1       -0.1316
      4 C           2.0406    3.0770   18.6641 C.ar    1  UNL1        0.1615
      5 N           0.7193    2.5595   19.1504 N.ar    1  UNL1       -0.2940
      6 C           0.5973    1.1412   19.6232 C.3     1  UNL1        0.1302
      7 C           1.7966    0.2403   19.6096 C.3     1  UNL1        0.1186
      8 N           3.1179    0.7578   19.1233 N.am    1  UNL1       -0.2688
      9 C           4.3171   -0.1431   19.1096 C.2     1  UNL1        0.2493
     10 O           5.6384    0.3744   18.6233 O.2     1  UNL1       -0.2699
     11 C           3.2398    2.1761   18.6505 C.3     1  UNL1        0.1343
     12 C           4.5611    2.6936   18.1641 C.3     1  UNL1        0.0298
     13 C          -4.7136    2.8383   21.7929 C.3     1  UNL1        0.0744
     14 C          -3.7669    3.2110   20.6907 C.ar    1  UNL1        0.1481
     15 N          -4.1505    3.7371   19.3394 N.ar    1  UNL1       -0.1929
     16 S          -2.8911    3.9743   18.5597 S.2     1  UNL1        0.0369
     17 C          -1.7293    3.5947   19.4292 C.ar    1  UNL1        0.1652
     18 N          -2.2706    3.1229   20.7463 N.ar    1  UNL1       -0.2190
     19 C           4.1951   -1.5613   19.5824 C.ar    1  UNL1        0.0536
     20 C           3.8603   -2.6508   18.6072 C.ar    1  UNL1        0.0045
     21 C           3.7383   -4.0692   19.0800 C.ar    1  UNL1        0.0001
     22 C           3.9512   -4.3980   20.5279 C.ar    1  UNL1        0.0000
     23 C           4.2860   -3.3085   21.5031 C.ar    1  UNL1        0.0001
     24 C           4.4080   -1.8902   21.0304 C.ar    1  UNL1        0.0045
@<TRIPOS>BOND
     1    13    14    1
     2    14    15   ar
     3    15    16   ar
     4    16    17   ar
     5    17     1    1
     6     1     2   ar
     7     2     3   ar
     8     3     4   ar
     9     4     5   ar
    10     5     6    1
    11     6     7    1
    12     7     8    1
    13     8     9   am
    14     9    10    2
    15     9    19    1
    16    19    20   ar
    17    20    21   ar
    18    21    22   ar
    19    22    23   ar
    20    23    24   ar
    21     8    11    1
    22    11    12    1
    23    17    18   ar
    24    18    14   ar
    25     5     1   ar
    26    24    19   ar
    27    11     4    1
@<TRIPOS>MOLECULE
*****
 24 27 0 0 0
SMALL
GASTEIGER

@<TRIPOS>ATOM
      1 C          -0.9454    2.7530   21.6840 C.ar    1  UNL1        0.1917
      2 N          -0.9661    3.1504   23.1303 N.ar    1  UNL1       -0.1268
      3 N           0.1483    2.4262   23.8258 N.ar    1  UNL1       -0.1316
      4 C           0.8576    1.5813   22.8095 C.ar    1  UNL1        0.1615
      5 N           0.1817    1.7832   21.4858 N.ar    1  UNL1       -0.2940
      6 C           0.6798    1.0580   20.2709 C.3     1  UNL1        0.1302
      7 C           1.8539    0.1308   20.3798 C.3     1  UNL1        0.1186
      8 N           2.5298   -0.0712   21.7035 N.am    1  UNL1       -0.2688
      9 C           3.7039   -0.9984   21.8124 C.2     1  UNL1        0.2493
     10 O           4.3798   -1.2003   23.1362 O.2     1  UNL1       -0.2699
     11 C           2.0317    0.6541   22.9184 C.3     1  UNL1        0.1343
     12 C           2.7076    0.4521   24.2422 C.3     1  UNL1        0.0298
     13 C          -5.3308    3.6176   18.8731 C.3     1  UNL1        0.0744
     14 C          -3.9023    3.6373   19.3303 C.ar    1  UNL1        0.1481
     15 N          -2.7675    4.3409   18.6469 N.ar    1  UNL1       -0.1929
     16 S          -1.5216    4.0953   19.4454 S.2     1  UNL1        0.0369
     17 C          -1.8866    3.2399   20.6223 C.ar    1  UNL1        0.1652
     18 N          -3.3579    2.9568   20.5512 N.ar    1  UNL1       -0.2190
     19 C           4.2020   -1.7236   20.5976 C.ar    1  UNL1        0.0536
     20 C           3.6574   -3.0792   20.2575 C.ar    1  UNL1        0.0045
     21 C           4.1556   -3.8044   19.0425 C.ar    1  UNL1        0.0001
     22 C           5.1983   -3.1740   18.1678 C.ar    1  UNL1        0.0000
     23 C           5.7429   -1.8183   18.5079 C.ar    1  UNL1        0.0001
     24 C           5.2448   -1.0931   19.7227 C.ar    1  UNL1        0.0045
@<TRIPOS>BOND
     1    13    14    1
     2    14    15   ar
     3    15    16   ar
     4    16    17   ar
     5    17     1    1
     6     1     2   ar
     7     2     3   ar
     8     3     4   ar
     9     4     5   ar
    10     5     6    1
    11     6     7    1
    12     7     8    1
    13     8     9   am
    14     9    10    2
    15     9    19    1
    16    19    20   ar
    17    20    21   ar
    18    21    22   ar
    19    22    23   ar
    20    23    24   ar
    21     8    11    1
    22    11    12    1
    23    17    18   ar
    24    18    14   ar
    25     5     1   ar
    26    24    19   ar
    27    11     4    1
@<TRIPOS>MOLECULE
*****
 24 27 0 0 0
SMALL
GASTEIGER

@<TRIPOS>ATOM
      1 C           4.9192   -1.6620   27.7409 C.ar    1  UNL1        0.1917
      2 N           5.9436   -2.4196   28.5326 N.ar    1  UNL1       -0.1268
      3 N           6.7249   -3.2757   27.5805 N.ar    1  UNL1       -0.1316
      4 C           6.1835   -3.0473   26.2004 C.ar    1  UNL1        0.1615
      5 N           5.0675   -2.0500   26.2996 N.ar    1  UNL1       -0.2940
      6 C           4.3305   -1.6239   25.0646 C.3     1  UNL1        0.1302
      7 C           4.7094   -2.1952   23.7304 C.3     1  UNL1        0.1186
      8 N           5.8254   -3.1925   23.6312 N.am    1  UNL1       -0.2688
      9 C           6.2044   -3.7638   22.2971 C.2     1  UNL1        0.2493
     10 O           7.3204   -4.7611   22.1979 O.2     1  UNL1       -0.2699
     11 C           6.5625   -3.6186   24.8663 C.3     1  UNL1        0.1343
     12 C           7.6785   -4.6159   24.7671 C.3     1  UNL1        0.0298
     13 C           0.3759    0.5426   29.2831 C.3     1  UNL1        0.0744
     14 C           1.8333    0.3257   29.0024 C.ar    1  UNL1        0.1481
     15 N           2.9399    1.2981   29.2856 N.ar    1  UNL1       -0.1929
     16 S           4.2306    0.6717   28.8475 S.2     1  UNL1        0.0369
     17 C           3.9217   -0.6876   28.2936 C.ar    1  UNL1        0.1652
     18 N           2.4401   -0.9014   28.3893 N.ar    1  UNL1       -0.2190
     19 C           5.4674   -3.3377   21.0621 C.ar    1  UNL1        0.0536
     20 C           4.2901   -4.1322   20.5797 C.ar    1  UNL1        0.0045
     21 C           3.5530   -3.7061   19.3446 C.ar    1  UNL1        0.0001
     22 C           3.9934   -2.4856   18.5921 C.ar    1  UNL1        0.0000
     23 C           5.1707   -1.6911   19.0745 C.ar    1  UNL1        0.0001
     24 C           5.9077   -2.1172   20.3095 C.ar    1  UNL1        0.0045
@<TRIPOS>BOND
     1    13    14    1
     2    14    15   ar
     3    15    16   ar
     4    16    17   ar
     5    17     1    1
     6     1     2   ar
     7     2     3   ar
     8     3     4   ar
     9     4     5   ar
    10     5     6    1
    11     6     7    1
    12     7     8    1
    13     8     9   am
    14     9    10    2
    15     9    19    1
    16    19    20   ar
    17    20    21   ar
    18    21    22   ar
    19    22    23   ar
    20    23    24   ar
    21     8    11    1
    22    11    12    1
    23    17    18   ar
    24    18    14   ar
    25     5     1   ar
    26    24    19   ar
    27    11     4    1
