@<TRIPOS>MOLECULE
*****
 34 37 0 0 0
SMALL
GASTEIGER

@<TRIPOS>ATOM
      1 N         -10.6250  -19.8453   23.9095 N.3     1  UNL1       -0.2935
      2 H          -9.7416  -20.1053   24.3482 H       1  UNL1        0.1236
      3 C         -10.4414  -20.0175   22.4308 C.3     1  UNL1        0.0956
      4 C          -6.3772  -19.4434   20.5862 C.ar    1  UNL1        0.0001
      5 C          -6.4973  -19.8400   22.0278 C.ar    1  UNL1       -0.0003
      6 C          -7.8520  -20.0314   22.6427 C.ar    1  UNL1       -0.0029
      7 C          -9.0867  -19.8261   21.8160 C.ar    1  UNL1       -0.0064
      8 C          -8.9666  -19.4294   20.3743 C.ar    1  UNL1       -0.0029
      9 C          -7.6118  -19.2381   19.7594 C.ar    1  UNL1       -0.0003
     10 C          -3.8349  -18.9748   20.8447 C.2     1  UNL1        0.0598
     11 C          -5.0224  -19.2520   19.9713 C.2     1  UNL1        0.0047
     12 O          -1.2656  -19.3563   20.8983 O.2     1  UNL1       -0.2681
     13 C          -2.4801  -18.7834   20.2299 C.2     1  UNL1        0.2679
     14 N          -2.3398  -18.0192   18.9469 N.am    1  UNL1       -0.1934
     15 O          -0.9849  -17.8279   18.3322 O.3     1  UNL1       -0.2949
     16 H          -3.1369  -17.6432   18.5082 H       1  UNL1        0.1825
     17 H          -0.3148  -18.2573   18.8866 H       1  UNL1        0.2414
     18 C         -11.0074  -18.5062   24.4668 C.3     1  UNL1        0.0736
     19 C         -10.0154  -17.3809   24.4627 C.3     1  UNL1        0.0450
     20 C          -9.7032  -16.6610   23.1843 C.2     1  UNL1       -0.0005
     21 C          -8.3936  -16.0213   22.8299 C.2     1  UNL1        0.0946
     22 N          -8.5269  -15.4194   21.4624 N.2     1  UNL1       -0.2481
     23 C          -9.9189  -15.6870   20.9718 C.2     1  UNL1        0.0631
     24 C         -10.6183  -15.3311   19.6935 C.3     1  UNL1        0.0717
     25 C         -12.0447  -15.7426   19.4794 C.2     1  UNL1       -0.0198
     26 C         -12.7717  -16.5100   20.5436 C.2     1  UNL1       -0.0042
     27 C         -12.0723  -16.8659   21.8219 C.2     1  UNL1        0.0006
     28 C         -10.6459  -16.4544   22.0360 C.2     1  UNL1        0.0114
     29 C          -7.1662  -15.9892   23.6916 C.ar    1  UNL1        0.0986
     30 C          -7.2170  -15.3459   25.0456 C.ar    1  UNL1        0.0207
     31 C          -5.9896  -15.3138   25.9072 C.ar    1  UNL1        0.0032
     32 C          -4.7114  -15.9251   25.4149 C.ar    1  UNL1        0.0207
     33 C          -4.6606  -16.5684   24.0609 C.ar    1  UNL1        0.0989
     34 N          -5.8880  -16.6005   23.1992 N.ar    1  UNL1       -0.2423
@<TRIPOS>BOND
     1    12    13    2
     2    13    10    1
     3    10    11    2
     4    11     4    1
     5     4     5   ar
     6     5     6   ar
     7     6     7   ar
     8     7     3    1
     9     3     1    1
    10     1    18    1
    11    18    19    1
    12    19    20    1
    13    20    21    2
    14    21    29    1
    15    29    30   ar
    16    30    31   ar
    17    31    32   ar
    18    32    33   ar
    19    33    34   ar
    20    21    22    1
    21    22    23    2
    22    23    24    1
    23    24    25    1
    24    25    26    2
    25    26    27    1
    26    27    28    2
    27     7     8   ar
    28     8     9   ar
    29    13    14   am
    30    14    15    1
    31     9     4   ar
    32    28    20    1
    33    34    29   ar
    34    28    23    1
    35     1     2    1
    36    14    16    1
    37    15    17    1
@<TRIPOS>MOLECULE
*****
 34 37 0 0 0
SMALL
GASTEIGER

@<TRIPOS>ATOM
      1 N          -4.3480  -16.1143   23.3706 N.3     1  UNL1       -0.2935
      2 H          -3.4861  -15.5723   23.4311 H       1  UNL1        0.1236
      3 C          -5.4311  -15.2749   23.9806 C.3     1  UNL1        0.0956
      4 C          -9.7513  -16.3359   23.3022 C.ar    1  UNL1        0.0001
      5 C          -8.8534  -16.0628   22.1321 C.ar    1  UNL1       -0.0003
      6 C          -7.4133  -15.7091   22.3582 C.ar    1  UNL1       -0.0029
      7 C          -6.8712  -15.6285   23.7544 C.ar    1  UNL1       -0.0064
      8 C          -7.7691  -15.9017   24.9246 C.ar    1  UNL1       -0.0029
      9 C          -9.2092  -16.2553   24.6984 C.ar    1  UNL1       -0.0003
     10 C         -11.8450  -17.7462   23.9163 C.2     1  UNL1        0.0598
     11 C         -11.1914  -16.6896   23.0760 C.2     1  UNL1        0.0047
     12 O         -13.8186  -18.2150   22.2930 O.2     1  UNL1       -0.2681
     13 C         -13.2851  -18.1000   23.6902 C.2     1  UNL1        0.2679
     14 N         -14.1916  -18.3387   24.8612 N.am    1  UNL1       -0.1934
     15 O         -15.6317  -18.6924   24.6350 O.3     1  UNL1       -0.2949
     16 H         -13.8415  -18.2632   25.7782 H       1  UNL1        0.1825
     17 H         -15.8108  -18.7251   23.6822 H       1  UNL1        0.2414
     18 C          -4.0459  -17.4723   23.9315 C.3     1  UNL1        0.0736
     19 C          -4.2624  -18.6960   23.0913 C.3     1  UNL1        0.0450
     20 C          -4.1345  -18.6134   21.5990 C.2     1  UNL1       -0.0005
     21 C          -5.2466  -18.7884   20.6078 C.2     1  UNL1        0.0946
     22 N          -4.6715  -18.6244   19.2322 N.2     1  UNL1       -0.2481
     23 C          -3.2039  -18.3481   19.3733 C.2     1  UNL1        0.0631
     24 C          -2.1269  -18.1018   18.3587 C.3     1  UNL1        0.0717
     25 C          -0.7180  -17.8487   18.8070 C.2     1  UNL1       -0.0198
     26 C          -0.3862  -17.8418   20.2698 C.2     1  UNL1       -0.0042
     27 C          -1.4632  -18.0881   21.2844 C.2     1  UNL1        0.0006
     28 C          -2.8720  -18.3412   20.8361 C.2     1  UNL1        0.0114
     29 C          -6.6819  -19.0767   20.9347 C.ar    1  UNL1        0.0986
     30 C          -7.0721  -19.4489   22.3344 C.ar    1  UNL1        0.0207
     31 C          -8.5074  -19.7373   22.6613 C.ar    1  UNL1        0.0032
     32 C          -9.5524  -19.6534   21.5886 C.ar    1  UNL1        0.0207
     33 C          -9.1622  -19.2812   20.1889 C.ar    1  UNL1        0.0989
     34 N          -7.7269  -18.9928   19.8620 N.ar    1  UNL1       -0.2423
@<TRIPOS>BOND
     1    12    13    2
     2    13    10    1
     3    10    11    2
     4    11     4    1
     5     4     5   ar
     6     5     6   ar
     7     6     7   ar
     8     7     3    1
     9     3     1    1
    10     1    18    1
    11    18    19    1
    12    19    20    1
    13    20    21    2
    14    21    29    1
    15    29    30   ar
    16    30    31   ar
    17    31    32   ar
    18    32    33   ar
    19    33    34   ar
    20    21    22    1
    21    22    23    2
    22    23    24    1
    23    24    25    1
    24    25    26    2
    25    26    27    1
    26    27    28    2
    27     7     8   ar
    28     8     9   ar
    29    13    14   am
    30    14    15    1
    31     9     4   ar
    32    28    20    1
    33    34    29   ar
    34    28    23    1
    35     1     2    1
    36    14    16    1
    37    15    17    1
@<TRIPOS>MOLECULE
*****
 34 37 0 0 0
SMALL
GASTEIGER

@<TRIPOS>ATOM
      1 N          -5.7135  -19.0998   20.3436 N.3     1  UNL1       -0.2935
      2 H          -5.6429  -18.1032   20.5490 H       1  UNL1        0.1236
      3 C          -6.9947  -19.2968   19.5890 C.3     1  UNL1        0.0956
      4 C         -10.9427  -18.7945   21.6895 C.ar    1  UNL1        0.0001
      5 C         -10.8773  -19.5225   20.3796 C.ar    1  UNL1       -0.0003
      6 C          -9.5613  -19.6900   19.6794 C.ar    1  UNL1       -0.0029
      7 C          -8.3107  -19.1294   20.2891 C.ar    1  UNL1       -0.0064
      8 C          -8.3761  -18.4013   21.5991 C.ar    1  UNL1       -0.0029
      9 C          -9.6921  -18.2339   22.2992 C.ar    1  UNL1       -0.0003
     10 C         -12.3242  -18.6857   23.8870 C.2     1  UNL1        0.0598
     11 C         -12.2587  -18.6271   22.3896 C.2     1  UNL1        0.0047
     12 O         -14.8790  -18.2225   23.7949 O.2     1  UNL1       -0.2681
     13 C         -13.6402  -18.5183   24.5872 C.2     1  UNL1        0.2679
     14 N         -13.7174  -18.6467   26.0797 N.am    1  UNL1       -0.1934
     15 O         -15.0334  -18.4793   26.7798 O.3     1  UNL1       -0.2949
     16 H         -12.9043  -18.8408   26.5998 H       1  UNL1        0.1825
     17 H         -15.7259  -18.2939   26.1265 H       1  UNL1        0.2414
     18 C          -5.4853  -19.8256   21.6363 C.3     1  UNL1        0.0736
     19 C          -4.6363  -19.2042   22.7056 C.3     1  UNL1        0.0450
     20 C          -3.8044  -17.9954   22.3948 C.2     1  UNL1       -0.0005
     21 C          -4.0392  -16.6069   22.9113 C.2     1  UNL1        0.0946
     22 N          -2.9715  -15.7162   22.3486 N.2     1  UNL1       -0.2481
     23 C          -2.0767  -16.5543   21.4843 C.2     1  UNL1        0.0631
     24 C          -0.8598  -16.2168   20.6750 C.3     1  UNL1        0.0717
     25 C          -0.1575  -17.2879   19.8942 C.2     1  UNL1       -0.0198
     26 C          -0.6723  -18.6965   19.9228 C.2     1  UNL1       -0.0042
     27 C          -1.8893  -19.0340   20.7321 C.2     1  UNL1        0.0006
     28 C          -2.5915  -17.9629   21.5128 C.2     1  UNL1        0.0114
     29 C          -5.1473  -16.1833   23.8294 C.ar    1  UNL1        0.0986
     30 C          -4.8615  -15.9195   25.2780 C.ar    1  UNL1        0.0207
     31 C          -5.9695  -15.4959   26.1961 C.ar    1  UNL1        0.0032
     32 C          -7.3634  -15.3363   25.6655 C.ar    1  UNL1        0.0207
     33 C          -7.6492  -15.6002   24.2168 C.ar    1  UNL1        0.0989
     34 N          -6.5412  -16.0237   23.2988 N.ar    1  UNL1       -0.2423
@<TRIPOS>BOND
     1    12    13    2
     2    13    10    1
     3    10    11    2
     4    11     4    1
     5     4     5   ar
     6     5     6   ar
     7     6     7   ar
     8     7     3    1
     9     3     1    1
    10     1    18    1
    11    18    19    1
    12    19    20    1
    13    20    21    2
    14    21    29    1
    15    29    30   ar
    16    30    31   ar
    17    31    32   ar
    18    32    33   ar
    19    33    34   ar
    20    21    22    1
    21    22    23    2
    22    23    24    1
    23    24    25    1
    24    25    26    2
    25    26    27    1
    26    27    28    2
    27     7     8   ar
    28     8     9   ar
    29    13    14   am
    30    14    15    1
    31     9     4   ar
    32    28    20    1
    33    34    29   ar
    34    28    23    1
    35     1     2    1
    36    14    16    1
    37    15    17    1
@<TRIPOS>MOLECULE
*****
 34 37 0 0 0
SMALL
GASTEIGER

@<TRIPOS>ATOM
      1 N          -7.3643  -15.1722   25.3404 N.3     1  UNL1       -0.2935
      2 H          -7.3282  -14.3345   24.7596 H       1  UNL1        0.1236
      3 C          -5.9528  -15.4810   25.7432 C.3     1  UNL1        0.0956
      4 C          -3.0071  -16.9485   22.6740 C.ar    1  UNL1        0.0001
      5 C          -3.3255  -17.7931   23.8720 C.ar    1  UNL1       -0.0003
      6 C          -4.3074  -17.3040   24.8951 C.ar    1  UNL1       -0.0029
      7 C          -4.9709  -15.9702   24.7202 C.ar    1  UNL1       -0.0064
      8 C          -4.6525  -15.1254   23.5221 C.ar    1  UNL1       -0.0029
      9 C          -3.6706  -15.6146   22.4991 C.ar    1  UNL1       -0.0003
     10 C          -2.2965  -17.2277   20.1907 C.2     1  UNL1        0.0598
     11 C          -2.0252  -17.4376   21.6510 C.2     1  UNL1        0.0047
     12 O          -0.1025  -18.4876   19.5998 O.2     1  UNL1       -0.2681
     13 C          -1.3146  -17.7168   19.1676 C.2     1  UNL1        0.2679
     14 N          -1.5448  -17.4353   17.7124 N.am    1  UNL1       -0.1934
     15 O          -0.5629  -17.9245   16.6893 O.3     1  UNL1       -0.2949
     16 H          -2.3404  -16.9294   17.4287 H       1  UNL1        0.1825
     17 H           0.1564  -18.4003   17.1332 H       1  UNL1        0.2414
     18 C          -8.1680  -16.1886   24.5848 C.3     1  UNL1        0.0736
     19 C          -7.8024  -16.5339   23.1715 C.3     1  UNL1        0.0450
     20 C          -8.7518  -17.3277   22.3238 C.2     1  UNL1       -0.0005
     21 C          -8.3813  -18.4482   21.3980 C.2     1  UNL1        0.0946
     22 N          -9.6389  -18.9533   20.7551 N.2     1  UNL1       -0.2481
     23 C         -10.7867  -18.1450   21.2836 C.2     1  UNL1        0.0631
     24 C         -12.2601  -18.1940   21.0073 C.3     1  UNL1        0.0717
     25 C         -13.1854  -17.2383   21.7005 C.2     1  UNL1       -0.0198
     26 C         -12.6371  -16.2336   22.6699 C.2     1  UNL1       -0.0042
     27 C         -11.1636  -16.1845   22.9463 C.2     1  UNL1        0.0006
     28 C         -10.2384  -17.1403   22.2531 C.2     1  UNL1        0.0114
     29 C          -6.9964  -18.9717   21.1573 C.ar    1  UNL1        0.0986
     30 C          -6.2965  -19.7598   22.2245 C.ar    1  UNL1        0.0207
     31 C          -4.9116  -20.2833   21.9839 C.ar    1  UNL1        0.0032
     32 C          -4.2265  -20.0188   20.6759 C.ar    1  UNL1        0.0207
     33 C          -4.9264  -19.2307   19.6087 C.ar    1  UNL1        0.0989
     34 N          -6.3114  -18.7072   19.8494 N.ar    1  UNL1       -0.2423
@<TRIPOS>BOND
     1    12    13    2
     2    13    10    1
     3    10    11    2
     4    11     4    1
     5     4     5   ar
     6     5     6   ar
     7     6     7   ar
     8     7     3    1
     9     3     1    1
    10     1    18    1
    11    18    19    1
    12    19    20    1
    13    20    21    2
    14    21    29    1
    15    29    30   ar
    16    30    31   ar
    17    31    32   ar
    18    32    33   ar
    19    33    34   ar
    20    21    22    1
    21    22    23    2
    22    23    24    1
    23    24    25    1
    24    25    26    2
    25    26    27    1
    26    27    28    2
    27     7     8   ar
    28     8     9   ar
    29    13    14   am
    30    14    15    1
    31     9     4   ar
    32    28    20    1
    33    34    29   ar
    34    28    23    1
    35     1     2    1
    36    14    16    1
    37    15    17    1
@<TRIPOS>MOLECULE
*****
 34 37 0 0 0
SMALL
GASTEIGER

@<TRIPOS>ATOM
      1 N          -7.6274  -15.8036   25.4790 N.3     1  UNL1       -0.2935
      2 H          -8.1039  -14.9100   25.6000 H       1  UNL1        0.1236
      3 C          -6.1715  -15.5572   25.7424 C.3     1  UNL1        0.0956
      4 C          -3.0880  -16.8701   22.7392 C.ar    1  UNL1        0.0001
      5 C          -3.8938  -15.6291   22.4932 C.ar    1  UNL1       -0.0003
      6 C          -4.9217  -15.1914   23.4943 C.ar    1  UNL1       -0.0029
      7 C          -5.1437  -15.9948   24.7413 C.ar    1  UNL1       -0.0064
      8 C          -4.3378  -17.2359   24.9873 C.ar    1  UNL1       -0.0029
      9 C          -3.3100  -17.6735   23.9863 C.ar    1  UNL1       -0.0003
     10 C          -2.4088  -17.3618   20.2802 C.2     1  UNL1        0.0598
     11 C          -2.0602  -17.3077   21.7381 C.2     1  UNL1        0.0047
     12 O          -0.1736  -18.5665   19.7303 O.2     1  UNL1       -0.2681
     13 C          -1.3811  -17.7994   19.2791 C.2     1  UNL1        0.2679
     14 N          -1.5608  -17.4699   17.8268 N.am    1  UNL1       -0.1934
     15 O          -0.5330  -17.9076   16.8257 O.3     1  UNL1       -0.2949
     16 H          -2.3533  -16.9665   17.5306 H       1  UNL1        0.1825
     17 H           0.1768  -18.3879   17.2799 H       1  UNL1        0.2414
     18 C          -8.0674  -16.3531   24.1543 C.3     1  UNL1        0.0736
     19 C          -8.0901  -17.8357   23.9275 C.3     1  UNL1        0.0450
     20 C          -8.0560  -18.3814   22.5307 C.2     1  UNL1       -0.0005
     21 C          -9.1832  -18.3440   21.5418 C.2     1  UNL1        0.0946
     22 N          -8.7125  -18.9997   20.2775 N.2     1  UNL1       -0.2481
     23 C          -7.2944  -19.4423   20.4850 C.2     1  UNL1        0.0631
     24 C          -6.3202  -20.1440   19.5859 C.3     1  UNL1        0.0717
     25 C          -4.9402  -20.4635   20.0793 C.2     1  UNL1       -0.0198
     26 C          -4.5344  -20.0813   21.4719 C.2     1  UNL1       -0.0042
     27 C          -5.5087  -19.3797   22.3710 C.2     1  UNL1        0.0006
     28 C          -6.8886  -19.0602   21.8776 C.2     1  UNL1        0.0114
     29 C         -10.5424  -17.7544   21.7760 C.ar    1  UNL1        0.0986
     30 C         -11.3865  -18.2447   22.9149 C.ar    1  UNL1        0.0207
     31 C         -12.7457  -17.6551   23.1492 C.ar    1  UNL1        0.0032
     32 C         -13.2609  -16.5752   22.2445 C.ar    1  UNL1        0.0207
     33 C         -12.4169  -16.0850   21.1056 C.ar    1  UNL1        0.0989
     34 N         -11.0576  -16.6745   20.8714 N.ar    1  UNL1       -0.2423
@<TRIPOS>BOND
     1    12    13    2
     2    13    10    1
     3    10    11    2
     4    11     4    1
     5     4     5   ar
     6     5     6   ar
     7     6     7   ar
     8     7     3    1
     9     3     1    1
    10     1    18    1
    11    18    19    1
    12    19    20    1
    13    20    21    2
    14    21    29    1
    15    29    30   ar
    16    30    31   ar
    17    31    32   ar
    18    32    33   ar
    19    33    34   ar
    20    21    22    1
    21    22    23    2
    22    23    24    1
    23    24    25    1
    24    25    26    2
    25    26    27    1
    26    27    28    2
    27     7     8   ar
    28     8     9   ar
    29    13    14   am
    30    14    15    1
    31     9     4   ar
    32    28    20    1
    33    34    29   ar
    34    28    23    1
    35     1     2    1
    36    14    16    1
    37    15    17    1
@<TRIPOS>MOLECULE
*****
 34 37 0 0 0
SMALL
GASTEIGER

@<TRIPOS>ATOM
      1 N          -4.0782  -16.4119   23.1112 N.3     1  UNL1       -0.2935
      2 H          -3.1514  -15.9904   23.1722 H       1  UNL1        0.1236
      3 C          -5.0586  -15.3691   23.5596 C.3     1  UNL1        0.0956
      4 C          -9.4465  -16.3464   23.7638 C.ar    1  UNL1        0.0001
      5 C          -8.6459  -16.2239   25.0263 C.ar    1  UNL1       -0.0003
      6 C          -7.1832  -15.8981   24.9583 C.ar    1  UNL1       -0.0029
      7 C          -6.5213  -15.6948   23.6277 C.ar    1  UNL1       -0.0064
      8 C          -7.3220  -15.8174   22.3651 C.ar    1  UNL1       -0.0029
      9 C          -8.7846  -16.1431   22.4332 C.ar    1  UNL1       -0.0003
     10 C         -11.5406  -17.5136   22.7628 C.2     1  UNL1        0.0598
     11 C         -10.9092  -16.6721   23.8319 C.2     1  UNL1        0.0047
     12 O         -13.8048  -17.9574   21.5684 O.2     1  UNL1       -0.2681
     13 C         -13.0032  -17.8394   22.8308 C.2     1  UNL1        0.2679
     14 N         -13.6643  -18.0473   24.1611 N.am    1  UNL1       -0.1934
     15 O         -15.1269  -18.3731   24.2290 O.3     1  UNL1       -0.2949
     16 H         -13.1383  -17.9699   24.9897 H       1  UNL1        0.1825
     17 H         -15.4916  -18.4117   23.3310 H       1  UNL1        0.2414
     18 C          -4.0033  -17.7280   23.8270 C.3     1  UNL1        0.0736
     19 C          -4.2640  -19.0033   23.0814 C.3     1  UNL1        0.0450
     20 C          -5.0780  -18.9825   21.8217 C.2     1  UNL1       -0.0005
     21 C          -4.5611  -18.6987   20.4425 C.2     1  UNL1        0.0946
     22 N          -5.7155  -18.7827   19.4884 N.2     1  UNL1       -0.2481
     23 C          -6.9459  -19.1185   20.2780 C.2     1  UNL1        0.0631
     24 C          -8.3741  -19.3278   19.8702 C.3     1  UNL1        0.0717
     25 C          -9.4083  -19.6605   20.9044 C.2     1  UNL1       -0.0198
     26 C          -9.0143  -19.7840   22.3465 C.2     1  UNL1       -0.0042
     27 C          -7.5861  -19.5747   22.7543 C.2     1  UNL1        0.0006
     28 C          -6.5519  -19.2420   21.7201 C.2     1  UNL1        0.0114
     29 C          -3.1394  -18.3857   20.0808 C.ar    1  UNL1        0.0986
     30 C          -2.7828  -18.0492   18.6632 C.ar    1  UNL1        0.0207
     31 C          -1.3611  -17.7362   18.3016 C.ar    1  UNL1        0.0032
     32 C          -0.2960  -17.7598   19.3574 C.ar    1  UNL1        0.0207
     33 C          -0.6526  -18.0964   20.7750 C.ar    1  UNL1        0.0989
     34 N          -2.0743  -18.4093   21.1367 N.ar    1  UNL1       -0.2423
@<TRIPOS>BOND
     1    12    13    2
     2    13    10    1
     3    10    11    2
     4    11     4    1
     5     4     5   ar
     6     5     6   ar
     7     6     7   ar
     8     7     3    1
     9     3     1    1
    10     1    18    1
    11    18    19    1
    12    19    20    1
    13    20    21    2
    14    21    29    1
    15    29    30   ar
    16    30    31   ar
    17    31    32   ar
    18    32    33   ar
    19    33    34   ar
    20    21    22    1
    21    22    23    2
    22    23    24    1
    23    24    25    1
    24    25    26    2
    25    26    27    1
    26    27    28    2
    27     7     8   ar
    28     8     9   ar
    29    13    14   am
    30    14    15    1
    31     9     4   ar
    32    28    20    1
    33    34    29   ar
    34    28    23    1
    35     1     2    1
    36    14    16    1
    37    15    17    1
@<TRIPOS>MOLECULE
*****
 34 37 0 0 0
SMALL
GASTEIGER

@<TRIPOS>ATOM
      1 N           4.0235   -2.4744   18.2419 N.3     1  UNL1       -0.2935
      2 H           3.5878   -2.0837   19.0773 H       1  UNL1        0.1236
      3 C           5.0104   -3.5029   18.7089 C.3     1  UNL1        0.0956
      4 C           6.0855   -3.7722   23.0704 C.ar    1  UNL1        0.0001
      5 C           4.6845   -3.4237   22.6634 C.ar    1  UNL1       -0.0003
      6 C           4.3261   -3.3339   21.2096 C.ar    1  UNL1       -0.0029
      7 C           5.3687   -3.5927   20.1627 C.ar    1  UNL1       -0.0064
      8 C           6.7698   -3.9412   20.5697 C.ar    1  UNL1       -0.0029
      9 C           7.1282   -4.0310   22.0235 C.ar    1  UNL1       -0.0003
     10 C           6.7316   -5.1969   25.1446 C.2     1  UNL1        0.0598
     11 C           6.4439   -3.8619   24.5242 C.2     1  UNL1        0.0047
     12 O           8.4909   -4.9905   27.0451 O.2     1  UNL1       -0.2681
     13 C           7.0900   -5.2868   26.5984 C.2     1  UNL1        0.2679
     14 N           6.0475   -5.6729   27.6054 N.am    1  UNL1       -0.1934
     15 O           6.4059   -5.7627   29.0592 O.3     1  UNL1       -0.2949
     16 H           5.1280   -5.8673   27.3122 H       1  UNL1        0.1825
     17 H           7.3433   -5.5418   29.1753 H       1  UNL1        0.2414
     18 C           4.4862   -1.3138   17.4118 C.3     1  UNL1        0.0736
     19 C           4.9223   -0.0422   18.0774 C.3     1  UNL1        0.0450
     20 C           5.2993   -0.0466   19.5293 C.2     1  UNL1       -0.0005
     21 C           4.3803    0.2397   20.6797 C.2     1  UNL1        0.0946
     22 N           5.1746    0.1251   21.9470 N.2     1  UNL1       -0.2481
     23 C           6.5844   -0.2322   21.5798 C.2     1  UNL1        0.0631
     24 C           7.8079   -0.4746   22.4130 C.3     1  UNL1        0.0717
     25 C           9.1085   -0.8231   21.7519 C.2     1  UNL1       -0.0198
     26 C           9.1855   -0.9292   20.2576 C.2     1  UNL1       -0.0042
     27 C           7.9620   -0.6868   19.4244 C.2     1  UNL1        0.0006
     28 C           6.6615   -0.3383   20.0855 C.2     1  UNL1        0.0114
     29 C           2.9230    0.5809   20.5803 C.ar    1  UNL1        0.0986
     30 C           1.9005   -0.5134   20.4983 C.ar    1  UNL1        0.0207
     31 C           0.4432   -0.1723   20.3989 C.ar    1  UNL1        0.0032
     32 C           0.0084    1.2632   20.3815 C.ar    1  UNL1        0.0207
     33 C           1.0310    2.3575   20.4635 C.ar    1  UNL1        0.0989
     34 N           2.4883    2.0164   20.5629 N.ar    1  UNL1       -0.2423
@<TRIPOS>BOND
     1    12    13    2
     2    13    10    1
     3    10    11    2
     4    11     4    1
     5     4     5   ar
     6     5     6   ar
     7     6     7   ar
     8     7     3    1
     9     3     1    1
    10     1    18    1
    11    18    19    1
    12    19    20    1
    13    20    21    2
    14    21    29    1
    15    29    30   ar
    16    30    31   ar
    17    31    32   ar
    18    32    33   ar
    19    33    34   ar
    20    21    22    1
    21    22    23    2
    22    23    24    1
    23    24    25    1
    24    25    26    2
    25    26    27    1
    26    27    28    2
    27     7     8   ar
    28     8     9   ar
    29    13    14   am
    30    14    15    1
    31     9     4   ar
    32    28    20    1
    33    34    29   ar
    34    28    23    1
    35     1     2    1
    36    14    16    1
    37    15    17    1
@<TRIPOS>MOLECULE
*****
 34 37 0 0 0
SMALL
GASTEIGER

@<TRIPOS>ATOM
      1 N          -0.7773    3.7934   21.1202 N.3     1  UNL1       -0.2935
      2 H          -0.9231    3.1211   21.8734 H       1  UNL1        0.1236
      3 C          -0.7481    3.0109   19.8409 C.3     1  UNL1        0.0956
      4 C           2.3603   -0.1850   19.2288 C.ar    1  UNL1        0.0001
      5 C           1.1929   -0.4381   20.1361 C.ar    1  UNL1       -0.0003
      6 C           0.1567    0.6272   20.3402 C.ar    1  UNL1       -0.0029
      7 C           0.2880    1.9456   19.6369 C.ar    1  UNL1       -0.0064
      8 C           1.4554    2.1987   18.7295 C.ar    1  UNL1       -0.0029
      9 C           2.4915    1.1334   18.5255 C.ar    1  UNL1       -0.0003
     10 C           3.2523   -2.5774   19.7090 C.2     1  UNL1        0.0598
     11 C           3.3964   -1.2503   19.0248 C.2     1  UNL1        0.0047
     12 O           5.7457   -3.2952   19.5770 O.2     1  UNL1       -0.2681
     13 C           4.2884   -3.6428   19.5050 C.2     1  UNL1        0.2679
     14 N           3.8671   -5.0557   19.2291 N.am    1  UNL1       -0.1934
     15 O           4.9032   -6.1210   19.0251 O.3     1  UNL1       -0.2949
     16 H           2.9106   -5.2839   19.1818 H       1  UNL1        0.1825
     17 H           5.7879   -5.7309   19.1037 H       1  UNL1        0.2414
     18 C           0.4017    4.6339   21.5123 C.3     1  UNL1        0.0736
     19 C           1.1630    4.3197   22.7660 C.3     1  UNL1        0.0450
     20 C           1.2626    2.9027   23.2478 C.2     1  UNL1       -0.0005
     21 C           0.2884    2.2086   24.1529 C.2     1  UNL1        0.0946
     22 N           0.7776    0.8079   24.3735 N.2     1  UNL1       -0.2481
     23 C           2.0541    0.6363   23.6047 C.2     1  UNL1        0.0631
     24 C           2.9823   -0.5317   23.4483 C.3     1  UNL1        0.0717
     25 C           4.2102   -0.4049   22.5961 C.2     1  UNL1       -0.0198
     26 C           4.5099    0.8897   21.9004 C.2     1  UNL1       -0.0042
     27 C           3.5818    2.0576   22.0568 C.2     1  UNL1        0.0006
     28 C           2.3539    1.9309   22.9089 C.2     1  UNL1        0.0114
     29 C          -0.9564    2.8098   24.7352 C.ar    1  UNL1        0.0986
     30 C          -1.1216    2.8975   26.2234 C.ar    1  UNL1        0.0207
     31 C          -2.3664    3.4987   26.8057 C.ar    1  UNL1        0.0032
     32 C          -3.4460    4.0121   25.8998 C.ar    1  UNL1        0.0207
     33 C          -3.2808    3.9243   24.4115 C.ar    1  UNL1        0.0989
     34 N          -2.0360    3.3232   23.8292 N.ar    1  UNL1       -0.2423
@<TRIPOS>BOND
     1    12    13    2
     2    13    10    1
     3    10    11    2
     4    11     4    1
     5     4     5   ar
     6     5     6   ar
     7     6     7   ar
     8     7     3    1
     9     3     1    1
    10     1    18    1
    11    18    19    1
    12    19    20    1
    13    20    21    2
    14    21    29    1
    15    29    30   ar
    16    30    31   ar
    17    31    32   ar
    18    32    33   ar
    19    33    34   ar
    20    21    22    1
    21    22    23    2
    22    23    24    1
    23    24    25    1
    24    25    26    2
    25    26    27    1
    26    27    28    2
    27     7     8   ar
    28     8     9   ar
    29    13    14   am
    30    14    15    1
    31     9     4   ar
    32    28    20    1
    33    34    29   ar
    34    28    23    1
    35     1     2    1
    36    14    16    1
    37    15    17    1
