@<TRIPOS>MOLECULE
*****
 34 37 0 0 0
SMALL
GASTEIGER

@<TRIPOS>ATOM
      1 C          -5.0183  -14.7208   26.0257 C.3     1  UNL1        0.0556
      2 C          -6.0617  -15.5297   25.3138 C.ar    1  UNL1        0.0981
      3 N          -7.5287  -15.5472   25.6261 N.ar    1  UNL1       -0.1719
      4 N          -8.1950  -16.4915   24.6698 N.ar    1  UNL1       -0.2444
      5 C          -7.1396  -17.0576   23.7665 C.ar    1  UNL1        0.1284
      6 C          -7.2089  -18.0375   22.6330 C.ar    1  UNL1        0.1550
      7 N          -5.9598  -18.4231   21.8974 N.ar    1  UNL1       -0.1970
      8 C          -4.6414  -17.8287   22.2954 C.ar    1  UNL1        0.2215
      9 N          -4.5721  -16.8487   23.4290 N.ar    1  UNL1       -0.2108
     10 C          -5.8212  -16.4632   24.1645 C.ar    1  UNL1        0.1193
     11 N          -3.3922  -18.2142   21.5599 N.pl3   1  UNL1       -0.2754
     12 C          -3.1750  -19.6397   21.1466 C.3     1  UNL1        0.1107
     13 C          -1.9258  -20.0252   20.4111 C.3     1  UNL1        0.0904
     14 N          -0.8939  -18.9853   20.0889 N.3     1  UNL1       -0.2957
     15 C          -1.1112  -17.5598   20.5022 C.3     1  UNL1        0.0742
     16 C          -0.0793  -16.5199   20.1801 C.3     1  UNL1        0.0189
     17 C          -2.3604  -17.1743   21.2378 C.3     1  UNL1        0.1093
     18 H          -0.7835  -18.9843   19.0749 H       1  UNL1        0.1233
     19 N          -8.5274  -18.6319   22.2350 N.pl3   1  UNL1       -0.2820
     20 H          -8.7716  -19.5360   22.5387 H       1  UNL1        0.1551
     21 C          -9.4739  -17.8488   21.3742 C.ar    1  UNL1        0.1366
     22 C         -10.4417  -18.5652   20.4797 C.ar    1  UNL1        0.0551
     23 C         -11.3882  -17.7820   19.6190 C.ar    1  UNL1        0.1036
     24 N         -11.3668  -16.2826   19.6526 N.ar    1  UNL1       -0.2223
     25 C         -10.3989  -15.5662   20.5471 C.ar    1  UNL1        0.2001
     26 N          -9.4524  -16.3493   21.4079 N.ar    1  UNL1       -0.2089
     27 C          -9.6594  -16.8132   24.6247 C.3     1  UNL1        0.1595
     28 C         -10.1413  -18.1734   25.0339 C.3     1  UNL1        0.1688
     29 O         -11.2593  -18.8310   24.2806 O.3     1  UNL1       -0.3435
     30 C         -12.3299  -17.9941   23.6454 C.3     1  UNL1        0.2459
     31 C         -13.7743  -18.2814   23.9302 C.3     1  UNL1        0.4248
     32 F         -15.2186  -18.5688   24.2152 F       1  UNL1       -0.1674
     33 F         -13.4450  -18.5028   25.3768 F       1  UNL1       -0.1674
     34 F         -14.1036  -18.0601   22.4837 F       1  UNL1       -0.1674
@<TRIPOS>BOND
     1     1     2    1
     2     2     3   ar
     3     3     4   ar
     4     4    27    1
     5    27    28    1
     6    28    29    1
     7    29    30    1
     8    30    31    1
     9    31    32    1
    10    31    33    1
    11    31    34    1
    12     4     5   ar
    13     5     6   ar
    14     6    19    1
    15    19    21    1
    16    21    22   ar
    17    22    23   ar
    18    23    24   ar
    19    24    25   ar
    20    25    26   ar
    21     6     7   ar
    22     7     8   ar
    23     8    11    1
    24    11    12    1
    25    12    13    1
    26    13    14    1
    27    14    15    1
    28    15    16    1
    29    15    17    1
    30     8     9   ar
    31     9    10   ar
    32    10     2   ar
    33    10     5   ar
    34    26    21   ar
    35    17    11    1
    36    19    20    1
    37    14    18    1
@<TRIPOS>MOLECULE
*****
 34 37 0 0 0
SMALL
GASTEIGER

@<TRIPOS>ATOM
      1 C          -7.6677  -15.0026   27.2507 C.3     1  UNL1        0.0556
      2 C          -7.0676  -15.5878   26.0068 C.ar    1  UNL1        0.0981
      3 N          -5.6120  -15.5849   25.6445 N.ar    1  UNL1       -0.1719
      4 N          -5.4625  -16.2740   24.3206 N.ar    1  UNL1       -0.2444
      5 C          -6.8258  -16.7029   23.8647 C.ar    1  UNL1        0.1284
      6 C          -7.2919  -17.4247   22.6353 C.ar    1  UNL1        0.1550
      7 N          -8.7501  -17.7225   22.4480 N.ar    1  UNL1       -0.1970
      8 C          -9.7420  -17.2985   23.4901 C.ar    1  UNL1        0.2215
      9 N          -9.2758  -16.5766   24.7196 N.ar    1  UNL1       -0.2108
     10 C          -7.8177  -16.2788   24.9069 C.ar    1  UNL1        0.1193
     11 N         -11.2002  -17.5962   23.3029 N.pl3   1  UNL1       -0.2754
     12 C         -11.8065  -17.5433   21.9319 C.3     1  UNL1        0.1107
     13 C         -13.2646  -17.8411   21.7445 C.3     1  UNL1        0.0904
     14 N         -14.1166  -18.1918   22.9283 N.3     1  UNL1       -0.2957
     15 C         -13.5104  -18.2447   24.2993 C.3     1  UNL1        0.0742
     16 C         -14.3623  -18.5954   25.4830 C.3     1  UNL1        0.0189
     17 C         -12.0521  -17.9469   24.4866 C.3     1  UNL1        0.1093
     18 H         -14.5103  -19.1146   22.7446 H       1  UNL1        0.1233
     19 N          -6.2999  -17.8488   21.5931 N.pl3   1  UNL1       -0.2820
     20 H          -5.4839  -17.3182   21.4453 H       1  UNL1        0.1551
     21 C          -6.5511  -19.0815   20.7761 C.ar    1  UNL1        0.1366
     22 C          -5.7109  -20.3059   20.9880 C.ar    1  UNL1        0.0551
     23 C          -5.9621  -21.5385   20.1711 C.ar    1  UNL1        0.1036
     24 N          -7.0535  -21.5468   19.1421 N.ar    1  UNL1       -0.2223
     25 C          -7.8938  -20.3224   18.9302 C.ar    1  UNL1        0.2001
     26 N          -7.6426  -19.0897   19.7471 N.ar    1  UNL1       -0.2089
     27 C          -4.1758  -16.4954   23.5822 C.3     1  UNL1        0.1595
     28 C          -3.5433  -17.8555   23.5686 C.3     1  UNL1        0.1688
     29 O          -2.3674  -18.1270   22.6779 O.3     1  UNL1       -0.3435
     30 C          -2.3520  -17.5987   21.2741 C.3     1  UNL1        0.2459
     31 C          -2.6496  -18.5152   20.1246 C.3     1  UNL1        0.4248
     32 F          -2.9472  -19.4318   18.9751 F       1  UNL1       -0.1674
     33 F          -2.4333  -19.7026   21.0152 F       1  UNL1       -0.1674
     34 F          -2.8659  -17.3278   19.2339 F       1  UNL1       -0.1674
@<TRIPOS>BOND
     1     1     2    1
     2     2     3   ar
     3     3     4   ar
     4     4    27    1
     5    27    28    1
     6    28    29    1
     7    29    30    1
     8    30    31    1
     9    31    32    1
    10    31    33    1
    11    31    34    1
    12     4     5   ar
    13     5     6   ar
    14     6    19    1
    15    19    21    1
    16    21    22   ar
    17    22    23   ar
    18    23    24   ar
    19    24    25   ar
    20    25    26   ar
    21     6     7   ar
    22     7     8   ar
    23     8    11    1
    24    11    12    1
    25    12    13    1
    26    13    14    1
    27    14    15    1
    28    15    16    1
    29    15    17    1
    30     8     9   ar
    31     9    10   ar
    32    10     2   ar
    33    10     5   ar
    34    26    21   ar
    35    17    11    1
    36    19    20    1
    37    14    18    1
@<TRIPOS>MOLECULE
*****
 34 37 0 0 0
SMALL
GASTEIGER

@<TRIPOS>ATOM
      1 C           8.2072   -7.6803   24.5678 C.3     1  UNL1        0.0556
      2 C           7.8543   -6.2399   24.3421 C.ar    1  UNL1        0.0981
      3 N           7.8126   -5.5397   23.0162 N.ar    1  UNL1       -0.1719
      4 N           7.4137   -4.1140   23.2573 N.ar    1  UNL1       -0.2444
      5 C           7.2089   -3.9331   24.7323 C.ar    1  UNL1        0.1284
      6 C           6.8097   -2.7416   25.5515 C.ar    1  UNL1        0.1550
      7 N           6.6827   -2.8641   27.0411 N.ar    1  UNL1       -0.1970
      8 C           6.9550   -4.1780   27.7114 C.ar    1  UNL1        0.2215
      9 N           7.3543   -5.3694   26.8923 N.ar    1  UNL1       -0.2108
     10 C           7.4812   -5.2470   25.4027 C.ar    1  UNL1        0.1193
     11 N           6.8281   -4.3005   29.2011 N.pl3   1  UNL1       -0.2754
     12 C           7.0824   -5.6190   29.8695 C.3     1  UNL1        0.1107
     13 C           6.9555   -5.7416   31.3591 C.3     1  UNL1        0.0904
     14 N           6.5743   -4.5456   32.1803 N.3     1  UNL1       -0.2957
     15 C           6.3199   -3.2271   31.5118 C.3     1  UNL1        0.0742
     16 C           5.9387   -2.0311   32.3329 C.3     1  UNL1        0.0189
     17 C           6.4469   -3.1045   30.0222 C.3     1  UNL1        0.1093
     18 H           7.3289   -4.3955   32.8499 H       1  UNL1        0.1233
     19 N           6.5373   -1.4277   24.8810 N.pl3   1  UNL1       -0.2820
     20 H           7.2849   -0.8819   24.5457 H       1  UNL1        0.1551
     21 C           5.1260   -0.9454   24.7215 C.ar    1  UNL1        0.1366
     22 C           4.4060   -1.1496   23.4215 C.ar    1  UNL1        0.0551
     23 C           2.9947   -0.6674   23.2620 C.ar    1  UNL1        0.1036
     24 N           2.3032    0.0191   24.4024 N.ar    1  UNL1       -0.2223
     25 C           3.0232    0.2234   25.7025 C.ar    1  UNL1        0.2001
     26 N           4.4346   -0.2589   25.8620 N.ar    1  UNL1       -0.2089
     27 C           7.2486   -3.0551   22.2079 C.3     1  UNL1        0.1595
     28 C           6.8227   -3.4342   20.8205 C.3     1  UNL1        0.1688
     29 O           5.7949   -2.6124   20.1005 O.3     1  UNL1       -0.3435
     30 C           5.0830   -3.1787   18.9078 C.3     1  UNL1        0.2459
     31 C           3.9289   -4.1176   19.0993 C.3     1  UNL1        0.4248
     32 F           2.7749   -5.0565   19.2907 F       1  UNL1       -0.1674
     33 F           4.6794   -5.1896   18.3661 F       1  UNL1       -0.1674
     34 F           3.1784   -3.0455   19.8324 F       1  UNL1       -0.1674
@<TRIPOS>BOND
     1     1     2    1
     2     2     3   ar
     3     3     4   ar
     4     4    27    1
     5    27    28    1
     6    28    29    1
     7    29    30    1
     8    30    31    1
     9    31    32    1
    10    31    33    1
    11    31    34    1
    12     4     5   ar
    13     5     6   ar
    14     6    19    1
    15    19    21    1
    16    21    22   ar
    17    22    23   ar
    18    23    24   ar
    19    24    25   ar
    20    25    26   ar
    21     6     7   ar
    22     7     8   ar
    23     8    11    1
    24    11    12    1
    25    12    13    1
    26    13    14    1
    27    14    15    1
    28    15    16    1
    29    15    17    1
    30     8     9   ar
    31     9    10   ar
    32    10     2   ar
    33    10     5   ar
    34    26    21   ar
    35    17    11    1
    36    19    20    1
    37    14    18    1
@<TRIPOS>MOLECULE
*****
 34 37 0 0 0
SMALL
GASTEIGER

@<TRIPOS>ATOM
      1 C           6.7718   -0.0393   36.7757 C.3     1  UNL1        0.0556
      2 C           5.5995    0.4760   35.9945 C.ar    1  UNL1        0.0981
      3 N           4.6201    1.5142   36.4561 N.ar    1  UNL1       -0.1719
      4 N           3.6161    1.7234   35.3615 N.ar    1  UNL1       -0.2444
      5 C           3.9750    0.8145   34.2234 C.ar    1  UNL1        0.1284
      6 C           3.3440    0.5892   32.8814 C.ar    1  UNL1        0.1550
      7 N           3.9387   -0.4070   31.9307 N.ar    1  UNL1       -0.1970
      8 C           5.1644   -1.1779   32.3219 C.ar    1  UNL1        0.2215
      9 N           5.7955   -0.9526   33.6640 N.ar    1  UNL1       -0.2108
     10 C           5.2008    0.0435   34.6147 C.ar    1  UNL1        0.1193
     11 N           5.7592   -2.1741   31.3712 N.pl3   1  UNL1       -0.2754
     12 C           5.8525   -1.8523   29.9091 C.3     1  UNL1        0.1107
     13 C           6.4472   -2.8485   28.9584 C.3     1  UNL1        0.0904
     14 N           6.9487   -4.1665   29.4697 N.3     1  UNL1       -0.2957
     15 C           6.8554   -4.4883   30.9318 C.3     1  UNL1        0.0742
     16 C           7.3568   -5.8062   31.4432 C.3     1  UNL1        0.0189
     17 C           6.2606   -3.4921   31.8826 C.3     1  UNL1        0.1093
     18 H           7.9355   -4.2238   29.2180 H       1  UNL1        0.1233
     19 N           2.1182    1.3602   32.4901 N.pl3   1  UNL1       -0.2820
     20 H           1.6155    1.8639   33.1704 H       1  UNL1        0.1551
     21 C           1.6583    1.3637   31.0623 C.ar    1  UNL1        0.1366
     22 C           1.5908    2.6533   30.2993 C.ar    1  UNL1        0.0551
     23 C           1.1310    2.6567   28.8715 C.ar    1  UNL1        0.1036
     24 N           0.7386    1.3706   28.2068 N.ar    1  UNL1       -0.2223
     25 C           0.8061    0.0809   28.9699 C.ar    1  UNL1        0.2001
     26 N           1.2660    0.0774   30.3976 N.ar    1  UNL1       -0.2089
     27 C           2.4568    2.6746   35.3983 C.3     1  UNL1        0.1595
     28 C           2.2138    3.5137   36.6176 C.3     1  UNL1        0.1688
     29 O           1.3113    3.0121   37.7057 O.3     1  UNL1       -0.3435
     30 C           1.8894    2.2882   38.8854 C.3     1  UNL1        0.2459
     31 C           1.3970    0.9159   39.2381 C.3     1  UNL1        0.4248
     32 F           0.9046   -0.4563   39.5909 F       1  UNL1       -0.1674
     33 F           2.4184    0.3133   38.3198 F       1  UNL1       -0.1674
     34 F           0.3755    1.5186   40.1565 F       1  UNL1       -0.1674
@<TRIPOS>BOND
     1     1     2    1
     2     2     3   ar
     3     3     4   ar
     4     4    27    1
     5    27    28    1
     6    28    29    1
     7    29    30    1
     8    30    31    1
     9    31    32    1
    10    31    33    1
    11    31    34    1
    12     4     5   ar
    13     5     6   ar
    14     6    19    1
    15    19    21    1
    16    21    22   ar
    17    22    23   ar
    18    23    24   ar
    19    24    25   ar
    20    25    26   ar
    21     6     7   ar
    22     7     8   ar
    23     8    11    1
    24    11    12    1
    25    12    13    1
    26    13    14    1
    27    14    15    1
    28    15    16    1
    29    15    17    1
    30     8     9   ar
    31     9    10   ar
    32    10     2   ar
    33    10     5   ar
    34    26    21   ar
    35    17    11    1
    36    19    20    1
    37    14    18    1
@<TRIPOS>MOLECULE
*****
 34 37 0 0 0
SMALL
GASTEIGER

@<TRIPOS>ATOM
      1 C         -10.0458   -8.0225   18.0047 C.3     1  UNL1        0.0556
      2 C         -10.8858   -6.8647   17.5532 C.ar    1  UNL1        0.0981
      3 N         -10.3757   -5.5764   16.9786 N.ar    1  UNL1       -0.1719
      4 N         -11.5580   -4.7074   16.6674 N.ar    1  UNL1       -0.2444
      5 C         -12.7988   -5.4587   17.0496 C.ar    1  UNL1        0.1284
      6 C         -14.2534   -5.1009   16.9698 C.ar    1  UNL1        0.1550
      7 N         -15.2924   -6.0764   17.4375 N.ar    1  UNL1       -0.1970
      8 C         -14.8769   -7.4096   17.9849 C.ar    1  UNL1        0.2215
      9 N         -13.4224   -7.7674   18.0647 N.ar    1  UNL1       -0.2108
     10 C         -12.3834   -6.7919   17.5970 C.ar    1  UNL1        0.1193
     11 N         -15.9160   -8.3852   18.4526 N.pl3   1  UNL1       -0.2754
     12 C         -15.7685   -9.8450   18.1407 C.3     1  UNL1        0.1107
     13 C         -16.8075  -10.8206   18.6084 C.3     1  UNL1        0.0904
     14 N         -17.9940  -10.3364   19.3880 N.3     1  UNL1       -0.2957
     15 C         -18.1415   -8.8766   19.6999 C.3     1  UNL1        0.0742
     16 C         -19.3280   -8.3924   20.4794 C.3     1  UNL1        0.0189
     17 C         -17.1025   -7.9010   19.2322 C.3     1  UNL1        0.1093
     18 H         -17.9801  -10.8284   20.2814 H       1  UNL1        0.1233
     19 N         -14.6688   -3.7676   16.4223 N.pl3   1  UNL1       -0.2820
     20 H         -14.4771   -3.5393   15.4840 H       1  UNL1        0.1551
     21 C         -15.3764   -2.7821   17.3045 C.ar    1  UNL1        0.1366
     22 C         -15.0282   -1.3249   17.2311 C.ar    1  UNL1        0.0551
     23 C         -15.7358   -0.3394   18.1133 C.ar    1  UNL1        0.1036
     24 N         -16.7915   -0.8111   19.0687 N.ar    1  UNL1       -0.2223
     25 C         -17.1397   -2.2683   19.1421 C.ar    1  UNL1        0.2001
     26 N         -16.4321   -3.2538   18.2599 N.ar    1  UNL1       -0.2089
     27 C         -11.5083   -3.3291   16.0775 C.3     1  UNL1        0.1595
     28 C         -11.3008   -2.1396   16.9673 C.3     1  UNL1        0.1688
     29 O         -11.1516   -2.3274   18.4480 O.3     1  UNL1       -0.3435
     30 C         -12.3183   -2.0778   19.3571 C.3     1  UNL1        0.2459
     31 C         -12.9639   -3.2224   20.0802 C.3     1  UNL1        0.4248
     32 F         -13.6096   -4.3670   20.8034 F       1  UNL1       -0.1674
     33 F         -14.1295   -2.3449   20.4286 F       1  UNL1       -0.1674
     34 F         -11.7983   -4.1000   19.7319 F       1  UNL1       -0.1674
@<TRIPOS>BOND
     1     1     2    1
     2     2     3   ar
     3     3     4   ar
     4     4    27    1
     5    27    28    1
     6    28    29    1
     7    29    30    1
     8    30    31    1
     9    31    32    1
    10    31    33    1
    11    31    34    1
    12     4     5   ar
    13     5     6   ar
    14     6    19    1
    15    19    21    1
    16    21    22   ar
    17    22    23   ar
    18    23    24   ar
    19    24    25   ar
    20    25    26   ar
    21     6     7   ar
    22     7     8   ar
    23     8    11    1
    24    11    12    1
    25    12    13    1
    26    13    14    1
    27    14    15    1
    28    15    16    1
    29    15    17    1
    30     8     9   ar
    31     9    10   ar
    32    10     2   ar
    33    10     5   ar
    34    26    21   ar
    35    17    11    1
    36    19    20    1
    37    14    18    1
@<TRIPOS>MOLECULE
*****
 34 37 0 0 0
SMALL
GASTEIGER

@<TRIPOS>ATOM
      1 C           8.6860   -7.6624   24.6585 C.3     1  UNL1        0.0556
      2 C           7.9975   -6.3567   24.3924 C.ar    1  UNL1        0.0981
      3 N           7.7382   -5.7556   23.0427 N.ar    1  UNL1       -0.1719
      4 N           7.0278   -4.4501   23.2454 N.ar    1  UNL1       -0.2444
      5 C           6.8481   -4.2444   24.7204 C.ar    1  UNL1        0.1284
      6 C           6.2162   -3.1363   25.5096 C.ar    1  UNL1        0.1550
      7 N           6.1836   -3.2065   27.0076 N.ar    1  UNL1       -0.1970
      8 C           6.7829   -4.3848   27.7164 C.ar    1  UNL1        0.2215
      9 N           7.4148   -5.4929   26.9272 N.ar    1  UNL1       -0.2108
     10 C           7.4474   -5.4227   25.4292 C.ar    1  UNL1        0.1193
     11 N           6.7503   -4.4550   29.2144 N.pl3   1  UNL1       -0.2754
     12 C           7.0942   -5.7372   29.9128 C.3     1  UNL1        0.1107
     13 C           7.0616   -5.8075   31.4107 C.3     1  UNL1        0.0904
     14 N           6.6851   -4.5955   32.2104 N.3     1  UNL1       -0.2957
     15 C           6.3412   -3.3133   31.5121 C.3     1  UNL1        0.0742
     16 C           5.9647   -2.1014   32.3117 C.3     1  UNL1        0.0189
     17 C           6.3738   -3.2431   30.0140 C.3     1  UNL1        0.1093
     18 H           7.4723   -4.3932   32.8267 H       1  UNL1        0.1233
     19 N           5.6169   -1.9580   24.8007 N.pl3   1  UNL1       -0.2820
     20 H           5.6084   -1.9276   23.8167 H       1  UNL1        0.1551
     21 C           5.0305   -0.8259   25.5911 C.ar    1  UNL1        0.1366
     22 C           3.5440   -0.7216   25.7623 C.ar    1  UNL1        0.0551
     23 C           2.9577    0.4104   26.5527 C.ar    1  UNL1        0.1036
     24 N           3.8579    1.4381   27.1719 N.ar    1  UNL1       -0.2223
     25 C           5.3445    1.3338   27.0008 C.ar    1  UNL1        0.2001
     26 N           5.9308    0.2018   26.2104 N.ar    1  UNL1       -0.2089
     27 C           6.5764   -3.5147   22.1633 C.3     1  UNL1        0.1595
     28 C           6.5182   -3.9861   20.7405 C.3     1  UNL1        0.1688
     29 O           6.2852   -3.0016   19.6331 O.3     1  UNL1       -0.3435
     30 C           5.0332   -3.0802   18.8107 C.3     1  UNL1        0.2459
     31 C           3.9914   -4.1118   19.1274 C.3     1  UNL1        0.4248
     32 F           2.9495   -5.1433   19.4442 F       1  UNL1       -0.1674
     33 F           3.2775   -3.1228   20.0005 F       1  UNL1       -0.1674
     34 F           4.7052   -5.1008   18.2544 F       1  UNL1       -0.1674
@<TRIPOS>BOND
     1     1     2    1
     2     2     3   ar
     3     3     4   ar
     4     4    27    1
     5    27    28    1
     6    28    29    1
     7    29    30    1
     8    30    31    1
     9    31    32    1
    10    31    33    1
    11    31    34    1
    12     4     5   ar
    13     5     6   ar
    14     6    19    1
    15    19    21    1
    16    21    22   ar
    17    22    23   ar
    18    23    24   ar
    19    24    25   ar
    20    25    26   ar
    21     6     7   ar
    22     7     8   ar
    23     8    11    1
    24    11    12    1
    25    12    13    1
    26    13    14    1
    27    14    15    1
    28    15    16    1
    29    15    17    1
    30     8     9   ar
    31     9    10   ar
    32    10     2   ar
    33    10     5   ar
    34    26    21   ar
    35    17    11    1
    36    19    20    1
    37    14    18    1
@<TRIPOS>MOLECULE
*****
 34 37 0 0 0
SMALL
GASTEIGER

@<TRIPOS>ATOM
      1 C         -11.4338   -1.1584   18.2669 C.3     1  UNL1        0.0556
      2 C         -12.2222   -2.3452   17.7980 C.ar    1  UNL1        0.0981
      3 N         -11.6913   -3.4942   16.9929 N.ar    1  UNL1       -0.1719
      4 N         -12.8209   -4.4505   16.7493 N.ar    1  UNL1       -0.2444
      5 C         -14.0499   -3.8926   17.4038 C.ar    1  UNL1        0.1284
      6 C         -15.4582   -4.4013   17.4933 C.ar    1  UNL1        0.1550
      7 N         -16.4964   -3.6088   18.2310 N.ar    1  UNL1       -0.1970
      8 C         -16.1263   -2.3077   18.8791 C.ar    1  UNL1        0.2215
      9 N         -14.7181   -1.7991   18.7896 N.ar    1  UNL1       -0.2108
     10 C         -13.6799   -2.5915   18.0520 C.ar    1  UNL1        0.1193
     11 N         -17.1646   -1.5153   19.6168 N.pl3   1  UNL1       -0.2754
     12 C         -18.5426   -2.0768   19.8057 C.3     1  UNL1        0.1107
     13 C         -19.5808   -1.2844   20.5434 C.3     1  UNL1        0.0904
     14 N         -19.2410    0.0696   21.0922 N.3     1  UNL1       -0.2957
     15 C         -17.8630    0.6312   20.9033 C.3     1  UNL1        0.0742
     16 C         -17.5231    1.9852   21.4520 C.3     1  UNL1        0.0189
     17 C         -16.8247   -0.1613   20.1656 C.3     1  UNL1        0.1093
     18 H         -19.4075    0.0301   22.0977 H       1  UNL1        0.1233
     19 N         -15.8283   -5.7024   16.8451 N.pl3   1  UNL1       -0.2820
     20 H         -16.0916   -5.7226   15.8967 H       1  UNL1        0.1551
     21 C         -15.7970   -6.9729   17.6420 C.ar    1  UNL1        0.1366
     22 C         -16.4236   -7.0195   19.0040 C.ar    1  UNL1        0.0551
     23 C         -16.3923   -8.2899   19.8009 C.ar    1  UNL1        0.1036
     24 N         -15.7346   -9.5138   19.2357 N.ar    1  UNL1       -0.2223
     25 C         -15.1080   -9.4672   17.8736 C.ar    1  UNL1        0.2001
     26 N         -15.1392   -8.1968   17.0767 N.ar    1  UNL1       -0.2089
     27 C         -12.7364   -5.7386   15.9853 C.3     1  UNL1        0.1595
     28 C         -11.4933   -6.5746   16.0598 C.3     1  UNL1        0.1688
     29 O         -11.4029   -7.6976   17.0500 O.3     1  UNL1       -0.3435
     30 C         -11.2316   -7.3984   18.5099 C.3     1  UNL1        0.2459
     31 C         -10.2606   -6.3434   18.9504 C.3     1  UNL1        0.4248
     32 F          -9.2896   -5.2884   19.3908 F       1  UNL1       -0.1674
     33 F          -9.1200   -7.1983   18.4835 F       1  UNL1       -0.1674
     34 F         -11.4013   -5.4885   19.4172 F       1  UNL1       -0.1674
@<TRIPOS>BOND
     1     1     2    1
     2     2     3   ar
     3     3     4   ar
     4     4    27    1
     5    27    28    1
     6    28    29    1
     7    29    30    1
     8    30    31    1
     9    31    32    1
    10    31    33    1
    11    31    34    1
    12     4     5   ar
    13     5     6   ar
    14     6    19    1
    15    19    21    1
    16    21    22   ar
    17    22    23   ar
    18    23    24   ar
    19    24    25   ar
    20    25    26   ar
    21     6     7   ar
    22     7     8   ar
    23     8    11    1
    24    11    12    1
    25    12    13    1
    26    13    14    1
    27    14    15    1
    28    15    16    1
    29    15    17    1
    30     8     9   ar
    31     9    10   ar
    32    10     2   ar
    33    10     5   ar
    34    26    21   ar
    35    17    11    1
    36    19    20    1
    37    14    18    1
@<TRIPOS>MOLECULE
*****
 34 37 0 0 0
SMALL
GASTEIGER

@<TRIPOS>ATOM
      1 C          -9.6257   -7.8005   18.6059 C.3     1  UNL1        0.0556
      2 C         -10.3618   -6.4941   18.6421 C.ar    1  UNL1        0.0981
      3 N          -9.7412   -5.1302   18.5728 N.ar    1  UNL1       -0.1719
      4 N         -10.8436   -4.1153   18.6418 N.ar    1  UNL1       -0.2444
      5 C         -12.1455   -4.8520   18.7539 C.ar    1  UNL1        0.1284
      6 C         -13.5636   -4.3740   18.8558 C.ar    1  UNL1        0.1550
      7 N         -14.6840   -5.3661   18.9579 N.ar    1  UNL1       -0.1970
      8 C         -14.3862   -6.8362   18.9581 C.ar    1  UNL1        0.2215
      9 N         -12.9681   -7.3142   18.8562 N.ar    1  UNL1       -0.2108
     10 C         -11.8477   -6.3221   18.7541 C.ar    1  UNL1        0.1193
     11 N         -15.5066   -7.8285   19.0602 N.pl3   1  UNL1       -0.2754
     12 C         -15.3369   -9.2111   18.5040 C.3     1  UNL1        0.1107
     13 C         -16.4572  -10.2033   18.6060 C.3     1  UNL1        0.0904
     14 N         -17.7473   -9.8128   19.2643 N.3     1  UNL1       -0.2957
     15 C         -17.9170   -8.4301   19.8205 C.3     1  UNL1        0.0742
     16 C         -19.2070   -8.0396   20.4788 C.3     1  UNL1        0.0189
     17 C         -16.7966   -7.4379   19.7184 C.3     1  UNL1        0.1093
     18 H         -17.8909  -10.4613   20.0384 H       1  UNL1        0.1233
     19 N         -13.8614   -2.9038   18.8557 N.pl3   1  UNL1       -0.2820
     20 H         -13.1413   -2.2557   19.0308 H       1  UNL1        0.1551
     21 C         -15.2563   -2.4212   18.5886 C.ar    1  UNL1        0.1366
     22 C         -15.7641   -2.3376   17.1797 C.ar    1  UNL1        0.0551
     23 C         -17.1590   -1.8549   16.9126 C.ar    1  UNL1        0.1036
     24 N         -18.0460   -1.4558   18.0545 N.ar    1  UNL1       -0.2223
     25 C         -17.5382   -1.5393   19.4635 C.ar    1  UNL1        0.2001
     26 N         -16.1433   -2.0220   19.7305 N.ar    1  UNL1       -0.2089
     27 C         -10.6739   -2.6254   18.6053 C.3     1  UNL1        0.1595
     28 C         -10.8059   -1.8872   17.3062 C.3     1  UNL1        0.1688
     29 O         -12.1518   -1.4078   16.8493 O.3     1  UNL1       -0.3435
     30 C         -12.4727    0.0573   16.8696 C.3     1  UNL1        0.2459
     31 C         -13.4874    0.5895   17.8378 C.3     1  UNL1        0.4248
     32 F         -14.5019    1.1216   18.8060 F       1  UNL1       -0.1674
     33 F         -12.5901    0.2196   18.9814 F       1  UNL1       -0.1674
     34 F         -14.3847    0.9593   16.6941 F       1  UNL1       -0.1674
@<TRIPOS>BOND
     1     1     2    1
     2     2     3   ar
     3     3     4   ar
     4     4    27    1
     5    27    28    1
     6    28    29    1
     7    29    30    1
     8    30    31    1
     9    31    32    1
    10    31    33    1
    11    31    34    1
    12     4     5   ar
    13     5     6   ar
    14     6    19    1
    15    19    21    1
    16    21    22   ar
    17    22    23   ar
    18    23    24   ar
    19    24    25   ar
    20    25    26   ar
    21     6     7   ar
    22     7     8   ar
    23     8    11    1
    24    11    12    1
    25    12    13    1
    26    13    14    1
    27    14    15    1
    28    15    16    1
    29    15    17    1
    30     8     9   ar
    31     9    10   ar
    32    10     2   ar
    33    10     5   ar
    34    26    21   ar
    35    17    11    1
    36    19    20    1
    37    14    18    1
@<TRIPOS>MOLECULE
*****
 34 37 0 0 0
SMALL
GASTEIGER

@<TRIPOS>ATOM
      1 C         -10.6215   -0.5462   17.1142 C.3     1  UNL1        0.0556
      2 C         -11.5010   -1.4531   17.9229 C.ar    1  UNL1        0.0981
      3 N         -11.1782   -2.8597   18.3320 N.ar    1  UNL1       -0.1719
      4 N         -12.3354   -3.3886   19.1264 N.ar    1  UNL1       -0.2444
      5 C         -13.3734   -2.3088   19.2083 C.ar    1  UNL1        0.1284
      6 C         -14.7216   -2.2603   19.8641 C.ar    1  UNL1        0.1550
      7 N         -15.5540   -1.0156   19.7762 N.ar    1  UNL1       -0.1970
      8 C         -15.0383    0.1805   19.0324 C.ar    1  UNL1        0.2215
      9 N         -13.6902    0.1320   18.3766 N.ar    1  UNL1       -0.2108
     10 C         -12.8577   -1.1126   18.4645 C.ar    1  UNL1        0.1193
     11 N         -15.8708    1.4253   18.9444 N.pl3   1  UNL1       -0.2754
     12 C         -15.2205    2.7426   18.6416 C.3     1  UNL1        0.1107
     13 C         -16.0528    3.9873   18.5536 C.3     1  UNL1        0.0904
     14 N         -17.5357    3.9147   18.7684 N.3     1  UNL1       -0.2957
     15 C         -18.1860    2.5974   19.0712 C.3     1  UNL1        0.0742
     16 C         -19.6687    2.5248   19.2860 C.3     1  UNL1        0.0189
     17 C         -17.3535    1.3527   19.1592 C.3     1  UNL1        0.1093
     18 H         -17.9740    4.2712   17.9192 H       1  UNL1        0.1233
     19 N         -15.2373   -3.4565   20.6079 N.pl3   1  UNL1       -0.2820
     20 H         -14.8003   -3.7435   21.4422 H       1  UNL1        0.1551
     21 C         -16.4188   -4.2154   20.0807 C.ar    1  UNL1        0.1366
     22 C         -16.2290   -5.5780   19.4829 C.ar    1  UNL1        0.0551
     23 C         -17.4105   -6.3369   18.9556 C.ar    1  UNL1        0.1036
     24 N         -18.7819   -5.7333   19.0262 N.ar    1  UNL1       -0.2223
     25 C         -18.9717   -4.3707   19.6240 C.ar    1  UNL1        0.2001
     26 N         -17.7902   -3.6118   20.1513 N.ar    1  UNL1       -0.2089
     27 C         -12.4368   -4.7569   19.7325 C.3     1  UNL1        0.1595
     28 C         -12.6163   -5.9566   18.8501 C.3     1  UNL1        0.1688
     29 O         -11.9723   -5.9948   17.4960 O.3     1  UNL1       -0.3435
     30 C         -10.4876   -6.1718   17.3762 C.3     1  UNL1        0.2459
     31 C          -9.7527   -7.0303   18.3625 C.3     1  UNL1        0.4248
     32 F          -9.0178   -7.8888   19.3488 F       1  UNL1       -0.1674
     33 F          -9.3108   -5.8025   19.1021 F       1  UNL1       -0.1674
     34 F         -10.1947   -8.2582   17.6229 F       1  UNL1       -0.1674
@<TRIPOS>BOND
     1     1     2    1
     2     2     3   ar
     3     3     4   ar
     4     4    27    1
     5    27    28    1
     6    28    29    1
     7    29    30    1
     8    30    31    1
     9    31    32    1
    10    31    33    1
    11    31    34    1
    12     4     5   ar
    13     5     6   ar
    14     6    19    1
    15    19    21    1
    16    21    22   ar
    17    22    23   ar
    18    23    24   ar
    19    24    25   ar
    20    25    26   ar
    21     6     7   ar
    22     7     8   ar
    23     8    11    1
    24    11    12    1
    25    12    13    1
    26    13    14    1
    27    14    15    1
    28    15    16    1
    29    15    17    1
    30     8     9   ar
    31     9    10   ar
    32    10     2   ar
    33    10     5   ar
    34    26    21   ar
    35    17    11    1
    36    19    20    1
    37    14    18    1
