@<TRIPOS>MOLECULE
*****
 27 30 0 0 0
SMALL
GASTEIGER

@<TRIPOS>ATOM
      1 C          -4.3113  -19.2641   20.8630 C.2     1  UNL1        0.1563
      2 C          -5.1085  -18.8080   22.0489 C.2     1  UNL1        0.0269
      3 C          -6.5625  -18.8910   21.6899 C.2     1  UNL1        0.0153
      4 C          -7.8072  -18.5701   22.4631 C.2     1  UNL1       -0.0033
      5 C          -9.1533  -18.7567   21.8283 C.2     1  UNL1       -0.0250
      6 C          -9.2549  -19.2642   20.4204 C.2     1  UNL1       -0.0240
      7 C          -8.0102  -19.5851   19.6473 C.3     1  UNL1        0.0714
      8 C          -6.6640  -19.3985   20.2820 C.2     1  UNL1        0.0636
      9 N          -5.2727  -19.6291   19.7709 N.2     1  UNL1       -0.2428
     10 C         -10.3981  -18.4358   22.6015 C.3     1  UNL1        0.0385
     11 C         -11.4633  -18.1746   23.6248 C.3     1  UNL1        0.0228
     12 C         -12.7200  -17.7950   22.8991 C.3     1  UNL1        0.0689
     13 N         -12.4315  -17.8217   21.4274 N.3     1  UNL1       -0.2972
     14 C         -10.9965  -18.2177   21.2434 C.3     1  UNL1        0.0729
     15 H         -12.5895  -16.8970   21.0269 H       1  UNL1        0.1233
     16 C          -9.5395  -18.7211   23.7979 C.3     1  UNL1        0.0317
     17 C          -9.1907  -17.6167   24.7511 C.ar    1  UNL1       -0.0218
     18 C          -8.9354  -16.2320   24.2338 C.ar    1  UNL1       -0.0043
     19 C          -8.5866  -15.1276   25.1870 C.ar    1  UNL1       -0.0003
     20 C          -8.4932  -15.4078   26.6576 C.ar    1  UNL1       -0.0000
     21 C          -8.7485  -16.7924   27.1750 C.ar    1  UNL1       -0.0003
     22 C          -9.0972  -17.8969   26.2218 C.ar    1  UNL1       -0.0043
     23 C          -2.8155  -19.3416   20.7830 C.2     1  UNL1        0.3591
     24 O          -2.0739  -20.3704   21.5840 O.2     1  UNL1       -0.2432
     25 O          -2.0612  -18.3904   19.9021 O.3     1  UNL1       -0.4444
     26 C          -2.0462  -16.3988   21.5705 C.3     1  UNL1        0.0513
     27 C          -1.3678  -17.2028   20.5011 C.3     1  UNL1        0.2089
@<TRIPOS>BOND
     1    26    27    1
     2    27    25    1
     3    25    23    1
     4    23    24    2
     5    23     1    1
     6     1     2    2
     7     2     3    1
     8     3     4    2
     9     4     5    1
    10     5    10    1
    11    10    16    1
    12    16    17    1
    13    17    18   ar
    14    18    19   ar
    15    19    20   ar
    16    20    21   ar
    17    21    22   ar
    18    10    11    1
    19    11    12    1
    20    12    13    1
    21    13    14    1
    22     5     6    2
    23     6     7    1
    24     7     8    1
    25     8     9    2
    26     9     1    1
    27     8     3    1
    28    14    10    1
    29    22    17   ar
    30    13    15    1
@<TRIPOS>MOLECULE
*****
 27 30 0 0 0
SMALL
GASTEIGER

@<TRIPOS>ATOM
      1 C          -5.0552  -19.3066   21.3008 C.2     1  UNL1        0.1563
      2 C          -6.0668  -18.3528   21.8638 C.2     1  UNL1        0.0269
      3 C          -7.3625  -18.5708   21.1402 C.2     1  UNL1        0.0153
      4 C          -8.7071  -17.9188   21.2707 C.2     1  UNL1       -0.0033
      5 C          -9.8408  -18.3554   20.3909 C.2     1  UNL1       -0.0250
      6 C          -9.6300  -19.4439   19.3807 C.2     1  UNL1       -0.0240
      7 C          -8.2855  -20.0960   19.2502 C.3     1  UNL1        0.0714
      8 C          -7.1518  -19.6594   20.1300 C.2     1  UNL1        0.0636
      9 N          -5.7258  -20.1141   20.2293 N.2     1  UNL1       -0.2428
     10 C         -11.1854  -17.7033   20.5214 C.3     1  UNL1        0.0385
     11 C         -12.6042  -17.3116   20.8103 C.3     1  UNL1        0.0228
     12 C         -12.8448  -15.9610   20.2038 C.3     1  UNL1        0.0689
     13 N         -11.5747  -15.5179   19.5400 N.3     1  UNL1       -0.2972
     14 C         -10.5491  -16.5948   19.7363 C.3     1  UNL1        0.0729
     15 H         -11.2488  -14.6484   19.9620 H       1  UNL1        0.1233
     16 C         -11.5406  -18.9482   21.2792 C.3     1  UNL1        0.0317
     17 C         -11.0052  -19.1616   22.6640 C.ar    1  UNL1       -0.0218
     18 C         -11.1638  -18.0911   23.7028 C.ar    1  UNL1       -0.0043
     19 C         -10.6284  -18.3046   25.0876 C.ar    1  UNL1       -0.0003
     20 C          -9.9343  -19.5885   25.4337 C.ar    1  UNL1       -0.0000
     21 C          -9.7756  -20.6590   24.3950 C.ar    1  UNL1       -0.0003
     22 C         -10.3111  -20.4455   23.0101 C.ar    1  UNL1       -0.0043
     23 C          -3.6244  -19.4310   21.7334 C.2     1  UNL1        0.3591
     24 O          -2.7263  -20.4356   21.0746 O.2     1  UNL1       -0.2432
     25 O          -3.0916  -18.5508   22.8249 O.3     1  UNL1       -0.4444
     26 C          -1.9885  -16.7784   21.2783 C.3     1  UNL1        0.0513
     27 C          -2.7376  -17.1230   22.5314 C.3     1  UNL1        0.2089
@<TRIPOS>BOND
     1    26    27    1
     2    27    25    1
     3    25    23    1
     4    23    24    2
     5    23     1    1
     6     1     2    2
     7     2     3    1
     8     3     4    2
     9     4     5    1
    10     5    10    1
    11    10    16    1
    12    16    17    1
    13    17    18   ar
    14    18    19   ar
    15    19    20   ar
    16    20    21   ar
    17    21    22   ar
    18    10    11    1
    19    11    12    1
    20    12    13    1
    21    13    14    1
    22     5     6    2
    23     6     7    1
    24     7     8    1
    25     8     9    2
    26     9     1    1
    27     8     3    1
    28    14    10    1
    29    22    17   ar
    30    13    15    1
@<TRIPOS>MOLECULE
*****
 27 30 0 0 0
SMALL
GASTEIGER

@<TRIPOS>ATOM
      1 C          -4.0216  -19.3149   21.2614 C.2     1  UNL1        0.1563
      2 C          -4.9050  -19.0326   22.4404 C.2     1  UNL1        0.0269
      3 C          -6.3269  -19.2562   22.0183 C.2     1  UNL1        0.0153
      4 C          -7.6252  -19.1313   22.7591 C.2     1  UNL1       -0.0033
      5 C          -8.9189  -19.4269   22.0600 C.2     1  UNL1       -0.0250
      6 C          -8.9144  -19.8475   20.6202 C.2     1  UNL1       -0.0240
      7 C          -7.6161  -19.9724   19.8794 C.3     1  UNL1        0.0714
      8 C          -6.3224  -19.6768   20.5785 C.2     1  UNL1        0.0636
      9 N          -4.8976  -19.7130   20.1107 N.2     1  UNL1       -0.2428
     10 C         -10.2173  -19.3020   22.8008 C.3     1  UNL1        0.0385
     11 C         -11.6312  -19.1015   23.2599 C.3     1  UNL1        0.0228
     12 C         -11.6810  -19.3650   24.7357 C.3     1  UNL1        0.0689
     13 N         -10.2980  -19.7283   25.1888 N.3     1  UNL1       -0.2972
     14 C          -9.3934  -19.6894   23.9929 C.3     1  UNL1        0.0729
     15 H         -10.3005  -20.6658   25.5905 H       1  UNL1        0.1233
     16 C         -10.7698  -18.9407   21.4539 C.3     1  UNL1        0.0317
     17 C         -10.6536  -17.5332   20.9485 C.ar    1  UNL1       -0.0218
     18 C          -9.7670  -16.5526   21.6573 C.ar    1  UNL1       -0.0043
     19 C          -9.6508  -15.1451   21.1520 C.ar    1  UNL1       -0.0003
     20 C         -10.4213  -14.7181   19.9379 C.ar    1  UNL1       -0.0000
     21 C         -11.3079  -15.6986   19.2291 C.ar    1  UNL1       -0.0003
     22 C         -11.4241  -17.1062   19.7344 C.ar    1  UNL1       -0.0043
     23 C          -2.5250  -19.2163   21.2373 C.2     1  UNL1        0.3591
     24 O          -1.6911  -20.4630   21.2475 O.2     1  UNL1       -0.2432
     25 O          -1.8624  -17.8711   21.2031 O.3     1  UNL1       -0.4444
     26 C          -1.8139  -17.8367   18.6056 C.3     1  UNL1        0.0513
     27 C          -1.7848  -17.1058   19.9153 C.3     1  UNL1        0.2089
@<TRIPOS>BOND
     1    26    27    1
     2    27    25    1
     3    25    23    1
     4    23    24    2
     5    23     1    1
     6     1     2    2
     7     2     3    1
     8     3     4    2
     9     4     5    1
    10     5    10    1
    11    10    16    1
    12    16    17    1
    13    17    18   ar
    14    18    19   ar
    15    19    20   ar
    16    20    21   ar
    17    21    22   ar
    18    10    11    1
    19    11    12    1
    20    12    13    1
    21    13    14    1
    22     5     6    2
    23     6     7    1
    24     7     8    1
    25     8     9    2
    26     9     1    1
    27     8     3    1
    28    14    10    1
    29    22    17   ar
    30    13    15    1
@<TRIPOS>MOLECULE
*****
 27 30 0 0 0
SMALL
GASTEIGER

@<TRIPOS>ATOM
      1 C           2.7092   -0.1654   31.2583 C.2     1  UNL1        0.1563
      2 C           2.8006    1.0651   32.1113 C.2     1  UNL1        0.0269
      3 C           3.5706    0.7144   33.3499 C.2     1  UNL1        0.0153
      4 C           3.9713    1.5258   34.5461 C.2     1  UNL1       -0.0033
      5 C           4.7565    0.8901   35.6547 C.2     1  UNL1       -0.0250
      6 C           5.1410   -0.5572   35.5672 C.2     1  UNL1       -0.0240
      7 C           4.7404   -1.3686   34.3710 C.3     1  UNL1        0.0714
      8 C           3.9552   -0.7329   33.2624 C.2     1  UNL1        0.0636
      9 N           3.4228   -1.2766   31.9697 N.2     1  UNL1       -0.2428
     10 C           5.1572    1.7016   36.8510 C.3     1  UNL1        0.0385
     11 C           5.3627    2.3218   38.2012 C.3     1  UNL1        0.0228
     12 C           6.3396    3.4499   38.0492 C.3     1  UNL1        0.0689
     13 N           6.7379    3.5268   36.6052 N.3     1  UNL1       -0.2972
     14 C           6.0071    2.4463   35.8646 C.3     1  UNL1        0.0729
     15 H           7.7444    3.3879   36.5158 H       1  UNL1        0.1233
     16 C           4.2236    0.7872   37.5873 C.3     1  UNL1        0.0317
     17 C           2.9253    1.3140   38.1231 C.ar    1  UNL1       -0.0218
     18 C           2.1367    0.5036   39.1088 C.ar    1  UNL1       -0.0043
     19 C           0.8385    1.0304   39.6446 C.ar    1  UNL1       -0.0003
     20 C           0.3288    2.3676   39.1947 C.ar    1  UNL1       -0.0000
     21 C           1.1174    3.1779   38.2091 C.ar    1  UNL1       -0.0003
     22 C           2.4157    2.6511   37.6733 C.ar    1  UNL1       -0.0043
     23 C           2.0245   -0.2668   29.9275 C.2     1  UNL1        0.3591
     24 O           2.6978   -0.9754   28.7897 O.2     1  UNL1       -0.2432
     25 O           0.6666    0.3403   29.7346 O.3     1  UNL1       -0.4444
     26 C          -1.7817   -0.1995   29.0528 C.3     1  UNL1        0.0513
     27 C          -0.3086   -0.2897   28.7847 C.3     1  UNL1        0.2089
@<TRIPOS>BOND
     1    26    27    1
     2    27    25    1
     3    25    23    1
     4    23    24    2
     5    23     1    1
     6     1     2    2
     7     2     3    1
     8     3     4    2
     9     4     5    1
    10     5    10    1
    11    10    16    1
    12    16    17    1
    13    17    18   ar
    14    18    19   ar
    15    19    20   ar
    16    20    21   ar
    17    21    22   ar
    18    10    11    1
    19    11    12    1
    20    12    13    1
    21    13    14    1
    22     5     6    2
    23     6     7    1
    24     7     8    1
    25     8     9    2
    26     9     1    1
    27     8     3    1
    28    14    10    1
    29    22    17   ar
    30    13    15    1
@<TRIPOS>MOLECULE
*****
 27 30 0 0 0
SMALL
GASTEIGER

@<TRIPOS>ATOM
      1 C         -10.8946  -17.6388   21.0549 C.2     1  UNL1        0.1563
      2 C          -9.8561  -17.0297   21.9496 C.2     1  UNL1        0.0269
      3 C          -8.5677  -17.7668   21.7333 C.2     1  UNL1        0.0153
      4 C          -7.2053  -17.6060   22.3399 C.2     1  UNL1       -0.0033
      5 C          -6.0852  -18.5101   21.9181 C.2     1  UNL1       -0.0250
      6 C          -6.3274  -19.5749   20.8897 C.2     1  UNL1       -0.0240
      7 C          -7.6898  -19.7356   20.2831 C.3     1  UNL1        0.0714
      8 C          -8.8100  -18.8316   20.7049 C.2     1  UNL1        0.0636
      9 N         -10.2480  -18.7525   20.2857 N.2     1  UNL1       -0.2428
     10 C          -4.7227  -18.3493   22.5247 C.3     1  UNL1        0.0385
     11 C          -3.2682  -18.3675   22.8906 C.3     1  UNL1        0.0228
     12 C          -3.0946  -17.5568   24.1406 C.3     1  UNL1        0.0689
     13 N          -4.4418  -17.0375   24.5473 N.3     1  UNL1       -0.2972
     14 C          -5.4481  -17.5274   23.5485 C.3     1  UNL1        0.0729
     15 H          -4.4314  -16.0176   24.5564 H       1  UNL1        0.1233
     16 C          -4.2822  -19.2048   21.3740 C.3     1  UNL1        0.0317
     17 C          -3.1892  -18.7310   20.4625 C.ar    1  UNL1       -0.0218
     18 C          -1.7561  -19.0253   20.7936 C.ar    1  UNL1       -0.0043
     19 C          -0.6631  -18.5515   19.8821 C.ar    1  UNL1       -0.0003
     20 C          -1.0032  -17.7833   18.6394 C.ar    1  UNL1       -0.0000
     21 C          -2.4363  -17.4890   18.3082 C.ar    1  UNL1       -0.0003
     22 C          -3.5293  -17.9629   19.2198 C.ar    1  UNL1       -0.0043
     23 C         -12.3279  -17.2097   20.9482 C.2     1  UNL1        0.3591
     24 O         -12.7346  -16.2039   19.9124 O.2     1  UNL1       -0.2432
     25 O         -13.3546  -17.7864   21.8774 O.3     1  UNL1       -0.4444
     26 C         -14.1277  -18.1186   24.3354 C.3     1  UNL1        0.0513
     27 C         -13.0251  -17.9887   23.3267 C.3     1  UNL1        0.2089
@<TRIPOS>BOND
     1    26    27    1
     2    27    25    1
     3    25    23    1
     4    23    24    2
     5    23     1    1
     6     1     2    2
     7     2     3    1
     8     3     4    2
     9     4     5    1
    10     5    10    1
    11    10    16    1
    12    16    17    1
    13    17    18   ar
    14    18    19   ar
    15    19    20   ar
    16    20    21   ar
    17    21    22   ar
    18    10    11    1
    19    11    12    1
    20    12    13    1
    21    13    14    1
    22     5     6    2
    23     6     7    1
    24     7     8    1
    25     8     9    2
    26     9     1    1
    27     8     3    1
    28    14    10    1
    29    22    17   ar
    30    13    15    1
@<TRIPOS>MOLECULE
*****
 27 30 0 0 0
SMALL
GASTEIGER

@<TRIPOS>ATOM
      1 C          -3.1802  -18.8992   21.5448 C.2     1  UNL1        0.1563
      2 C          -3.4489  -17.9436   22.6693 C.2     1  UNL1        0.0269
      3 C          -4.9343  -17.7701   22.7853 C.2     1  UNL1        0.0153
      4 C          -5.7795  -16.9492   23.7136 C.2     1  UNL1       -0.0033
      5 C          -7.2740  -16.9766   23.5890 C.2     1  UNL1       -0.0250
      6 C          -7.9234  -17.8250   22.5361 C.2     1  UNL1       -0.0240
      7 C          -7.0782  -18.6459   21.6078 C.3     1  UNL1        0.0714
      8 C          -5.5837  -18.6184   21.7324 C.2     1  UNL1        0.0636
      9 N          -4.4996  -19.3163   20.9657 N.2     1  UNL1       -0.2428
     10 C          -8.1192  -16.1557   24.5173 C.3     1  UNL1        0.0385
     11 C          -9.1629  -15.3247   25.2029 C.3     1  UNL1        0.0228
     12 C          -8.6820  -15.0310   26.5930 C.3     1  UNL1        0.0689
     13 N          -7.3411  -15.6805   26.7666 N.3     1  UNL1       -0.2972
     14 C          -6.9933  -16.3756   25.4836 C.3     1  UNL1        0.0729
     15 H          -7.3807  -16.3582   27.5278 H       1  UNL1        0.1233
     16 C          -9.0685  -16.1074   23.3568 C.3     1  UNL1        0.0317
     17 C         -10.4111  -16.7686   23.4582 C.ar    1  UNL1       -0.0218
     18 C         -11.5815  -16.2089   22.7051 C.ar    1  UNL1       -0.0043
     19 C         -12.9241  -16.8701   22.8064 C.ar    1  UNL1       -0.0003
     20 C         -13.0963  -18.0910   23.6608 C.ar    1  UNL1       -0.0000
     21 C         -11.9259  -18.6507   24.4138 C.ar    1  UNL1       -0.0003
     22 C         -10.5833  -17.9895   24.3125 C.ar    1  UNL1       -0.0043
     23 C          -1.8293  -19.3573   21.0808 C.2     1  UNL1        0.3591
     24 O          -1.5565  -20.8206   20.8953 O.2     1  UNL1       -0.2432
     25 O          -0.7514  -18.3522   20.8022 O.3     1  UNL1       -0.4444
     26 C          -1.7941  -17.7034   18.5127 C.3     1  UNL1        0.0513
     27 C          -0.6075  -17.7680   19.4282 C.3     1  UNL1        0.2089
@<TRIPOS>BOND
     1    26    27    1
     2    27    25    1
     3    25    23    1
     4    23    24    2
     5    23     1    1
     6     1     2    2
     7     2     3    1
     8     3     4    2
     9     4     5    1
    10     5    10    1
    11    10    16    1
    12    16    17    1
    13    17    18   ar
    14    18    19   ar
    15    19    20   ar
    16    20    21   ar
    17    21    22   ar
    18    10    11    1
    19    11    12    1
    20    12    13    1
    21    13    14    1
    22     5     6    2
    23     6     7    1
    24     7     8    1
    25     8     9    2
    26     9     1    1
    27     8     3    1
    28    14    10    1
    29    22    17   ar
    30    13    15    1
@<TRIPOS>MOLECULE
*****
 27 30 0 0 0
SMALL
GASTEIGER

@<TRIPOS>ATOM
      1 C           5.9476   -3.6577   23.4047 C.2     1  UNL1        0.1563
      2 C           5.1800   -2.3691   23.4205 C.2     1  UNL1        0.0269
      3 C           4.4174   -2.2679   22.1328 C.2     1  UNL1        0.0153
      4 C           3.4915   -1.2178   21.5945 C.2     1  UNL1       -0.0033
      5 C           2.8618   -1.3937   20.2445 C.2     1  UNL1       -0.0250
      6 C           3.1581   -2.6199   19.4328 C.2     1  UNL1       -0.0240
      7 C           4.0839   -3.6700   19.9711 C.3     1  UNL1        0.0714
      8 C           4.7136   -3.4941   21.3211 C.2     1  UNL1        0.0636
      9 N           5.6593   -4.3530   22.1072 N.2     1  UNL1       -0.2428
     10 C           1.9359   -0.3435   19.7061 C.3     1  UNL1        0.0385
     11 C           1.1676    0.6616   18.9004 C.3     1  UNL1        0.0228
     12 C           0.1327    1.2785   19.7939 C.3     1  UNL1        0.0689
     13 N           0.2614    0.6547   21.1519 N.3     1  UNL1       -0.2972
     14 C           1.3759   -0.3478   21.0976 C.3     1  UNL1        0.0729
     15 H          -0.6108    0.1894   21.4032 H       1  UNL1        0.1233
     16 C           2.6895   -0.5588   18.4272 C.3     1  UNL1        0.0317
     17 C           3.8720    0.3038   18.0992 C.ar    1  UNL1       -0.0218
     18 C           4.0555    1.6206   18.7938 C.ar    1  UNL1       -0.0043
     19 C           5.2380    2.4832   18.4658 C.ar    1  UNL1       -0.0003
     20 C           6.2371    2.0291   17.4432 C.ar    1  UNL1       -0.0000
     21 C           6.0536    0.7123   16.7486 C.ar    1  UNL1       -0.0003
     22 C           4.8710   -0.1503   17.0766 C.ar    1  UNL1       -0.0043
     23 C           6.8457   -4.1625   24.4949 C.2     1  UNL1        0.3591
     24 O           6.4657   -3.9630   25.9322 O.2     1  UNL1       -0.2432
     25 O           8.1238   -4.8667   24.1479 O.3     1  UNL1       -0.4444
     26 C           7.9213   -7.2407   25.1839 C.3     1  UNL1        0.0513
     27 C           8.1394   -6.3583   23.9906 C.3     1  UNL1        0.2089
@<TRIPOS>BOND
     1    26    27    1
     2    27    25    1
     3    25    23    1
     4    23    24    2
     5    23     1    1
     6     1     2    2
     7     2     3    1
     8     3     4    2
     9     4     5    1
    10     5    10    1
    11    10    16    1
    12    16    17    1
    13    17    18   ar
    14    18    19   ar
    15    19    20   ar
    16    20    21   ar
    17    21    22   ar
    18    10    11    1
    19    11    12    1
    20    12    13    1
    21    13    14    1
    22     5     6    2
    23     6     7    1
    24     7     8    1
    25     8     9    2
    26     9     1    1
    27     8     3    1
    28    14    10    1
    29    22    17   ar
    30    13    15    1
@<TRIPOS>MOLECULE
*****
 27 30 0 0 0
SMALL
GASTEIGER

@<TRIPOS>ATOM
      1 C           0.5091    3.9214   18.1651 C.2     1  UNL1        0.1563
      2 C           0.2273    2.4511   18.2587 C.2     1  UNL1        0.0269
      3 C           1.5317    1.7417   18.4716 C.2     1  UNL1        0.0153
      4 C           1.8693    0.2894   18.6358 C.2     1  UNL1       -0.0033
      5 C           3.2949   -0.1309   18.8379 C.2     1  UNL1       -0.0250
      6 C           4.3829    0.9010   18.8758 C.2     1  UNL1       -0.0240
      7 C           4.0453    2.3532   18.7116 C.3     1  UNL1        0.0714
      8 C           2.6197    2.7735   18.5095 C.2     1  UNL1        0.0636
      9 N           1.9877    4.1207   18.3200 N.2     1  UNL1       -0.2428
     10 C           3.6325   -1.5832   19.0022 C.3     1  UNL1        0.0385
     11 C           3.7508   -3.0272   19.3905 C.3     1  UNL1        0.0228
     12 C           4.8024   -3.6553   18.5246 C.3     1  UNL1        0.0689
     13 N           5.3340   -2.5996   17.6012 N.3     1  UNL1       -0.2972
     14 C           4.6109   -1.3189   17.8964 C.3     1  UNL1        0.0729
     15 H           5.1714   -2.8734   16.6322 H       1  UNL1        0.1233
     16 C           2.5835   -1.5439   20.0736 C.3     1  UNL1        0.0317
     17 C           2.9776   -1.3019   21.5005 C.ar    1  UNL1       -0.0218
     18 C           2.3704   -0.1620   22.2634 C.ar    1  UNL1       -0.0043
     19 C           2.7645    0.0800   23.6903 C.ar    1  UNL1       -0.0003
     20 C           3.7658   -0.8179   24.3544 C.ar    1  UNL1       -0.0000
     21 C           4.3730   -1.9578   23.5917 C.ar    1  UNL1       -0.0003
     22 C           3.9789   -2.1999   22.1647 C.ar    1  UNL1       -0.0043
     23 C          -0.5089    5.0026   17.9535 C.2     1  UNL1        0.3591
     24 O          -0.7168    5.5796   16.5847 O.2     1  UNL1       -0.2432
     25 O          -1.3190    5.5067   19.1109 O.3     1  UNL1       -0.4444
     26 C          -3.0728    3.7415   19.8582 C.3     1  UNL1        0.0513
     27 C          -2.7490    5.0816   19.2671 C.3     1  UNL1        0.2089
@<TRIPOS>BOND
     1    26    27    1
     2    27    25    1
     3    25    23    1
     4    23    24    2
     5    23     1    1
     6     1     2    2
     7     2     3    1
     8     3     4    2
     9     4     5    1
    10     5    10    1
    11    10    16    1
    12    16    17    1
    13    17    18   ar
    14    18    19   ar
    15    19    20   ar
    16    20    21   ar
    17    21    22   ar
    18    10    11    1
    19    11    12    1
    20    12    13    1
    21    13    14    1
    22     5     6    2
    23     6     7    1
    24     7     8    1
    25     8     9    2
    26     9     1    1
    27     8     3    1
    28    14    10    1
    29    22    17   ar
    30    13    15    1
@<TRIPOS>MOLECULE
*****
 27 30 0 0 0
SMALL
GASTEIGER

@<TRIPOS>ATOM
      1 C           1.4063    0.9432   24.4378 C.2     1  UNL1        0.1563
      2 C           2.5202   -0.0200   24.1525 C.2     1  UNL1        0.0269
      3 C           2.4882   -0.3454   22.6886 C.2     1  UNL1        0.0153
      4 C           3.3450   -1.2371   21.8396 C.2     1  UNL1       -0.0033
      5 C           3.0680   -1.3667   20.3712 C.2     1  UNL1       -0.0250
      6 C           1.9342   -0.6046   19.7517 C.2     1  UNL1       -0.0240
      7 C           1.0775    0.2871   20.6006 C.3     1  UNL1        0.0714
      8 C           1.3545    0.4167   22.0691 C.2     1  UNL1        0.0636
      9 N           0.6858    1.2131   23.1501 N.2     1  UNL1       -0.2428
     10 C           3.9247   -2.2585   19.5221 C.3     1  UNL1        0.0385
     11 C           4.7803   -2.9073   18.4747 C.3     1  UNL1        0.0228
     12 C           5.1356   -4.2836   18.9538 C.3     1  UNL1        0.0689
     13 N           4.4997   -4.4854   20.2972 N.3     1  UNL1       -0.2972
     14 C           3.7514   -3.2338   20.6485 C.3     1  UNL1        0.0729
     15 H           5.2193   -4.6664   20.9971 H       1  UNL1        0.1233
     16 C           3.9190   -1.0968   18.5733 C.3     1  UNL1        0.0317
     17 C           5.1870   -0.3420   18.3041 C.ar    1  UNL1       -0.0218
     18 C           6.1151   -0.0076   19.4342 C.ar    1  UNL1       -0.0043
     19 C           7.3831    0.7472   19.1651 C.ar    1  UNL1       -0.0003
     20 C           7.7231    1.1676   17.7659 C.ar    1  UNL1       -0.0000
     21 C           6.7951    0.8332   16.6359 C.ar    1  UNL1       -0.0003
     22 C           5.5270    0.0784   16.9050 C.ar    1  UNL1       -0.0043
     23 C           1.0716    1.5329   25.7758 C.2     1  UNL1        0.3591
     24 O           2.0396    2.4587   26.4507 O.2     1  UNL1       -0.2432
     25 O          -0.2312    1.1967   26.4388 O.3     1  UNL1       -0.4444
     26 C          -0.9722   -0.2260   28.4826 C.3     1  UNL1        0.0513
     27 C          -0.2847    0.9839   27.9227 C.3     1  UNL1        0.2089
@<TRIPOS>BOND
     1    26    27    1
     2    27    25    1
     3    25    23    1
     4    23    24    2
     5    23     1    1
     6     1     2    2
     7     2     3    1
     8     3     4    2
     9     4     5    1
    10     5    10    1
    11    10    16    1
    12    16    17    1
    13    17    18   ar
    14    18    19   ar
    15    19    20   ar
    16    20    21   ar
    17    21    22   ar
    18    10    11    1
    19    11    12    1
    20    12    13    1
    21    13    14    1
    22     5     6    2
    23     6     7    1
    24     7     8    1
    25     8     9    2
    26     9     1    1
    27     8     3    1
    28    14    10    1
    29    22    17   ar
    30    13    15    1
