@<TRIPOS>MOLECULE
*****
 19 21 0 0 0
SMALL
GASTEIGER

@<TRIPOS>ATOM
      1 C          -8.4879  -18.8862   21.1035 C.ar    1  UNL1        0.0013
      2 C          -8.1263  -19.7825   19.9564 C.ar    1  UNL1       -0.0003
      3 C          -6.7019  -20.2083   19.7574 C.ar    1  UNL1       -0.0042
      4 C          -5.6390  -19.7376   20.7055 C.ar    1  UNL1       -0.0188
      5 C          -6.0006  -18.8413   21.8526 C.ar    1  UNL1       -0.0253
      6 C          -7.4251  -18.4156   22.0516 C.ar    1  UNL1       -0.0045
      7 C          -4.9377  -18.3707   22.8006 C.3     1  UNL1        0.0338
      8 C          -3.5133  -18.7964   22.6016 C.3     1  UNL1        0.0695
      9 C          -3.1516  -19.6928   21.4545 C.2     1  UNL1        0.1553
     10 O          -1.7272  -20.1185   21.2555 O.2     1  UNL1       -0.2957
     11 C          -4.2145  -20.1634   20.5065 C.3     1  UNL1        0.0904
     12 C         -11.9876  -18.1968   22.8434 C.ar    1  UNL1        0.1578
     13 C         -12.7614  -17.6090   21.7007 C.ar    1  UNL1        0.1356
     14 N         -12.1107  -17.4469   20.3589 N.ar    1  UNL1       -0.2391
     15 C         -10.6862  -17.8727   20.1598 C.ar    1  UNL1        0.0991
     16 C          -9.9125  -18.4605   21.3025 C.ar    1  UNL1        0.0222
     17 C         -10.5631  -18.6225   22.6443 C.ar    1  UNL1        0.0401
     18 C         -14.1188  -18.1648   24.3291 C.3     1  UNL1        0.2525
     19 O         -12.6383  -18.3588   24.1852 O.3     1  UNL1       -0.4699
@<TRIPOS>BOND
     1    18    19    1
     2    19    12    1
     3    12    13   ar
     4    13    14   ar
     5    14    15   ar
     6    15    16   ar
     7    16     1    1
     8     1     2   ar
     9     2     3   ar
    10     3     4   ar
    11     4     5   ar
    12     5     6   ar
    13     5     7    1
    14     7     8    1
    15     8     9    1
    16     9    10    2
    17     9    11    1
    18    16    17   ar
    19    17    12   ar
    20     6     1   ar
    21    11     4    1
@<TRIPOS>MOLECULE
*****
 19 21 0 0 0
SMALL
GASTEIGER

@<TRIPOS>ATOM
      1 C          -8.3558  -18.9030   21.5151 C.ar    1  UNL1        0.0013
      2 C          -8.0876  -19.8217   20.3601 C.ar    1  UNL1       -0.0003
      3 C          -6.6818  -20.2387   20.0442 C.ar    1  UNL1       -0.0042
      4 C          -5.5442  -19.7369   20.8833 C.ar    1  UNL1       -0.0188
      5 C          -5.8124  -18.8182   22.0383 C.ar    1  UNL1       -0.0253
      6 C          -7.2182  -18.4013   22.3541 C.ar    1  UNL1       -0.0045
      7 C          -4.6748  -18.3165   22.8774 C.3     1  UNL1        0.0338
      8 C          -3.2690  -18.7334   22.5615 C.3     1  UNL1        0.0695
      9 C          -3.0007  -19.6522   21.4065 C.2     1  UNL1        0.1553
     10 O          -1.5949  -20.0692   21.0906 O.2     1  UNL1       -0.2957
     11 C          -4.1384  -20.1540   20.5674 C.3     1  UNL1        0.0904
     12 C         -11.9217  -17.1911   21.1926 C.ar    1  UNL1        0.1578
     13 C         -12.5733  -17.6519   22.4628 C.ar    1  UNL1        0.1356
     14 N         -11.8191  -18.5298   23.4170 N.ar    1  UNL1       -0.2391
     15 C         -10.4132  -18.9468   23.1010 C.ar    1  UNL1        0.0991
     16 C          -9.7617  -18.4860   21.8310 C.ar    1  UNL1        0.0222
     17 C         -10.5159  -17.6082   20.8768 C.ar    1  UNL1        0.0401
     18 C         -11.9452  -15.5937   19.1438 C.3     1  UNL1        0.2525
     19 O         -12.6760  -16.3133   20.2384 O.3     1  UNL1       -0.4699
@<TRIPOS>BOND
     1    18    19    1
     2    19    12    1
     3    12    13   ar
     4    13    14   ar
     5    14    15   ar
     6    15    16   ar
     7    16     1    1
     8     1     2   ar
     9     2     3   ar
    10     3     4   ar
    11     4     5   ar
    12     5     6   ar
    13     5     7    1
    14     7     8    1
    15     8     9    1
    16     9    10    2
    17     9    11    1
    18    16    17   ar
    19    17    12   ar
    20     6     1   ar
    21    11     4    1
@<TRIPOS>MOLECULE
*****
 19 21 0 0 0
SMALL
GASTEIGER

@<TRIPOS>ATOM
      1 C          -6.3709  -19.3083   21.0635 C.ar    1  UNL1        0.0013
      2 C          -5.6642  -19.6180   22.3498 C.ar    1  UNL1       -0.0003
      3 C          -4.1736  -19.4764   22.4395 C.ar    1  UNL1       -0.0042
      4 C          -3.3897  -19.0251   21.2429 C.ar    1  UNL1       -0.0188
      5 C          -4.0964  -18.7154   19.9566 C.ar    1  UNL1       -0.0253
      6 C          -5.5870  -18.8570   19.8669 C.ar    1  UNL1       -0.0045
      7 C          -3.3125  -18.2640   18.7600 C.3     1  UNL1        0.0338
      8 C          -1.8220  -18.1224   18.8497 C.3     1  UNL1        0.0695
      9 C          -1.1152  -18.4321   20.1360 C.2     1  UNL1        0.1553
     10 O           0.3754  -18.2905   20.2257 O.2     1  UNL1       -0.2957
     11 C          -1.8991  -18.8834   21.3326 C.3     1  UNL1        0.0904
     12 C         -10.1756  -19.6604   22.1358 C.ar    1  UNL1        0.1578
     13 C         -10.8427  -19.7332   20.7942 C.ar    1  UNL1        0.1356
     14 N         -10.0192  -19.6643   19.5424 N.ar    1  UNL1       -0.2391
     15 C          -8.5285  -19.5227   19.6322 C.ar    1  UNL1        0.0991
     16 C          -7.8615  -19.4499   20.9737 C.ar    1  UNL1        0.0222
     17 C          -8.6851  -19.5188   22.2255 C.ar    1  UNL1        0.0401
     18 C         -10.3620  -19.4665   24.7199 C.3     1  UNL1        0.2525
     19 O         -10.9992  -19.7293   23.3876 O.3     1  UNL1       -0.4699
@<TRIPOS>BOND
     1    18    19    1
     2    19    12    1
     3    12    13   ar
     4    13    14   ar
     5    14    15   ar
     6    15    16   ar
     7    16     1    1
     8     1     2   ar
     9     2     3   ar
    10     3     4   ar
    11     4     5   ar
    12     5     6   ar
    13     5     7    1
    14     7     8    1
    15     8     9    1
    16     9    10    2
    17     9    11    1
    18    16    17   ar
    19    17    12   ar
    20     6     1   ar
    21    11     4    1
@<TRIPOS>MOLECULE
*****
 19 21 0 0 0
SMALL
GASTEIGER

@<TRIPOS>ATOM
      1 C          -7.0957  -19.2806   22.0107 C.ar    1  UNL1        0.0013
      2 C          -6.9266  -20.1130   20.7744 C.ar    1  UNL1       -0.0003
      3 C          -5.5809  -20.2199   20.1205 C.ar    1  UNL1       -0.0042
      4 C          -4.4043  -19.4943   20.7029 C.ar    1  UNL1       -0.0188
      5 C          -4.5734  -18.6618   21.9391 C.ar    1  UNL1       -0.0253
      6 C          -5.9191  -18.5550   22.5930 C.ar    1  UNL1       -0.0045
      7 C          -3.3968  -17.9362   22.5215 C.3     1  UNL1        0.0338
      8 C          -2.0511  -18.0431   21.8676 C.3     1  UNL1        0.0695
      9 C          -1.8820  -18.8755   20.6313 C.2     1  UNL1        0.1553
     10 O          -0.5363  -18.9824   19.9774 O.2     1  UNL1       -0.2957
     11 C          -3.0585  -19.6011   20.0489 C.3     1  UNL1        0.0904
     12 C         -10.6079  -17.8231   23.1465 C.ar    1  UNL1        0.1578
     13 C         -11.1329  -18.9599   23.9725 C.ar    1  UNL1        0.1356
     14 N         -10.3121  -20.2036   24.1445 N.ar    1  UNL1       -0.2391
     15 C          -8.9664  -20.3105   23.4906 C.ar    1  UNL1        0.0991
     16 C          -8.4415  -19.1737   22.6646 C.ar    1  UNL1        0.0222
     17 C          -9.2622  -17.9300   22.4926 C.ar    1  UNL1        0.0401
     18 C         -12.1785  -16.3465   21.6964 C.3     1  UNL1        0.2525
     19 O         -11.4287  -16.5795   22.9745 O.3     1  UNL1       -0.4699
@<TRIPOS>BOND
     1    18    19    1
     2    19    12    1
     3    12    13   ar
     4    13    14   ar
     5    14    15   ar
     6    15    16   ar
     7    16     1    1
     8     1     2   ar
     9     2     3   ar
    10     3     4   ar
    11     4     5   ar
    12     5     6   ar
    13     5     7    1
    14     7     8    1
    15     8     9    1
    16     9    10    2
    17     9    11    1
    18    16    17   ar
    19    17    12   ar
    20     6     1   ar
    21    11     4    1
@<TRIPOS>MOLECULE
*****
 19 21 0 0 0
SMALL
GASTEIGER

@<TRIPOS>ATOM
      1 C          -7.5037  -19.3709   22.2810 C.ar    1  UNL1        0.0013
      2 C          -8.0618  -20.4525   23.1577 C.ar    1  UNL1       -0.0003
      3 C          -9.4672  -20.3505   23.6719 C.ar    1  UNL1       -0.0042
      4 C         -10.3145  -19.1670   23.3093 C.ar    1  UNL1       -0.0188
      5 C          -9.7563  -18.0854   22.4326 C.ar    1  UNL1       -0.0253
      6 C          -8.3509  -18.1874   21.9185 C.ar    1  UNL1       -0.0045
      7 C         -10.6036  -16.9019   22.0700 C.3     1  UNL1        0.0338
      8 C         -12.0090  -16.8000   22.5842 C.3     1  UNL1        0.0695
      9 C         -12.5672  -17.8816   23.4609 C.2     1  UNL1        0.1553
     10 O         -13.9726  -17.7796   23.9750 O.2     1  UNL1       -0.2957
     11 C         -11.7200  -19.0651   23.8235 C.3     1  UNL1        0.0904
     12 C          -3.6055  -18.7483   21.8731 C.ar    1  UNL1        0.1578
     13 C          -3.2873  -19.6766   20.7385 C.ar    1  UNL1        0.1356
     14 N          -4.3746  -20.5030   20.1182 N.ar    1  UNL1       -0.2391
     15 C          -5.7801  -20.4011   20.6324 C.ar    1  UNL1        0.0991
     16 C          -6.0982  -19.4728   21.7668 C.ar    1  UNL1        0.0222
     17 C          -5.0109  -18.6464   22.3872 C.ar    1  UNL1        0.0401
     18 C          -2.1925  -16.5688   21.9336 C.3     1  UNL1        0.2525
     19 O          -2.5181  -17.9219   22.4934 O.3     1  UNL1       -0.4699
@<TRIPOS>BOND
     1    18    19    1
     2    19    12    1
     3    12    13   ar
     4    13    14   ar
     5    14    15   ar
     6    15    16   ar
     7    16     1    1
     8     1     2   ar
     9     2     3   ar
    10     3     4   ar
    11     4     5   ar
    12     5     6   ar
    13     5     7    1
    14     7     8    1
    15     8     9    1
    16     9    10    2
    17     9    11    1
    18    16    17   ar
    19    17    12   ar
    20     6     1   ar
    21    11     4    1
@<TRIPOS>MOLECULE
*****
 19 21 0 0 0
SMALL
GASTEIGER

@<TRIPOS>ATOM
      1 C          -6.7302  -18.9983   20.7987 C.ar    1  UNL1        0.0013
      2 C          -7.4419  -19.6643   19.6586 C.ar    1  UNL1       -0.0003
      3 C          -8.9304  -19.5352   19.5257 C.ar    1  UNL1       -0.0042
      4 C          -9.7072  -18.7400   20.5328 C.ar    1  UNL1       -0.0188
      5 C          -8.9955  -18.0740   21.6729 C.ar    1  UNL1       -0.0253
      6 C          -7.5070  -18.2031   21.8058 C.ar    1  UNL1       -0.0045
      7 C          -9.7722  -17.2788   22.6800 C.3     1  UNL1        0.0338
      8 C         -11.2607  -17.1497   22.5471 C.3     1  UNL1        0.0695
      9 C         -11.9725  -17.8158   21.4070 C.2     1  UNL1        0.1553
     10 O         -13.4610  -17.6867   21.2740 O.2     1  UNL1       -0.2957
     11 C         -11.1957  -18.6109   20.3998 C.3     1  UNL1        0.0904
     12 C          -2.8655  -18.9363   19.8986 C.ar    1  UNL1        0.1578
     13 C          -2.2646  -19.3855   21.1976 C.ar    1  UNL1        0.1356
     14 N          -3.1523  -19.7056   22.3636 N.ar    1  UNL1       -0.2391
     15 C          -4.6409  -19.5765   22.2306 C.ar    1  UNL1        0.0991
     16 C          -5.2416  -19.1274   20.9316 C.ar    1  UNL1        0.0222
     17 C          -4.3540  -18.8073   19.7656 C.ar    1  UNL1        0.0401
     18 C          -0.7085  -17.8457   18.9456 C.3     1  UNL1        0.2525
     19 O          -1.9778  -18.6163   18.7326 O.3     1  UNL1       -0.4699
@<TRIPOS>BOND
     1    18    19    1
     2    19    12    1
     3    12    13   ar
     4    13    14   ar
     5    14    15   ar
     6    15    16   ar
     7    16     1    1
     8     1     2   ar
     9     2     3   ar
    10     3     4   ar
    11     4     5   ar
    12     5     6   ar
    13     5     7    1
    14     7     8    1
    15     8     9    1
    16     9    10    2
    17     9    11    1
    18    16    17   ar
    19    17    12   ar
    20     6     1   ar
    21    11     4    1
@<TRIPOS>MOLECULE
*****
 19 21 0 0 0
SMALL
GASTEIGER

@<TRIPOS>ATOM
      1 C          -6.6386  -17.7066   22.8944 C.ar    1  UNL1        0.0013
      2 C          -7.1230  -16.4303   23.5160 C.ar    1  UNL1       -0.0003
      3 C          -8.5928  -16.2003   23.7080 C.ar    1  UNL1       -0.0042
      4 C          -9.5780  -17.2466   23.2784 C.ar    1  UNL1       -0.0188
      5 C          -9.0936  -18.5229   22.6569 C.ar    1  UNL1       -0.0253
      6 C          -7.6239  -18.7528   22.4648 C.ar    1  UNL1       -0.0045
      7 C         -10.0789  -19.5691   22.2273 C.3     1  UNL1        0.0338
      8 C         -11.5486  -19.3391   22.4193 C.3     1  UNL1        0.0695
      9 C         -12.0332  -18.0628   23.0409 C.2     1  UNL1        0.1553
     10 O         -13.5029  -17.8328   23.2329 O.2     1  UNL1       -0.2957
     11 C         -11.0479  -17.0165   23.4705 C.3     1  UNL1        0.0904
     12 C          -3.2233  -19.3014   21.6522 C.ar    1  UNL1        0.1578
     13 C          -2.2292  -18.3968   22.3183 C.ar    1  UNL1        0.1356
     14 N          -2.7049  -17.2621   23.1763 N.ar    1  UNL1       -0.2391
     15 C          -4.1747  -17.0321   23.3684 C.ar    1  UNL1        0.0991
     16 C          -5.1688  -17.9366   22.7024 C.ar    1  UNL1        0.0222
     17 C          -4.6931  -19.0713   21.8443 C.ar    1  UNL1        0.0401
     18 C          -3.6057  -20.9376   19.6706 C.3     1  UNL1        0.2525
     19 O          -2.7476  -20.4360   20.7942 O.3     1  UNL1       -0.4699
@<TRIPOS>BOND
     1    18    19    1
     2    19    12    1
     3    12    13   ar
     4    13    14   ar
     5    14    15   ar
     6    15    16   ar
     7    16     1    1
     8     1     2   ar
     9     2     3   ar
    10     3     4   ar
    11     4     5   ar
    12     5     6   ar
    13     5     7    1
    14     7     8    1
    15     8     9    1
    16     9    10    2
    17     9    11    1
    18    16    17   ar
    19    17    12   ar
    20     6     1   ar
    21    11     4    1
@<TRIPOS>MOLECULE
*****
 19 21 0 0 0
SMALL
GASTEIGER

@<TRIPOS>ATOM
      1 C          -8.0488  -19.3670   21.3929 C.ar    1  UNL1        0.0013
      2 C          -9.0462  -19.3452   20.2727 C.ar    1  UNL1       -0.0003
      3 C         -10.4881  -19.0462   20.5582 C.ar    1  UNL1       -0.0042
      4 C         -10.9326  -18.7690   21.9637 C.ar    1  UNL1       -0.0188
      5 C          -9.9352  -18.7908   23.0838 C.ar    1  UNL1       -0.0253
      6 C          -8.4933  -19.0898   22.7984 C.ar    1  UNL1       -0.0045
      7 C         -10.3797  -18.5136   24.4894 C.3     1  UNL1        0.0338
      8 C         -11.8216  -18.2146   24.7748 C.3     1  UNL1        0.0695
      9 C         -12.8190  -18.1927   23.6547 C.2     1  UNL1        0.1553
     10 O         -14.2609  -17.8937   23.9401 O.2     1  UNL1       -0.2957
     11 C         -12.3745  -18.4699   22.2491 C.3     1  UNL1        0.0904
     12 C          -4.0915  -19.3823   21.6929 C.ar    1  UNL1        0.1578
     13 C          -3.7230  -20.2641   20.5367 C.ar    1  UNL1        0.1356
     14 N          -4.7963  -20.8469   19.6659 N.ar    1  UNL1       -0.2391
     15 C          -6.2383  -20.5478   19.9513 C.ar    1  UNL1        0.0991
     16 C          -6.6068  -19.6661   21.1074 C.ar    1  UNL1        0.0222
     17 C          -5.5334  -19.0833   21.9782 C.ar    1  UNL1        0.0401
     18 C          -3.2576  -17.5064   23.2853 C.3     1  UNL1        0.2525
     19 O          -3.0182  -18.7995   22.5636 O.3     1  UNL1       -0.4699
@<TRIPOS>BOND
     1    18    19    1
     2    19    12    1
     3    12    13   ar
     4    13    14   ar
     5    14    15   ar
     6    15    16   ar
     7    16     1    1
     8     1     2   ar
     9     2     3   ar
    10     3     4   ar
    11     4     5   ar
    12     5     6   ar
    13     5     7    1
    14     7     8    1
    15     8     9    1
    16     9    10    2
    17     9    11    1
    18    16    17   ar
    19    17    12   ar
    20     6     1   ar
    21    11     4    1
@<TRIPOS>MOLECULE
*****
 19 21 0 0 0
SMALL
GASTEIGER

@<TRIPOS>ATOM
      1 C         -14.0439   -6.5445   19.0023 C.ar    1  UNL1        0.0013
      2 C         -15.1498   -5.6324   19.4438 C.ar    1  UNL1       -0.0003
      3 C         -16.5616   -6.1364   19.4965 C.ar    1  UNL1       -0.0042
      4 C         -16.8675   -7.5525   19.1077 C.ar    1  UNL1       -0.0188
      5 C         -15.7615   -8.4646   18.6662 C.ar    1  UNL1       -0.0253
      6 C         -14.3498   -7.9606   18.6135 C.ar    1  UNL1       -0.0045
      7 C         -16.0674   -9.8807   18.2775 C.3     1  UNL1        0.0338
      8 C         -17.4792  -10.3847   18.3302 C.3     1  UNL1        0.0695
      9 C         -18.5852   -9.4726   18.7717 C.2     1  UNL1        0.1553
     10 O         -19.9970   -9.9766   18.8245 O.2     1  UNL1       -0.2957
     11 C         -18.2793   -8.0565   19.1605 C.3     1  UNL1        0.0904
     12 C         -10.9531   -4.0660   18.7696 C.ar    1  UNL1        0.1578
     13 C          -9.8084   -5.0325   18.8440 C.ar    1  UNL1        0.1356
     14 N         -10.0755   -6.5031   18.9711 N.ar    1  UNL1       -0.2391
     15 C         -11.4874   -7.0071   19.0239 C.ar    1  UNL1        0.0991
     16 C         -12.6320   -6.0405   18.9495 C.ar    1  UNL1        0.0222
     17 C         -12.3649   -4.5700   18.8224 C.ar    1  UNL1        0.0401
     18 C         -11.7639   -1.6060   18.9731 C.3     1  UNL1        0.2525
     19 O         -10.6860   -2.5954   18.6425 O.3     1  UNL1       -0.4699
@<TRIPOS>BOND
     1    18    19    1
     2    19    12    1
     3    12    13   ar
     4    13    14   ar
     5    14    15   ar
     6    15    16   ar
     7    16     1    1
     8     1     2   ar
     9     2     3   ar
    10     3     4   ar
    11     4     5   ar
    12     5     6   ar
    13     5     7    1
    14     7     8    1
    15     8     9    1
    16     9    10    2
    17     9    11    1
    18    16    17   ar
    19    17    12   ar
    20     6     1   ar
    21    11     4    1
