@<TRIPOS>MOLECULE
*****
 36 40 0 0 0
SMALL
GASTEIGER

@<TRIPOS>ATOM
      1 C           0.4122    2.1976   28.6271 C.3     1  UNL1        0.0744
      2 C           1.3461    3.3605   28.4673 C.3     1  UNL1        0.0121
      3 C          -0.1218    2.4367   27.2459 C.ar    1  UNL1       -0.0159
      4 C           0.6005    1.8790   26.0555 C.ar    1  UNL1       -0.0039
      5 C           0.0665    2.1181   24.6744 C.ar    1  UNL1       -0.0002
      6 C          -1.1899    2.9150   24.4837 C.ar    1  UNL1        0.0030
      7 C          -1.9123    3.4728   25.6740 C.ar    1  UNL1       -0.0002
      8 C          -1.3782    3.2336   27.0552 C.ar    1  UNL1       -0.0039
      9 C          -1.7240    3.1541   23.1024 C.ar    1  UNL1        0.0384
     10 C          -3.1163    3.6806   22.9174 C.ar    1  UNL1        0.1033
     11 N          -3.6503    3.9198   21.5362 N.ar    1  UNL1       -0.2125
     12 C          -2.7920    3.6323   20.3400 C.ar    1  UNL1        0.2137
     13 N          -3.3260    3.8714   18.9589 N.pl3   1  UNL1       -0.3274
     14 N          -1.3997    3.1057   20.5251 N.ar    1  UNL1       -0.2125
     15 C          -0.8657    2.8667   21.9063 C.ar    1  UNL1        0.1033
     16 H          -4.2398    4.2170   18.8374 H       1  UNL1        0.1452
     17 H          -2.7626    3.6827   18.1738 H       1  UNL1        0.1452
     18 C           1.5471    2.2777   32.3380 C.ar    1  UNL1        0.2628
     19 N           0.9027    2.9296   31.1507 N.ar    1  UNL1       -0.1907
     20 C           0.9463    1.9586   30.0083 C.ar    1  UNL1        0.1837
     21 N           1.6177    0.7065   30.4895 N.ar    1  UNL1       -0.0599
     22 O           1.9890    0.9037   31.9293 O.2     1  UNL1       -0.3326
     23 N           2.3183    3.2102   36.0260 N.ar    1  UNL1       -0.2399
     24 C           2.3607    2.2386   34.8839 C.ar    1  UNL1        0.1019
     25 C           1.7194    2.8919   33.6956 C.ar    1  UNL1        0.0956
     26 C           1.2808    4.2671   34.1033 C.ar    1  UNL1        0.1264
     27 N           1.6509    4.4639   35.5435 N.ar    1  UNL1       -0.1670
     28 C           2.8501    2.9702   37.4079 C.3     1  UNL1        0.2121
     29 C           1.3218    0.0441   39.6107 C.3     1  UNL1        0.1150
     30 N           1.4999    1.3843   38.9608 N.am    1  UNL1       -0.2744
     31 C           0.5057    2.4786   39.2140 C.3     1  UNL1        0.1150
     32 C           2.6721    1.6301   38.0578 C.2     1  UNL1        0.2506
     33 O           3.6662    0.5358   37.8046 O.2     1  UNL1       -0.2727
     34 C          -0.5217    1.0348   28.7870 C.3     1  UNL1        0.0106
     35 C          -1.7432    0.4257   29.4089 C.3     1  UNL1        0.0008
     36 C          -0.9178   -0.3702   28.4418 C.3     1  UNL1        0.0008
@<TRIPOS>BOND
     1    29    30    1
     2    30    31    1
     3    30    32   am
     4    32    33    2
     5    32    28    1
     6    28    23    1
     7    23    24   ar
     8    24    25   ar
     9    25    18    1
    10    18    19   ar
    11    19    20   ar
    12    20     1    1
    13     1     2    1
    14     1     3    1
    15     3     4   ar
    16     4     5   ar
    17     5     6   ar
    18     6     9    1
    19     9    10   ar
    20    10    11   ar
    21    11    12   ar
    22    12    13    1
    23    12    14   ar
    24    14    15   ar
    25     6     7   ar
    26     7     8   ar
    27     1    34    1
    28    34    35    1
    29    35    36    1
    30    20    21   ar
    31    21    22   ar
    32    25    26   ar
    33    26    27   ar
    34    27    23   ar
    35    22    18   ar
    36     8     3   ar
    37    36    34    1
    38    15     9   ar
    39    13    16    1
    40    13    17    1
@<TRIPOS>MOLECULE
*****
 36 40 0 0 0
SMALL
GASTEIGER

@<TRIPOS>ATOM
      1 C           0.6122    1.4232   28.4952 C.3     1  UNL1        0.0744
      2 C           1.7876    2.3066   28.1987 C.3     1  UNL1        0.0121
      3 C          -0.1007    1.9685   27.2934 C.ar    1  UNL1       -0.0159
      4 C          -1.1189    3.0579   27.4556 C.ar    1  UNL1       -0.0039
      5 C          -1.8319    3.6031   26.2538 C.ar    1  UNL1       -0.0002
      6 C          -1.5266    3.0590   24.8898 C.ar    1  UNL1        0.0030
      7 C          -0.5084    1.9695   24.7275 C.ar    1  UNL1       -0.0002
      8 C           0.2045    1.4243   25.9293 C.ar    1  UNL1       -0.0039
      9 C          -2.2396    3.6043   23.6879 C.ar    1  UNL1        0.0384
     10 C          -1.5598    3.6094   22.3509 C.ar    1  UNL1        0.1033
     11 N          -2.2728    4.1547   21.1490 N.ar    1  UNL1       -0.2125
     12 C          -3.6656    4.6948   21.2843 C.ar    1  UNL1        0.2137
     13 N          -4.3786    5.2401   20.0826 N.pl3   1  UNL1       -0.3274
     14 N          -4.3454    4.6897   22.6215 N.ar    1  UNL1       -0.2125
     15 C          -3.6324    4.1444   23.8232 C.ar    1  UNL1        0.1033
     16 H          -3.9324    5.2435   19.2050 H       1  UNL1        0.1452
     17 H          -5.2927    5.5947   20.1714 H       1  UNL1        0.1452
     18 C           2.4322    0.7240   31.8514 C.ar    1  UNL1        0.2628
     19 N           1.7601    1.6659   30.8970 N.ar    1  UNL1       -0.1907
     20 C           1.3252    0.8779   29.6970 C.ar    1  UNL1        0.1837
     21 N           1.7286   -0.5511   29.9098 N.ar    1  UNL1       -0.0599
     22 O           2.4127   -0.6463   31.2413 O.2     1  UNL1       -0.3326
     23 N           3.4317    2.2094   35.2953 N.ar    1  UNL1       -0.2399
     24 C           2.5669    2.2094   34.0697 C.ar    1  UNL1        0.1019
     25 C           3.0205    1.0883   33.1823 C.ar    1  UNL1        0.0956
     26 C           4.1656    0.3954   33.8595 C.ar    1  UNL1        0.1264
     27 N           4.4197    1.0882   35.1654 N.ar    1  UNL1       -0.1670
     28 C           3.3268    3.1630   36.4484 C.3     1  UNL1        0.2121
     29 C           1.0139    1.9436   39.4339 C.3     1  UNL1        0.1150
     30 N           2.1725    2.0377   38.4857 N.am    1  UNL1       -0.2744
     31 C           3.3351    1.1005   38.6267 C.3     1  UNL1        0.1150
     32 C           2.1683    3.0690   37.3965 C.2     1  UNL1        0.2506
     33 O           1.0057    4.0062   37.2554 O.2     1  UNL1       -0.2727
     34 C          -0.5631    0.5397   28.7917 C.3     1  UNL1        0.0106
     35 C          -1.8118    0.2578   29.5735 C.3     1  UNL1        0.0008
     36 C          -1.3502   -0.7087   28.5234 C.3     1  UNL1        0.0008
@<TRIPOS>BOND
     1    29    30    1
     2    30    31    1
     3    30    32   am
     4    32    33    2
     5    32    28    1
     6    28    23    1
     7    23    24   ar
     8    24    25   ar
     9    25    18    1
    10    18    19   ar
    11    19    20   ar
    12    20     1    1
    13     1     2    1
    14     1     3    1
    15     3     4   ar
    16     4     5   ar
    17     5     6   ar
    18     6     9    1
    19     9    10   ar
    20    10    11   ar
    21    11    12   ar
    22    12    13    1
    23    12    14   ar
    24    14    15   ar
    25     6     7   ar
    26     7     8   ar
    27     1    34    1
    28    34    35    1
    29    35    36    1
    30    20    21   ar
    31    21    22   ar
    32    25    26   ar
    33    26    27   ar
    34    27    23   ar
    35    22    18   ar
    36     8     3   ar
    37    36    34    1
    38    15     9   ar
    39    13    16    1
    40    13    17    1
@<TRIPOS>MOLECULE
*****
 36 40 0 0 0
SMALL
GASTEIGER

@<TRIPOS>ATOM
      1 C           0.7218    1.4247   28.5438 C.3     1  UNL1        0.0744
      2 C           1.9216    2.2689   28.2312 C.3     1  UNL1        0.0121
      3 C           0.0278    1.9606   27.3267 C.ar    1  UNL1       -0.0159
      4 C           0.3268    1.3803   25.9763 C.ar    1  UNL1       -0.0039
      5 C          -0.3673    1.9162   24.7593 C.ar    1  UNL1       -0.0002
      6 C          -1.3604    3.0324   24.8928 C.ar    1  UNL1        0.0030
      7 C          -1.6594    3.6127   26.2432 C.ar    1  UNL1       -0.0002
      8 C          -0.9653    3.0768   27.4602 C.ar    1  UNL1       -0.0039
      9 C          -2.0544    3.5683   23.6757 C.ar    1  UNL1        0.0384
     10 C          -3.5476    3.7110   23.6657 C.ar    1  UNL1        0.1033
     11 N          -4.2416    4.2469   22.4486 N.ar    1  UNL1       -0.2125
     12 C          -3.4425    4.6401   21.2417 C.ar    1  UNL1        0.2137
     13 N          -4.1365    5.1760   20.0246 N.pl3   1  UNL1       -0.3274
     14 N          -1.9493    4.4973   21.2517 N.ar    1  UNL1       -0.2125
     15 C          -1.2553    3.9614   22.4687 C.ar    1  UNL1        0.1033
     16 H          -5.1165    5.2696   20.0180 H       1  UNL1        0.1452
     17 H          -3.6120    5.4340   19.2325 H       1  UNL1        0.1452
     18 C           2.5169    0.7568   31.9197 C.ar    1  UNL1        0.2628
     19 N           1.8771    1.6943   30.9391 N.ar    1  UNL1       -0.1907
     20 C           1.4159    0.8888   29.7607 C.ar    1  UNL1        0.1837
     21 N           1.7707   -0.5466   30.0131 N.ar    1  UNL1       -0.0599
     22 O           2.4511   -0.6283   31.3474 O.2     1  UNL1       -0.3326
     23 N           3.5095    2.2447   35.3644 N.ar    1  UNL1       -0.2399
     24 C           2.6105    2.2052   34.1643 C.ar    1  UNL1        0.1019
     25 C           3.1170    1.1373   33.2407 C.ar    1  UNL1        0.0956
     26 C           4.3291    0.5169   33.8699 C.ar    1  UNL1        0.1264
     27 N           4.5717    1.2012   35.1824 N.ar    1  UNL1       -0.1670
     28 C           3.3708    3.1659   36.5401 C.3     1  UNL1        0.2121
     29 C           1.0432    1.8433   39.4697 C.3     1  UNL1        0.1150
     30 N           2.2141    1.9818   38.5425 N.am    1  UNL1       -0.2744
     31 C           3.3994    1.0744   38.6905 C.3     1  UNL1        0.1150
     32 C           2.1999    3.0275   37.4672 C.2     1  UNL1        0.2506
     33 O           1.0146    3.9349   37.3192 O.2     1  UNL1       -0.2727
     34 C          -0.4780    0.5805   28.8563 C.3     1  UNL1        0.0106
     35 C          -1.3132   -0.6376   28.5944 C.3     1  UNL1        0.0008
     36 C          -1.7209    0.3364   29.6597 C.3     1  UNL1        0.0008
@<TRIPOS>BOND
     1    29    30    1
     2    30    31    1
     3    30    32   am
     4    32    33    2
     5    32    28    1
     6    28    23    1
     7    23    24   ar
     8    24    25   ar
     9    25    18    1
    10    18    19   ar
    11    19    20   ar
    12    20     1    1
    13     1     2    1
    14     1     3    1
    15     3     4   ar
    16     4     5   ar
    17     5     6   ar
    18     6     9    1
    19     9    10   ar
    20    10    11   ar
    21    11    12   ar
    22    12    13    1
    23    12    14   ar
    24    14    15   ar
    25     6     7   ar
    26     7     8   ar
    27     1    34    1
    28    34    35    1
    29    35    36    1
    30    20    21   ar
    31    21    22   ar
    32    25    26   ar
    33    26    27   ar
    34    27    23   ar
    35    22    18   ar
    36     8     3   ar
    37    36    34    1
    38    15     9   ar
    39    13    16    1
    40    13    17    1
@<TRIPOS>MOLECULE
*****
 36 40 0 0 0
SMALL
GASTEIGER

@<TRIPOS>ATOM
      1 C           0.7441    1.6479   28.5255 C.3     1  UNL1        0.0744
      2 C           1.8956    2.5703   28.2551 C.3     1  UNL1        0.0121
      3 C           0.1026    2.0713   27.2373 C.ar    1  UNL1       -0.0159
      4 C          -0.8992    3.1877   27.2298 C.ar    1  UNL1       -0.0039
      5 C          -1.5407    3.6110   25.9417 C.ar    1  UNL1       -0.0002
      6 C          -1.1804    2.9179   24.6612 C.ar    1  UNL1        0.0030
      7 C          -0.1787    1.8015   24.6687 C.ar    1  UNL1       -0.0002
      8 C           0.4628    1.3782   25.9568 C.ar    1  UNL1       -0.0039
      9 C          -1.8220    3.3413   23.3730 C.ar    1  UNL1        0.0384
     10 C          -1.0557    3.2472   22.0870 C.ar    1  UNL1        0.1033
     11 N          -1.6972    3.6706   20.7989 N.ar    1  UNL1       -0.2125
     12 C          -3.1051    4.1881   20.7969 C.ar    1  UNL1        0.2137
     13 N          -3.7467    4.6114   19.5088 N.pl3   1  UNL1       -0.3274
     14 N          -3.8715    4.2822   22.0830 N.ar    1  UNL1       -0.2125
     15 C          -3.2299    3.8588   23.3710 C.ar    1  UNL1        0.1033
     16 H          -3.2438    4.5497   18.6648 H       1  UNL1        0.1452
     17 H          -4.6708    4.9511   19.5075 H       1  UNL1        0.1452
     18 C           2.8263    0.1103   31.4177 C.ar    1  UNL1        0.2628
     19 N           2.4963    0.2269   29.9592 N.ar    1  UNL1       -0.1907
     20 C           1.3857    1.2245   29.8135 C.ar    1  UNL1        0.1837
     21 N           1.0293    1.7245   31.1821 N.ar    1  UNL1       -0.0599
     22 O           1.9197    1.0359   32.1736 O.2     1  UNL1       -0.3326
     23 N           5.8203   -2.2110   32.2623 N.ar    1  UNL1       -0.2399
     24 C           5.0195   -1.4114   31.2778 C.ar    1  UNL1        0.1019
     25 C           3.8783   -0.7763   32.0156 C.ar    1  UNL1        0.0956
     26 C           3.9739   -1.1833   33.4561 C.ar    1  UNL1        0.1264
     27 N           5.1741   -2.0700   33.6086 N.ar    1  UNL1       -0.1670
     28 C           7.0513   -3.0111   31.9547 C.3     1  UNL1        0.2121
     29 C           6.9504   -5.7935   29.1265 C.3     1  UNL1        0.1150
     30 N           7.0727   -4.4567   29.7961 N.am    1  UNL1       -0.2744
     31 C           7.3386   -3.2289   28.9765 C.3     1  UNL1        0.1150
     32 C           6.9290   -4.3478   31.2852 C.2     1  UNL1        0.2506
     33 O           6.6631   -5.5756   32.1048 O.2     1  UNL1       -0.2727
     34 C          -0.4073    0.7254   28.7958 C.3     1  UNL1        0.0106
     35 C          -1.0492   -0.6240   28.6651 C.3     1  UNL1        0.0008
     36 C          -1.7599    0.4770   29.3949 C.3     1  UNL1        0.0008
@<TRIPOS>BOND
     1    29    30    1
     2    30    31    1
     3    30    32   am
     4    32    33    2
     5    32    28    1
     6    28    23    1
     7    23    24   ar
     8    24    25   ar
     9    25    18    1
    10    18    19   ar
    11    19    20   ar
    12    20     1    1
    13     1     2    1
    14     1     3    1
    15     3     4   ar
    16     4     5   ar
    17     5     6   ar
    18     6     9    1
    19     9    10   ar
    20    10    11   ar
    21    11    12   ar
    22    12    13    1
    23    12    14   ar
    24    14    15   ar
    25     6     7   ar
    26     7     8   ar
    27     1    34    1
    28    34    35    1
    29    35    36    1
    30    20    21   ar
    31    21    22   ar
    32    25    26   ar
    33    26    27   ar
    34    27    23   ar
    35    22    18   ar
    36     8     3   ar
    37    36    34    1
    38    15     9   ar
    39    13    16    1
    40    13    17    1
@<TRIPOS>MOLECULE
*****
 36 40 0 0 0
SMALL
GASTEIGER

@<TRIPOS>ATOM
      1 C           0.0216    2.0961   28.3754 C.3     1  UNL1        0.0744
      2 C           0.8585    3.3192   28.1436 C.3     1  UNL1        0.0121
      3 C           0.8541    1.7540   29.5755 C.ar    1  UNL1       -0.0159
      4 C           1.9602    0.7477   29.4587 C.ar    1  UNL1       -0.0039
      5 C           2.7926    0.4056   30.6587 C.ar    1  UNL1       -0.0002
      6 C           2.5189    1.0700   31.9754 C.ar    1  UNL1        0.0030
      7 C           1.4128    2.0764   32.0922 C.ar    1  UNL1       -0.0002
      8 C           0.5804    2.4184   30.8922 C.ar    1  UNL1       -0.0039
      9 C           3.3514    0.7279   33.1755 C.ar    1  UNL1        0.0384
     10 C           4.0951   -0.5738   33.2260 C.ar    1  UNL1        0.1033
     11 N           4.9276   -0.9159   34.4261 N.ar    1  UNL1       -0.2125
     12 C           5.0164    0.0438   35.5755 C.ar    1  UNL1        0.2137
     13 N           5.8488   -0.2982   36.7755 N.pl3   1  UNL1       -0.3274
     14 N           4.2727    1.3455   35.5249 N.ar    1  UNL1       -0.2125
     15 C           3.4402    1.6875   34.3249 C.ar    1  UNL1        0.1033
     16 H           6.3369   -1.1526   36.8087 H       1  UNL1        0.1452
     17 H           5.9071    0.3316   37.5299 H       1  UNL1        0.1452
     18 C          -2.6446    3.1981   25.7789 C.ar    1  UNL1        0.2628
     19 N          -2.1945    3.0170   27.1982 N.ar    1  UNL1       -0.1907
     20 C          -0.8108    2.4382   27.1754 C.ar    1  UNL1        0.1837
     21 N          -0.4058    2.2616   25.7420 N.ar    1  UNL1       -0.0599
     22 O          -1.5391    2.7313   24.8788 O.2     1  UNL1       -0.3326
     23 N          -5.9881    4.1524   24.0538 N.ar    1  UNL1       -0.2399
     24 C          -4.7197    3.3530   24.1011 C.ar    1  UNL1        0.1019
     25 C          -3.9679    3.7494   25.3371 C.ar    1  UNL1        0.0956
     26 C          -4.7715    4.7936   26.0536 C.ar    1  UNL1        0.1264
     27 N          -6.0201    5.0428   25.2606 N.ar    1  UNL1       -0.1670
     28 C          -7.0399    4.0750   22.9871 C.3     1  UNL1        0.2121
     29 C          -6.3592    6.0188   19.5947 C.3     1  UNL1        0.1150
     30 N          -6.2962    4.9682   20.6635 N.am    1  UNL1       -0.2744
     31 C          -5.4266    3.7602   20.4775 C.3     1  UNL1        0.1150
     32 C          -7.1028    5.1256   21.9183 C.2     1  UNL1        0.2506
     33 O          -7.9725    6.3335   22.1044 O.2     1  UNL1       -0.2727
     34 C          -0.8153    0.8731   28.6073 C.3     1  UNL1        0.0106
     35 C          -1.1752   -0.5403   28.2569 C.3     1  UNL1        0.0008
     36 C          -1.9050    0.1682   29.3593 C.3     1  UNL1        0.0008
@<TRIPOS>BOND
     1    29    30    1
     2    30    31    1
     3    30    32   am
     4    32    33    2
     5    32    28    1
     6    28    23    1
     7    23    24   ar
     8    24    25   ar
     9    25    18    1
    10    18    19   ar
    11    19    20   ar
    12    20     1    1
    13     1     2    1
    14     1     3    1
    15     3     4   ar
    16     4     5   ar
    17     5     6   ar
    18     6     9    1
    19     9    10   ar
    20    10    11   ar
    21    11    12   ar
    22    12    13    1
    23    12    14   ar
    24    14    15   ar
    25     6     7   ar
    26     7     8   ar
    27     1    34    1
    28    34    35    1
    29    35    36    1
    30    20    21   ar
    31    21    22   ar
    32    25    26   ar
    33    26    27   ar
    34    27    23   ar
    35    22    18   ar
    36     8     3   ar
    37    36    34    1
    38    15     9   ar
    39    13    16    1
    40    13    17    1
@<TRIPOS>MOLECULE
*****
 36 40 0 0 0
SMALL
GASTEIGER

@<TRIPOS>ATOM
      1 C           0.4349    2.0875   28.6311 C.3     1  UNL1        0.0744
      2 C           1.3672    3.2566   28.5135 C.3     1  UNL1        0.0121
      3 C          -0.0800    2.3590   27.2486 C.ar    1  UNL1       -0.0159
      4 C          -1.3278    3.1695   27.0588 C.ar    1  UNL1       -0.0039
      5 C          -1.8427    3.4410   25.6764 C.ar    1  UNL1       -0.0002
      6 C          -1.1097    2.9021   24.4838 C.ar    1  UNL1        0.0030
      7 C           0.1381    2.0916   24.6736 C.ar    1  UNL1       -0.0002
      8 C           0.6529    1.8201   26.0560 C.ar    1  UNL1       -0.0039
      9 C          -1.6247    3.1736   23.1013 C.ar    1  UNL1        0.0384
     10 C          -0.7800    2.8402   21.9074 C.ar    1  UNL1        0.1033
     11 N          -1.2950    3.1118   20.5250 N.ar    1  UNL1       -0.2125
     12 C          -2.6546    3.7168   20.3365 C.ar    1  UNL1        0.2137
     13 N          -3.1695    3.9883   18.9541 N.pl3   1  UNL1       -0.3274
     14 N          -3.4992    4.0502   21.5304 N.ar    1  UNL1       -0.2125
     15 C          -2.9842    3.7786   22.9128 C.ar    1  UNL1        0.1033
     16 H          -2.6152    3.7695   18.1705 H       1  UNL1        0.1452
     17 H          -4.0618    4.3854   18.8304 H       1  UNL1        0.1452
     18 C           2.2911    0.9754   31.8534 C.ar    1  UNL1        0.2628
     19 N           2.1405    0.9724   30.3610 N.ar    1  UNL1       -0.1907
     20 C           0.9499    1.8159   30.0135 C.ar    1  UNL1        0.1837
     21 N           0.3646    2.3404   31.2912 N.ar    1  UNL1       -0.0599
     22 O           1.1935    1.8209   32.4283 O.2     1  UNL1       -0.3326
     23 N           4.8770   -0.3779   34.4121 N.ar    1  UNL1       -0.2399
     24 C           3.7995    0.5917   34.0266 C.ar    1  UNL1        0.1019
     25 C           3.3529    0.2587   32.6339 C.ar    1  UNL1        0.0956
     26 C           4.1544   -0.9167   32.1587 C.ar    1  UNL1        0.1264
     27 N           5.0964   -1.3102   33.2576 N.ar    1  UNL1       -0.1670
     28 C           5.6071   -0.4097   35.7221 C.3     1  UNL1        0.2121
     29 C           5.6722    2.8365   38.0042 C.3     1  UNL1        0.1150
     30 N           5.2094    1.5572   37.3722 N.am    1  UNL1       -0.2744
     31 C           3.8862    0.9656   37.7585 C.3     1  UNL1        0.1150
     32 C           6.0699    0.8695   36.3540 C.2     1  UNL1        0.2506
     33 O           7.3931    1.4611   35.9678 O.2     1  UNL1       -0.2727
     34 C          -0.4973    0.9183   28.7488 C.3     1  UNL1        0.0106
     35 C          -1.7660    0.3164   29.2762 C.3     1  UNL1        0.0008
     36 C          -0.8434   -0.5049   28.4251 C.3     1  UNL1        0.0008
@<TRIPOS>BOND
     1    29    30    1
     2    30    31    1
     3    30    32   am
     4    32    33    2
     5    32    28    1
     6    28    23    1
     7    23    24   ar
     8    24    25   ar
     9    25    18    1
    10    18    19   ar
    11    19    20   ar
    12    20     1    1
    13     1     2    1
    14     1     3    1
    15     3     4   ar
    16     4     5   ar
    17     5     6   ar
    18     6     9    1
    19     9    10   ar
    20    10    11   ar
    21    11    12   ar
    22    12    13    1
    23    12    14   ar
    24    14    15   ar
    25     6     7   ar
    26     7     8   ar
    27     1    34    1
    28    34    35    1
    29    35    36    1
    30    20    21   ar
    31    21    22   ar
    32    25    26   ar
    33    26    27   ar
    34    27    23   ar
    35    22    18   ar
    36     8     3   ar
    37    36    34    1
    38    15     9   ar
    39    13    16    1
    40    13    17    1
@<TRIPOS>MOLECULE
*****
 36 40 0 0 0
SMALL
GASTEIGER

@<TRIPOS>ATOM
      1 C           1.2337    0.9399   20.7100 C.3     1  UNL1        0.0744
      2 C           0.2650   -0.1882   20.5129 C.3     1  UNL1        0.0121
      3 C           2.2713   -0.0340   21.1843 C.ar    1  UNL1       -0.0159
      4 C           3.0429   -0.8510   20.1908 C.ar    1  UNL1       -0.0039
      5 C           4.0805   -1.8248   20.6651 C.ar    1  UNL1       -0.0002
      6 C           4.3464   -1.9818   22.1330 C.ar    1  UNL1        0.0030
      7 C           3.5747   -1.1648   23.1265 C.ar    1  UNL1       -0.0002
      8 C           2.5372   -0.1909   22.6522 C.ar    1  UNL1       -0.0039
      9 C           5.3840   -2.9557   22.6074 C.ar    1  UNL1        0.0384
     10 C           6.2537   -3.6679   21.6143 C.ar    1  UNL1        0.1033
     11 N           7.2913   -4.6419   22.0886 N.ar    1  UNL1       -0.2125
     12 C           7.4591   -4.9035   23.5561 C.ar    1  UNL1        0.2137
     13 N           8.4966   -5.8774   24.0304 N.pl3   1  UNL1       -0.3274
     14 N           6.5893   -4.1912   24.5492 N.ar    1  UNL1       -0.2125
     15 C           5.5518   -3.2173   24.0748 C.ar    1  UNL1        0.1033
     16 H           9.0675   -6.3448   23.3786 H       1  UNL1        0.1452
     17 H           8.6067   -6.0491   24.9936 H       1  UNL1        0.1452
     18 C          -1.8051    3.2824   20.1238 C.ar    1  UNL1        0.2628
     19 N          -1.0683    2.2758   20.9568 N.ar    1  UNL1       -0.1907
     20 C           0.1961    1.9137   20.2356 C.ar    1  UNL1        0.1837
     21 N           0.2407    2.6965   18.9568 N.ar    1  UNL1       -0.0599
     22 O          -0.9961    3.5423   18.8877 O.2     1  UNL1       -0.3326
     23 N          -5.3396    4.2813   21.3787 N.ar    1  UNL1       -0.2399
     24 C          -4.2102    3.2982   21.2902 C.ar    1  UNL1        0.1019
     25 C          -3.1201    3.9174   20.4666 C.ar    1  UNL1        0.0956
     26 C          -3.5759    5.2832   20.0461 C.ar    1  UNL1        0.1264
     27 N          -4.9476    5.5081   20.6097 N.ar    1  UNL1       -0.1670
     28 C          -6.6339    4.0740   22.1080 C.3     1  UNL1        0.2121
     29 C          -7.1406    6.2012   25.4198 C.3     1  UNL1        0.1150
     30 N          -6.6382    5.1535   24.4711 N.am    1  UNL1       -0.2744
     31 C          -5.6375    4.1378   24.9369 C.3     1  UNL1        0.1150
     32 C          -7.1364    5.1216   23.0566 C.2     1  UNL1        0.2506
     33 O          -8.1370    6.1374   22.5908 O.2     1  UNL1       -0.2727
     34 C           2.2024    2.0680   20.9070 C.3     1  UNL1        0.0106
     35 C           2.6825    3.2434   21.7056 C.3     1  UNL1        0.0008
     36 C           3.4002    2.8466   20.4497 C.3     1  UNL1        0.0008
@<TRIPOS>BOND
     1    29    30    1
     2    30    31    1
     3    30    32   am
     4    32    33    2
     5    32    28    1
     6    28    23    1
     7    23    24   ar
     8    24    25   ar
     9    25    18    1
    10    18    19   ar
    11    19    20   ar
    12    20     1    1
    13     1     2    1
    14     1     3    1
    15     3     4   ar
    16     4     5   ar
    17     5     6   ar
    18     6     9    1
    19     9    10   ar
    20    10    11   ar
    21    11    12   ar
    22    12    13    1
    23    12    14   ar
    24    14    15   ar
    25     6     7   ar
    26     7     8   ar
    27     1    34    1
    28    34    35    1
    29    35    36    1
    30    20    21   ar
    31    21    22   ar
    32    25    26   ar
    33    26    27   ar
    34    27    23   ar
    35    22    18   ar
    36     8     3   ar
    37    36    34    1
    38    15     9   ar
    39    13    16    1
    40    13    17    1
@<TRIPOS>MOLECULE
*****
 36 40 0 0 0
SMALL
GASTEIGER

@<TRIPOS>ATOM
      1 C          -0.4387    2.7052   27.6875 C.3     1  UNL1        0.0744
      2 C          -0.8981    1.2785   27.7440 C.3     1  UNL1        0.0121
      3 C          -1.4255    2.9796   26.5916 C.ar    1  UNL1       -0.0159
      4 C          -2.8351    3.3644   26.9307 C.ar    1  UNL1       -0.0039
      5 C          -3.8218    3.6387   25.8348 C.ar    1  UNL1       -0.0002
      6 C          -3.3990    3.5282   24.3998 C.ar    1  UNL1        0.0030
      7 C          -1.9895    3.1434   24.0608 C.ar    1  UNL1       -0.0002
      8 C          -1.0027    2.8691   25.1567 C.ar    1  UNL1       -0.0039
      9 C          -4.3859    3.8025   23.3039 C.ar    1  UNL1        0.0384
     10 C          -3.9909    3.6005   21.8711 C.ar    1  UNL1        0.1033
     11 N          -4.9777    3.8748   20.7752 N.ar    1  UNL1       -0.2125
     12 C          -6.3595    4.3512   21.1122 C.ar    1  UNL1        0.2137
     13 N          -7.3464    4.6256   20.0164 N.pl3   1  UNL1       -0.3274
     14 N          -6.7545    4.5533   22.5451 N.ar    1  UNL1       -0.2125
     15 C          -5.7677    4.2790   23.6410 C.ar    1  UNL1        0.1033
     16 H          -7.0871    4.4930   19.0759 H       1  UNL1        0.1452
     17 H          -8.2533    4.9382   20.2376 H       1  UNL1        0.1452
     18 C           1.6183    2.3561   30.9605 C.ar    1  UNL1        0.2628
     19 N           0.4027    2.8317   30.2215 N.ar    1  UNL1       -0.1907
     20 C           0.5481    2.4309   28.7834 C.ar    1  UNL1        0.1837
     21 N           1.8536    1.7074   28.6336 N.ar    1  UNL1       -0.0599
     22 O           2.5150    1.6612   29.9791 O.2     1  UNL1       -0.3326
     23 N           1.8886    3.4519   34.6741 N.ar    1  UNL1       -0.2399
     24 C           1.3721    3.6593   33.2812 C.ar    1  UNL1        0.1019
     25 C           1.8895    2.5425   32.4239 C.ar    1  UNL1        0.0956
     26 C           2.7258    1.6450   33.2870 C.ar    1  UNL1        0.1264
     27 N           2.7253    2.2070   34.6777 N.ar    1  UNL1       -0.1670
     28 C           1.6163    4.3346   35.8561 C.3     1  UNL1        0.2121
     29 C           3.5564    3.5692   39.2325 C.3     1  UNL1        0.1150
     30 N           3.2642    4.0612   37.8458 N.am    1  UNL1       -0.2744
     31 C           4.3279    4.7718   37.0625 C.3     1  UNL1        0.1150
     32 C           1.9084    3.8426   37.2426 C.2     1  UNL1        0.2506
     33 O           0.8447    3.1321   38.0260 O.2     1  UNL1       -0.2727
     34 C           0.0208    4.1320   27.6310 C.3     1  UNL1        0.0106
     35 C           1.0577    5.1489   27.2559 C.3     1  UNL1        0.0008
     36 C          -0.2203    5.5863   27.9082 C.3     1  UNL1        0.0008
@<TRIPOS>BOND
     1    29    30    1
     2    30    31    1
     3    30    32   am
     4    32    33    2
     5    32    28    1
     6    28    23    1
     7    23    24   ar
     8    24    25   ar
     9    25    18    1
    10    18    19   ar
    11    19    20   ar
    12    20     1    1
    13     1     2    1
    14     1     3    1
    15     3     4   ar
    16     4     5   ar
    17     5     6   ar
    18     6     9    1
    19     9    10   ar
    20    10    11   ar
    21    11    12   ar
    22    12    13    1
    23    12    14   ar
    24    14    15   ar
    25     6     7   ar
    26     7     8   ar
    27     1    34    1
    28    34    35    1
    29    35    36    1
    30    20    21   ar
    31    21    22   ar
    32    25    26   ar
    33    26    27   ar
    34    27    23   ar
    35    22    18   ar
    36     8     3   ar
    37    36    34    1
    38    15     9   ar
    39    13    16    1
    40    13    17    1
@<TRIPOS>MOLECULE
*****
 36 40 0 0 0
SMALL
GASTEIGER

@<TRIPOS>ATOM
      1 C           2.1628    1.8257   27.3294 C.3     1  UNL1        0.0744
      2 C           3.6009    2.2501   27.3699 C.3     1  UNL1        0.0121
      3 C           2.4273    1.0491   26.0736 C.ar    1  UNL1       -0.0159
      4 C           1.8922    1.5403   24.7612 C.ar    1  UNL1       -0.0039
      5 C           2.1568    0.7636   23.5055 C.ar    1  UNL1       -0.0002
      6 C           2.9565   -0.5042   23.5622 C.ar    1  UNL1        0.0030
      7 C           3.4916   -0.9953   24.8746 C.ar    1  UNL1       -0.0002
      8 C           3.2270   -0.2187   26.1303 C.ar    1  UNL1       -0.0039
      9 C           3.2211   -1.2808   22.3064 C.ar    1  UNL1        0.0384
     10 C           4.1914   -2.4245   22.3223 C.ar    1  UNL1        0.1033
     11 N           4.4560   -3.2012   21.0666 N.ar    1  UNL1       -0.2125
     12 C           3.7502   -2.8340   19.7949 C.ar    1  UNL1        0.2137
     13 N           4.0147   -3.6106   18.5392 N.pl3   1  UNL1       -0.3274
     14 N           2.7798   -1.6902   19.7791 N.ar    1  UNL1       -0.2125
     15 C           2.5153   -0.9136   21.0348 C.ar    1  UNL1        0.1033
     16 H           4.6516   -4.3613   18.5496 H       1  UNL1        0.1452
     17 H           3.5515   -3.3696   17.7046 H       1  UNL1        0.1452
     18 C           1.7355    3.2185   30.9270 C.ar    1  UNL1        0.2628
     19 N           2.1380    2.1221   29.9857 N.ar    1  UNL1       -0.1907
     20 C           1.8982    2.6023   28.5851 C.ar    1  UNL1        0.1837
     21 N           1.3475    3.9956   28.6606 N.ar    1  UNL1       -0.0599
     22 O           1.2469    4.3764   30.1080 O.2     1  UNL1       -0.3326
     23 N           1.7062    3.8034   34.7639 N.ar    1  UNL1       -0.2399
     24 C           1.5038    4.2966   33.3619 C.ar    1  UNL1        0.1019
     25 C           1.8086    3.1662   32.4243 C.ar    1  UNL1        0.0956
     26 C           2.1994    1.9743   33.2468 C.ar    1  UNL1        0.1264
     27 N           2.1361    2.3680   34.6928 N.ar    1  UNL1       -0.1670
     28 C           1.5127    4.6047   36.0172 C.3     1  UNL1        0.2121
     29 C           3.5154    3.6443   39.3060 C.3     1  UNL1        0.1150
     30 N           3.1856    4.2465   37.9723 N.am    1  UNL1       -0.2744
     31 C           4.1991    5.0924   37.2601 C.3     1  UNL1        0.1150
     32 C           1.8424    4.0026   37.3508 C.2     1  UNL1        0.2506
     33 O           0.8289    3.1566   38.0630 O.2     1  UNL1       -0.2727
     34 C           0.7246    1.4014   27.2889 C.3     1  UNL1        0.0106
     35 C          -0.3914    0.5425   27.8054 C.3     1  UNL1        0.0008
     36 C          -0.6503    1.5253   26.7022 C.3     1  UNL1        0.0008
@<TRIPOS>BOND
     1    29    30    1
     2    30    31    1
     3    30    32   am
     4    32    33    2
     5    32    28    1
     6    28    23    1
     7    23    24   ar
     8    24    25   ar
     9    25    18    1
    10    18    19   ar
    11    19    20   ar
    12    20     1    1
    13     1     2    1
    14     1     3    1
    15     3     4   ar
    16     4     5   ar
    17     5     6   ar
    18     6     9    1
    19     9    10   ar
    20    10    11   ar
    21    11    12   ar
    22    12    13    1
    23    12    14   ar
    24    14    15   ar
    25     6     7   ar
    26     7     8   ar
    27     1    34    1
    28    34    35    1
    29    35    36    1
    30    20    21   ar
    31    21    22   ar
    32    25    26   ar
    33    26    27   ar
    34    27    23   ar
    35    22    18   ar
    36     8     3   ar
    37    36    34    1
    38    15     9   ar
    39    13    16    1
    40    13    17    1
