@<TRIPOS>MOLECULE
*****
 41 45 0 0 0
SMALL
GASTEIGER

@<TRIPOS>ATOM
      1 C           0.0640    2.2187   19.5898 C.ar    1  UNL1        0.0208
      2 C           0.5207    2.8975   18.3325 C.ar    1  UNL1        0.1021
      3 N          -0.3736    3.8883   17.6479 N.ar    1  UNL1       -0.2090
      4 C          -1.7245    4.2003   18.2205 C.ar    1  UNL1        0.2400
      5 C          -2.1811    3.5215   19.4778 C.ar    1  UNL1        0.1178
      6 C          -1.2868    2.5307   20.1624 C.ar    1  UNL1        0.0221
      7 C           3.8922   -1.6339   23.8031 C.ar    1  UNL1        0.2167
      8 N           3.2493   -0.5328   24.5931 N.ar    1  UNL1       -0.2182
      9 C           2.3551    0.4580   23.9084 C.ar    1  UNL1        0.0638
     10 C           1.7122    1.5592   24.6985 C.3     1  UNL1        0.0522
     11 C           2.1038    0.3476   22.4338 C.ar    1  UNL1        0.0344
     12 C           1.2095    1.3384   21.7491 C.ar    1  UNL1        0.0029
     13 C           0.9582    1.2280   20.2745 C.ar    1  UNL1        0.0047
     14 C           1.6011    0.1268   19.4844 C.ar    1  UNL1        0.0385
     15 C           2.4953   -0.8640   20.1691 C.ar    1  UNL1        0.1561
     16 C           2.7466   -0.7536   21.6438 C.ar    1  UNL1        0.1191
     17 N           3.6409   -1.7443   22.3285 N.ar    1  UNL1       -0.2107
     18 C           5.6632   -3.5306   23.6750 C.3     1  UNL1        0.1108
     19 N           4.7864   -2.6247   24.4878 N.pl3   1  UNL1       -0.3013
     20 H           4.7979   -2.6804   25.4706 H       1  UNL1        0.1497
     21 O           3.1382   -1.9651   19.3791 O.3     1  UNL1       -0.4750
     22 C           4.4141   -1.7071   18.6336 C.3     1  UNL1        0.1979
     23 C           4.9386   -0.3633   18.2225 C.3     1  UNL1        0.0782
     24 C           6.2381   -0.5732   17.5032 C.3     1  UNL1        0.1461
     25 O           6.5167   -2.0468   17.4699 O.3     1  UNL1       -0.3498
     26 C           5.3894   -2.7475   18.1685 C.3     1  UNL1        0.1855
     27 O          -2.6187    5.1910   17.5359 O.3     1  UNL1       -0.4553
     28 C          -3.6346    4.7199   16.5378 C.3     1  UNL1        0.2543
     29 N          -3.5319    3.8335   20.0503 N.pl3   1  UNL1       -0.2104
     30 H          -4.2915    4.0126   19.4502 H       1  UNL1        0.1739
     31 S          -3.7254    3.8725   21.5374 S.O2    1  UNL1        0.0759
     32 O          -2.9730    5.1686   21.6012 O.2     1  UNL1       -0.1499
     33 O          -4.4777    2.5764   21.4735 O.2     1  UNL1       -0.1499
     34 C          -3.9189    3.9116   23.0243 C.ar    1  UNL1        0.1526
     35 C          -5.2553    4.2799   23.5973 C.ar    1  UNL1        0.0248
     36 C          -5.4488    4.3190   25.0842 C.ar    1  UNL1        0.0312
     37 C          -4.3059    3.9897   25.9982 C.ar    1  UNL1        0.1425
     38 F          -4.4994    4.0288   27.4851 F       1  UNL1       -0.2041
     39 C          -2.9695    3.6214   25.4252 C.ar    1  UNL1        0.0606
     40 C          -2.7760    3.5823   23.9382 C.ar    1  UNL1        0.1611
     41 F          -1.4396    3.2140   23.3653 F       1  UNL1       -0.2027
@<TRIPOS>BOND
     1    18    19    1
     2    19     7    1
     3     7     8   ar
     4     8     9   ar
     5     9    10    1
     6     9    11   ar
     7    11    12   ar
     8    12    13   ar
     9    13     1    1
    10     1     2   ar
    11     2     3   ar
    12     3     4   ar
    13     4    27    1
    14    27    28    1
    15     4     5   ar
    16     5    29    1
    17    29    31    1
    18    31    32    2
    19    31    33    2
    20    31    34    1
    21    34    35   ar
    22    35    36   ar
    23    36    37   ar
    24    37    38    1
    25    37    39   ar
    26    39    40   ar
    27    40    41    1
    28     5     6   ar
    29    13    14   ar
    30    14    15   ar
    31    15    21    1
    32    22    21    1
    33    22    23    1
    34    23    24    1
    35    24    25    1
    36    25    26    1
    37    15    16   ar
    38    16    17   ar
    39    17     7   ar
    40    16    11   ar
    41     6     1   ar
    42    26    22    1
    43    40    34   ar
    44    19    20    1
    45    29    30    1
@<TRIPOS>MOLECULE
*****
 41 45 0 0 0
SMALL
GASTEIGER

@<TRIPOS>ATOM
      1 C           0.2666    2.1838   23.6711 C.ar    1  UNL1        0.0208
      2 C          -1.0221    2.9331   23.8387 C.ar    1  UNL1        0.1021
      3 N          -1.6978    3.5394   22.6446 N.ar    1  UNL1       -0.2090
      4 C          -1.0849    3.3964   21.2830 C.ar    1  UNL1        0.2400
      5 C           0.2037    2.6471   21.1155 C.ar    1  UNL1        0.1178
      6 C           0.8794    2.0408   22.3096 C.ar    1  UNL1        0.0221
      7 C           2.1957   -0.4682   29.7122 C.ar    1  UNL1        0.2167
      8 N           0.7463   -0.0887   29.7830 N.ar    1  UNL1       -0.2182
      9 C           0.0706    0.5176   28.5889 C.ar    1  UNL1        0.0638
     10 C          -1.3790    0.8970   28.6597 C.3     1  UNL1        0.0522
     11 C           0.8443    0.7444   27.3241 C.ar    1  UNL1        0.0344
     12 C           0.1686    1.3507   26.1300 C.ar    1  UNL1        0.0029
     13 C           0.9423    1.5775   24.8652 C.ar    1  UNL1        0.0047
     14 C           2.3918    1.1981   24.7944 C.ar    1  UNL1        0.0385
     15 C           3.0676    0.5918   25.9885 C.ar    1  UNL1        0.1561
     16 C           2.2937    0.3650   27.2533 C.ar    1  UNL1        0.1191
     17 N           2.9695   -0.2413   28.4474 N.ar    1  UNL1       -0.2107
     18 C           3.4004   -0.1915   31.9975 C.3     1  UNL1        0.1108
     19 N           2.8715   -1.0745   30.9063 N.pl3   1  UNL1       -0.3013
     20 H           2.9678   -2.0519   30.9739 H       1  UNL1        0.1497
     21 O           4.5170    0.2123   25.9177 O.3     1  UNL1       -0.4750
     22 C           4.9239   -1.0770   25.2680 C.3     1  UNL1        0.1979
     23 C           4.3670   -1.6355   23.9921 C.3     1  UNL1        0.0782
     24 C           5.0580   -2.9379   23.7156 C.3     1  UNL1        0.1461
     25 O           6.0421   -3.1842   24.8207 O.3     1  UNL1       -0.3498
     26 C           5.9591   -2.0341   25.7801 C.3     1  UNL1        0.1855
     27 O          -1.7606    4.0027   20.0889 O.3     1  UNL1       -0.4553
     28 C          -3.1688    3.6152   19.7469 C.3     1  UNL1        0.2543
     29 N           0.8165    2.5041   19.7539 N.pl3   1  UNL1       -0.2104
     30 H           0.6641    3.1960   19.0704 H       1  UNL1        0.1739
     31 S           1.6616    1.3069   19.4338 S.O2    1  UNL1        0.0759
     32 O           2.9008    2.1284   19.6326 O.2     1  UNL1       -0.1499
     33 O           0.4225    0.4853   19.2349 O.2     1  UNL1       -0.1499
     34 C           2.5068    0.1097   19.1136 C.ar    1  UNL1        0.1526
     35 C           3.1698   -0.0035   17.7729 C.ar    1  UNL1        0.0248
     36 C           4.0149   -1.2006   17.4527 C.ar    1  UNL1        0.0312
     37 C           4.1970   -2.2847   18.4733 C.ar    1  UNL1        0.1425
     38 F           5.0421   -3.4819   18.1532 F       1  UNL1       -0.2041
     39 C           3.5340   -2.1716   19.8141 C.ar    1  UNL1        0.0606
     40 C           2.6889   -0.9744   20.1343 C.ar    1  UNL1        0.1611
     41 F           2.0259   -0.8613   21.4750 F       1  UNL1       -0.2027
@<TRIPOS>BOND
     1    18    19    1
     2    19     7    1
     3     7     8   ar
     4     8     9   ar
     5     9    10    1
     6     9    11   ar
     7    11    12   ar
     8    12    13   ar
     9    13     1    1
    10     1     2   ar
    11     2     3   ar
    12     3     4   ar
    13     4    27    1
    14    27    28    1
    15     4     5   ar
    16     5    29    1
    17    29    31    1
    18    31    32    2
    19    31    33    2
    20    31    34    1
    21    34    35   ar
    22    35    36   ar
    23    36    37   ar
    24    37    38    1
    25    37    39   ar
    26    39    40   ar
    27    40    41    1
    28     5     6   ar
    29    13    14   ar
    30    14    15   ar
    31    15    21    1
    32    22    21    1
    33    22    23    1
    34    23    24    1
    35    24    25    1
    36    25    26    1
    37    15    16   ar
    38    16    17   ar
    39    17     7   ar
    40    16    11   ar
    41     6     1   ar
    42    26    22    1
    43    40    34   ar
    44    19    20    1
    45    29    30    1
@<TRIPOS>MOLECULE
*****
 41 45 0 0 0
SMALL
GASTEIGER

@<TRIPOS>ATOM
      1 C           6.8524   -2.7922   21.4022 C.ar    1  UNL1        0.0208
      2 C           8.1274   -2.5991   20.6360 C.ar    1  UNL1        0.1021
      3 N           8.0866   -2.0685   19.2335 N.ar    1  UNL1       -0.2090
      4 C           6.7707   -1.7310   18.5973 C.ar    1  UNL1        0.2400
      5 C           5.4958   -1.9241   19.3636 C.ar    1  UNL1        0.1178
      6 C           5.5366   -2.4547   20.7660 C.ar    1  UNL1        0.0221
      7 C           7.5918   -6.2727   27.2834 C.ar    1  UNL1        0.2167
      8 N           8.1270   -7.1002   26.1526 N.ar    1  UNL1       -0.2182
      9 C           8.0862   -6.5695   24.7502 C.ar    1  UNL1        0.0638
     10 C           8.6215   -7.3971   23.6193 C.3     1  UNL1        0.0522
     11 C           7.5101   -5.2115   24.4786 C.ar    1  UNL1        0.0344
     12 C           7.4693   -4.6809   23.0762 C.ar    1  UNL1        0.0029
     13 C           6.8932   -3.3228   22.8046 C.ar    1  UNL1        0.0047
     14 C           6.3579   -2.4953   23.9355 C.ar    1  UNL1        0.0385
     15 C           6.3988   -3.0259   25.3379 C.ar    1  UNL1        0.1561
     16 C           6.9749   -4.3841   25.6094 C.ar    1  UNL1        0.1191
     17 N           7.0157   -4.9147   27.0119 N.ar    1  UNL1       -0.2107
     18 C           7.2516   -5.9171   29.8345 C.3     1  UNL1        0.1108
     19 N           7.6326   -6.8034   28.6859 N.pl3   1  UNL1       -0.3013
     20 H           7.9094   -7.7333   28.8524 H       1  UNL1        0.1497
     21 O           5.8635   -2.1985   26.4687 O.3     1  UNL1       -0.4750
     22 C           5.0351   -0.9816   26.1810 C.3     1  UNL1        0.1979
     23 C           3.6264   -0.9757   25.6655 C.3     1  UNL1        0.0782
     24 C           3.1905    0.4526   25.5242 C.3     1  UNL1        0.1461
     25 O           4.3298    1.3295   25.9524 O.3     1  UNL1       -0.3498
     26 C           5.4697    0.4431   26.3583 C.3     1  UNL1        0.1855
     27 O           6.7299   -1.2004   17.1949 O.3     1  UNL1       -0.4553
     28 C           6.7211    0.2801   16.9531 C.3     1  UNL1        0.2543
     29 N           4.1800   -1.5866   18.7274 N.pl3   1  UNL1       -0.2104
     30 H           3.9723   -1.9143   17.8226 H       1  UNL1        0.1739
     31 S           3.1807   -0.7498   19.4698 S.O2    1  UNL1        0.0759
     32 O           3.9856    0.4793   19.1679 O.2     1  UNL1       -0.1499
     33 O           2.3757   -1.9789   19.7718 O.2     1  UNL1       -0.1499
     34 C           2.1814    0.0870   20.2122 C.ar    1  UNL1        0.1526
     35 C           2.2948    0.2476   21.6993 C.ar    1  UNL1        0.0248
     36 C           1.2955    1.0844   22.4416 C.ar    1  UNL1        0.0312
     37 C           0.1828    1.7607   21.6970 C.ar    1  UNL1        0.1425
     38 F          -0.8165    2.5975   22.4393 F       1  UNL1       -0.2041
     39 C           0.0694    1.6002   20.2099 C.ar    1  UNL1        0.0606
     40 C           1.0687    0.7633   19.4675 C.ar    1  UNL1        0.1611
     41 F           0.9553    0.6028   17.9805 F       1  UNL1       -0.2027
@<TRIPOS>BOND
     1    18    19    1
     2    19     7    1
     3     7     8   ar
     4     8     9   ar
     5     9    10    1
     6     9    11   ar
     7    11    12   ar
     8    12    13   ar
     9    13     1    1
    10     1     2   ar
    11     2     3   ar
    12     3     4   ar
    13     4    27    1
    14    27    28    1
    15     4     5   ar
    16     5    29    1
    17    29    31    1
    18    31    32    2
    19    31    33    2
    20    31    34    1
    21    34    35   ar
    22    35    36   ar
    23    36    37   ar
    24    37    38    1
    25    37    39   ar
    26    39    40   ar
    27    40    41    1
    28     5     6   ar
    29    13    14   ar
    30    14    15   ar
    31    15    21    1
    32    22    21    1
    33    22    23    1
    34    23    24    1
    35    24    25    1
    36    25    26    1
    37    15    16   ar
    38    16    17   ar
    39    17     7   ar
    40    16    11   ar
    41     6     1   ar
    42    26    22    1
    43    40    34   ar
    44    19    20    1
    45    29    30    1
@<TRIPOS>MOLECULE
*****
 41 45 0 0 0
SMALL
GASTEIGER

@<TRIPOS>ATOM
      1 C           0.2380    1.3983   27.0024 C.ar    1  UNL1        0.0208
      2 C          -0.5926    1.1279   28.2220 C.ar    1  UNL1        0.1021
      3 N           0.0274    0.4754   29.4219 N.ar    1  UNL1       -0.2090
      4 C           1.4778    0.0932   29.4024 C.ar    1  UNL1        0.2400
      5 C           2.3082    0.3636   28.1829 C.ar    1  UNL1        0.1178
      6 C           1.6883    1.0161   26.9829 C.ar    1  UNL1        0.0221
      7 C          -3.5730    4.6889   22.3228 C.ar    1  UNL1        0.2167
      8 N          -4.2843    4.7169   23.6431 N.ar    1  UNL1       -0.2182
      9 C          -3.6644    4.0644   24.8431 C.ar    1  UNL1        0.0638
     10 C          -4.3759    4.0925   26.1634 C.3     1  UNL1        0.0522
     11 C          -2.3331    3.3839   24.7228 C.ar    1  UNL1        0.0344
     12 C          -1.7132    2.7313   25.9227 C.ar    1  UNL1        0.0029
     13 C          -0.3820    2.0508   25.8025 C.ar    1  UNL1        0.0047
     14 C           0.3295    2.0227   24.4821 C.ar    1  UNL1        0.0385
     15 C          -0.2904    2.6753   23.2822 C.ar    1  UNL1        0.1561
     16 C          -1.6218    3.3558   23.4025 C.ar    1  UNL1        0.1191
     17 N          -2.2417    4.0083   22.2025 N.ar    1  UNL1       -0.2107
     18 C          -4.7100    6.7463   21.2164 C.3     1  UNL1        0.1108
     19 N          -4.1929    5.3414   21.1229 N.pl3   1  UNL1       -0.3013
     20 H          -4.2604    4.8476   20.2739 H       1  UNL1        0.1497
     21 O           0.4209    2.6472   21.9619 O.3     1  UNL1       -0.4750
     22 C           0.9127    1.3452   21.4024 C.3     1  UNL1        0.1979
     23 C           2.2585    0.7311   21.6507 C.3     1  UNL1        0.0782
     24 C           2.3225   -0.5649   20.8981 C.3     1  UNL1        0.1461
     25 O           1.0162   -0.7517   20.1847 O.3     1  UNL1       -0.3498
     26 C           0.1449    0.4288   20.4964 C.3     1  UNL1        0.1855
     27 O           2.0977   -0.5593   30.6023 O.3     1  UNL1       -0.4553
     28 C           2.8576    0.2675   31.5969 C.3     1  UNL1        0.2543
     29 N           3.7585   -0.0185   28.1633 N.pl3   1  UNL1       -0.2104
     30 H           4.3548    0.2753   28.8895 H       1  UNL1        0.1739
     31 S           4.3004   -0.8484   27.0373 S.O2    1  UNL1        0.0759
     32 O           3.5010   -2.0229   27.5183 O.2     1  UNL1       -0.1499
     33 O           5.0999    0.3261   26.5564 O.2     1  UNL1       -0.1499
     34 C           4.8423   -1.6782   25.9114 C.ar    1  UNL1        0.1526
     35 C           6.0894   -2.4880   26.1092 C.ar    1  UNL1        0.0248
     36 C           6.6312   -3.3179   24.9833 C.ar    1  UNL1        0.0312
     37 C           5.9260   -3.3379   23.6595 C.ar    1  UNL1        0.1425
     38 F           6.4678   -4.1678   22.5336 F       1  UNL1       -0.2041
     39 C           4.6790   -2.5282   23.4617 C.ar    1  UNL1        0.0606
     40 C           4.1371   -1.6983   24.5877 C.ar    1  UNL1        0.1611
     41 F           2.8901   -0.8885   24.3898 F       1  UNL1       -0.2027
@<TRIPOS>BOND
     1    18    19    1
     2    19     7    1
     3     7     8   ar
     4     8     9   ar
     5     9    10    1
     6     9    11   ar
     7    11    12   ar
     8    12    13   ar
     9    13     1    1
    10     1     2   ar
    11     2     3   ar
    12     3     4   ar
    13     4    27    1
    14    27    28    1
    15     4     5   ar
    16     5    29    1
    17    29    31    1
    18    31    32    2
    19    31    33    2
    20    31    34    1
    21    34    35   ar
    22    35    36   ar
    23    36    37   ar
    24    37    38    1
    25    37    39   ar
    26    39    40   ar
    27    40    41    1
    28     5     6   ar
    29    13    14   ar
    30    14    15   ar
    31    15    21    1
    32    22    21    1
    33    22    23    1
    34    23    24    1
    35    24    25    1
    36    25    26    1
    37    15    16   ar
    38    16    17   ar
    39    17     7   ar
    40    16    11   ar
    41     6     1   ar
    42    26    22    1
    43    40    34   ar
    44    19    20    1
    45    29    30    1
@<TRIPOS>MOLECULE
*****
 41 45 0 0 0
SMALL
GASTEIGER

@<TRIPOS>ATOM
      1 C           6.5068   -3.3580   23.5466 C.ar    1  UNL1        0.0208
      2 C           7.8072   -3.4101   22.8006 C.ar    1  UNL1        0.1021
      3 N           7.8141   -3.3632   21.3014 N.ar    1  UNL1       -0.2090
      4 C           6.5207   -3.2643   20.5481 C.ar    1  UNL1        0.2400
      5 C           5.2204   -3.2122   21.2941 C.ar    1  UNL1        0.1178
      6 C           5.2135   -3.2591   22.7934 C.ar    1  UNL1        0.0221
      7 C           6.8450   -4.8138   30.2560 C.ar    1  UNL1        0.2167
      8 N           7.2178   -6.0352   29.4692 N.ar    1  UNL1       -0.2182
      9 C           7.2247   -5.9883   27.9700 C.ar    1  UNL1        0.0638
     10 C           7.5975   -7.2098   27.1831 C.3     1  UNL1        0.0522
     11 C           6.8589   -4.7201   27.2575 C.ar    1  UNL1        0.0344
     12 C           6.8658   -4.6732   25.7583 C.ar    1  UNL1        0.0029
     13 C           6.4999   -3.4049   25.0459 C.ar    1  UNL1        0.0047
     14 C           6.1271   -2.1834   25.8327 C.ar    1  UNL1        0.0385
     15 C           6.1202   -2.2303   27.3320 C.ar    1  UNL1        0.1561
     16 C           6.4861   -3.4987   28.0444 C.ar    1  UNL1        0.1191
     17 N           6.4792   -3.5455   29.5436 N.ar    1  UNL1       -0.2107
     18 C           6.3576   -3.6764   32.5405 C.3     1  UNL1        0.1108
     19 N           6.8381   -4.8607   31.7553 N.pl3   1  UNL1       -0.3013
     20 H           7.1489   -5.6688   32.2240 H       1  UNL1        0.1497
     21 O           5.7475   -1.0089   28.1188 O.3     1  UNL1       -0.4750
     22 C           4.3470   -0.8450   28.6308 C.3     1  UNL1        0.1979
     23 C           3.1061   -0.7603   27.7923 C.3     1  UNL1        0.0782
     24 C           1.9338   -0.5999   28.7143 C.3     1  UNL1        0.1461
     25 O           2.4503   -0.5855   30.1226 O.3     1  UNL1       -0.3498
     26 C           3.9417   -0.7370   30.0709 C.3     1  UNL1        0.1855
     27 O           6.5276   -3.2174   19.0489 O.3     1  UNL1       -0.4553
     28 C           7.0132   -1.9883   18.3392 C.3     1  UNL1        0.2543
     29 N           3.9271   -3.1133   20.5409 N.pl3   1  UNL1       -0.2104
     30 H           3.3875   -3.9211   20.3811 H       1  UNL1        0.1739
     31 S           3.4558   -1.7835   20.0311 S.O2    1  UNL1        0.0759
     32 O           3.5286   -2.2974   18.6238 O.2     1  UNL1       -0.1499
     33 O           3.3831   -1.2697   21.4384 O.2     1  UNL1       -0.1499
     34 C           2.9846   -0.4539   19.5213 C.ar    1  UNL1        0.1526
     35 C           3.9639    0.5063   18.9136 C.ar    1  UNL1        0.0248
     36 C           3.4927    1.8359   18.4038 C.ar    1  UNL1        0.0312
     37 C           2.0422    2.2055   18.5016 C.ar    1  UNL1        0.1425
     38 F           1.5710    3.5351   17.9918 F       1  UNL1       -0.2041
     39 C           1.0630    1.2454   19.1092 C.ar    1  UNL1        0.0606
     40 C           1.5342   -0.0843   19.6191 C.ar    1  UNL1        0.1611
     41 F           0.5549   -1.0444   20.2267 F       1  UNL1       -0.2027
@<TRIPOS>BOND
     1    18    19    1
     2    19     7    1
     3     7     8   ar
     4     8     9   ar
     5     9    10    1
     6     9    11   ar
     7    11    12   ar
     8    12    13   ar
     9    13     1    1
    10     1     2   ar
    11     2     3   ar
    12     3     4   ar
    13     4    27    1
    14    27    28    1
    15     4     5   ar
    16     5    29    1
    17    29    31    1
    18    31    32    2
    19    31    33    2
    20    31    34    1
    21    34    35   ar
    22    35    36   ar
    23    36    37   ar
    24    37    38    1
    25    37    39   ar
    26    39    40   ar
    27    40    41    1
    28     5     6   ar
    29    13    14   ar
    30    14    15   ar
    31    15    21    1
    32    22    21    1
    33    22    23    1
    34    23    24    1
    35    24    25    1
    36    25    26    1
    37    15    16   ar
    38    16    17   ar
    39    17     7   ar
    40    16    11   ar
    41     6     1   ar
    42    26    22    1
    43    40    34   ar
    44    19    20    1
    45    29    30    1
@<TRIPOS>MOLECULE
*****
 41 45 0 0 0
SMALL
GASTEIGER

@<TRIPOS>ATOM
      1 C           5.2922   -2.6699   24.3147 C.ar    1  UNL1        0.0208
      2 C           5.5062   -3.5613   23.1273 C.ar    1  UNL1        0.1021
      3 N           6.5404   -4.6464   23.1809 N.ar    1  UNL1       -0.2090
      4 C           7.3606   -4.8402   24.4218 C.ar    1  UNL1        0.2400
      5 C           7.1466   -3.9488   25.6090 C.ar    1  UNL1        0.1178
      6 C           6.1124   -2.8636   25.5555 C.ar    1  UNL1        0.0221
      7 C           0.4334    1.9561   22.8170 C.ar    1  UNL1        0.2167
      8 N           0.7457    1.1562   21.5871 N.ar    1  UNL1       -0.2182
      9 C           1.7799    0.0710   21.6407 C.ar    1  UNL1        0.0638
     10 C           2.0920   -0.7289   20.4107 C.3     1  UNL1        0.0522
     11 C           2.5018   -0.2143   22.9241 C.ar    1  UNL1        0.0344
     12 C           3.5360   -1.2994   22.9777 C.ar    1  UNL1        0.0029
     13 C           4.2580   -1.5847   24.2611 C.ar    1  UNL1        0.0047
     14 C           3.9458   -0.7848   25.4911 C.ar    1  UNL1        0.0385
     15 C           2.9116    0.3003   25.4375 C.ar    1  UNL1        0.1561
     16 C           2.1896    0.5856   24.1540 C.ar    1  UNL1        0.1191
     17 N           1.1554    1.6708   24.1004 N.ar    1  UNL1       -0.2107
     18 C          -1.3850    3.2684   21.5052 C.3     1  UNL1        0.1108
     19 N          -0.6008    3.0412   22.7634 N.pl3   1  UNL1       -0.3013
     20 H          -0.7648    3.6043   23.5541 H       1  UNL1        0.1497
     21 O           2.5994    1.1002   26.6674 O.3     1  UNL1       -0.4750
     22 C           1.5098    0.6531   27.5964 C.3     1  UNL1        0.1979
     23 C           0.0486    0.9608   27.4541 C.3     1  UNL1        0.0782
     24 C          -0.6743    0.3176   28.6004 C.3     1  UNL1        0.1461
     25 O           0.3403   -0.3875   29.4511 O.3     1  UNL1       -0.3498
     26 C           1.6901   -0.1802   28.8305 C.3     1  UNL1        0.1855
     27 O           8.3948   -5.9253   24.4754 O.3     1  UNL1       -0.4553
     28 C           8.0355   -7.2779   25.0155 C.3     1  UNL1        0.2543
     29 N           7.9669   -4.1426   26.8498 N.pl3   1  UNL1       -0.2104
     30 H           8.8781   -4.5095   26.7852 H       1  UNL1        0.1739
     31 S           7.3987   -3.7772   28.1892 S.O2    1  UNL1        0.0759
     32 O           6.4331   -4.9209   28.0915 O.2     1  UNL1       -0.1499
     33 O           8.3642   -2.6335   28.2869 O.2     1  UNL1       -0.1499
     34 C           6.8305   -3.4119   29.5284 C.ar    1  UNL1        0.1526
     35 C           5.9884   -2.1792   29.6750 C.ar    1  UNL1        0.0248
     36 C           5.4202   -1.8139   31.0143 C.ar    1  UNL1        0.0312
     37 C           5.6941   -2.6812   32.2070 C.ar    1  UNL1        0.1425
     38 F           5.1259   -2.3159   33.5463 F       1  UNL1       -0.2041
     39 C           6.5361   -3.9139   32.0605 C.ar    1  UNL1        0.0606
     40 C           7.1044   -4.2793   30.7212 C.ar    1  UNL1        0.1611
     41 F           7.9464   -5.5119   30.5747 F       1  UNL1       -0.2027
@<TRIPOS>BOND
     1    18    19    1
     2    19     7    1
     3     7     8   ar
     4     8     9   ar
     5     9    10    1
     6     9    11   ar
     7    11    12   ar
     8    12    13   ar
     9    13     1    1
    10     1     2   ar
    11     2     3   ar
    12     3     4   ar
    13     4    27    1
    14    27    28    1
    15     4     5   ar
    16     5    29    1
    17    29    31    1
    18    31    32    2
    19    31    33    2
    20    31    34    1
    21    34    35   ar
    22    35    36   ar
    23    36    37   ar
    24    37    38    1
    25    37    39   ar
    26    39    40   ar
    27    40    41    1
    28     5     6   ar
    29    13    14   ar
    30    14    15   ar
    31    15    21    1
    32    22    21    1
    33    22    23    1
    34    23    24    1
    35    24    25    1
    36    25    26    1
    37    15    16   ar
    38    16    17   ar
    39    17     7   ar
    40    16    11   ar
    41     6     1   ar
    42    26    22    1
    43    40    34   ar
    44    19    20    1
    45    29    30    1
@<TRIPOS>MOLECULE
*****
 41 45 0 0 0
SMALL
GASTEIGER

@<TRIPOS>ATOM
      1 C           0.4595    1.5291   24.4010 C.ar    1  UNL1        0.0208
      2 C          -0.1341    2.7609   23.7842 C.ar    1  UNL1        0.1021
      3 N          -1.0742    3.6187   24.5782 N.ar    1  UNL1       -0.2090
      4 C          -1.4206    3.2447   25.9890 C.ar    1  UNL1        0.2400
      5 C          -0.8270    2.0129   26.6056 C.ar    1  UNL1        0.1178
      6 C           0.1130    1.1551   25.8116 C.ar    1  UNL1        0.0221
      7 C           4.0991   -1.9631   19.7310 C.ar    1  UNL1        0.2167
      8 N           3.0384   -1.1662   19.0312 N.ar    1  UNL1       -0.2182
      9 C           2.0983   -0.3084   19.8252 C.ar    1  UNL1        0.0638
     10 C           1.0375    0.4884   19.1253 C.3     1  UNL1        0.0522
     11 C           2.2190   -0.2475   21.3191 C.ar    1  UNL1        0.0344
     12 C           1.2789    0.6103   22.1131 C.ar    1  UNL1        0.0029
     13 C           1.3996    0.6713   23.6069 C.ar    1  UNL1        0.0047
     14 C           2.4603   -0.1256   24.3069 C.ar    1  UNL1        0.0385
     15 C           3.4004   -0.9834   23.5129 C.ar    1  UNL1        0.1561
     16 C           3.2797   -1.0443   22.0189 C.ar    1  UNL1        0.1191
     17 N           4.2198   -1.9021   21.2249 N.ar    1  UNL1       -0.2107
     18 C           4.7954   -4.2967   18.8260 C.3     1  UNL1        0.1108
     19 N           5.0392   -2.8209   18.9370 N.pl3   1  UNL1       -0.3013
     20 H           5.8162   -2.4152   18.4888 H       1  UNL1        0.1497
     21 O           4.4612   -1.7802   24.2127 O.3     1  UNL1       -0.4750
     22 C           5.0942   -1.2496   25.4649 C.3     1  UNL1        0.1979
     23 C           6.1816   -0.2187   25.5344 C.3     1  UNL1        0.0782
     24 C           6.5105    0.0113   26.9798 C.3     1  UNL1        0.1461
     25 O           5.6263   -0.8775   27.8035 O.3     1  UNL1       -0.3498
     26 C           4.7510   -1.6567   26.8672 C.3     1  UNL1        0.1855
     27 O          -2.3607    4.1025   26.7830 O.3     1  UNL1       -0.4553
     28 C          -3.8429    3.9191   26.6431 C.3     1  UNL1        0.2543
     29 N          -1.1735    1.6389   28.0163 N.pl3   1  UNL1       -0.2104
     30 H          -2.1156    1.6108   28.3009 H       1  UNL1        0.1739
     31 S          -0.0846    1.3078   28.9935 S.O2    1  UNL1        0.0759
     32 O           0.5666    2.6302   28.7159 O.2     1  UNL1       -0.1499
     33 O          -0.7359   -0.0146   29.2711 O.2     1  UNL1       -0.1499
     34 C           1.0042    0.9767   29.9706 C.ar    1  UNL1        0.1526
     35 C           1.1239    1.7497   31.2505 C.ar    1  UNL1        0.0248
     36 C           2.2128    1.4187   32.2276 C.ar    1  UNL1        0.0312
     37 C           3.1819    0.3145   31.9248 C.ar    1  UNL1        0.1425
     38 F           4.2708   -0.0166   32.9019 F       1  UNL1       -0.2041
     39 C           3.0622   -0.4585   30.6450 C.ar    1  UNL1        0.0606
     40 C           1.9734   -0.1274   29.6678 C.ar    1  UNL1        0.1611
     41 F           1.8537   -0.9005   28.3880 F       1  UNL1       -0.2027
@<TRIPOS>BOND
     1    18    19    1
     2    19     7    1
     3     7     8   ar
     4     8     9   ar
     5     9    10    1
     6     9    11   ar
     7    11    12   ar
     8    12    13   ar
     9    13     1    1
    10     1     2   ar
    11     2     3   ar
    12     3     4   ar
    13     4    27    1
    14    27    28    1
    15     4     5   ar
    16     5    29    1
    17    29    31    1
    18    31    32    2
    19    31    33    2
    20    31    34    1
    21    34    35   ar
    22    35    36   ar
    23    36    37   ar
    24    37    38    1
    25    37    39   ar
    26    39    40   ar
    27    40    41    1
    28     5     6   ar
    29    13    14   ar
    30    14    15   ar
    31    15    21    1
    32    22    21    1
    33    22    23    1
    34    23    24    1
    35    24    25    1
    36    25    26    1
    37    15    16   ar
    38    16    17   ar
    39    17     7   ar
    40    16    11   ar
    41     6     1   ar
    42    26    22    1
    43    40    34   ar
    44    19    20    1
    45    29    30    1
@<TRIPOS>MOLECULE
*****
 41 45 0 0 0
SMALL
GASTEIGER

@<TRIPOS>ATOM
      1 C           6.0714   -2.5132   31.5585 C.ar    1  UNL1        0.0208
      2 C           6.4572   -3.7472   32.3192 C.ar    1  UNL1        0.1021
      3 N           7.3193   -4.7892   31.6704 N.ar    1  UNL1       -0.2090
      4 C           7.7955   -4.5974   30.2609 C.ar    1  UNL1        0.2400
      5 C           7.4096   -3.3635   29.5003 C.ar    1  UNL1        0.1178
      6 C           6.5476   -2.3214   30.1491 C.ar    1  UNL1        0.0221
      7 C           2.9243    2.1149   35.5492 C.ar    1  UNL1        0.2167
      8 N           4.0874    1.5326   36.2961 N.ar    1  UNL1       -0.2182
      9 C           4.9495    0.4905   35.6473 C.ar    1  UNL1        0.0638
     10 C           6.1127   -0.0918   36.3943 C.3     1  UNL1        0.0522
     11 C           4.6484    0.0307   34.2517 C.ar    1  UNL1        0.0344
     12 C           5.5104   -1.0113   33.6029 C.ar    1  UNL1        0.0029
     13 C           5.2093   -1.4711   32.2072 C.ar    1  UNL1        0.0047
     14 C           4.0461   -0.8888   31.4603 C.ar    1  UNL1        0.0385
     15 C           3.1840    0.1533   32.1090 C.ar    1  UNL1        0.1561
     16 C           3.4852    0.6131   33.5048 C.ar    1  UNL1        0.1191
     17 N           2.6231    1.6552   34.1535 N.ar    1  UNL1       -0.2107
     18 C           2.0395    3.2877   37.6921 C.3     1  UNL1        0.1108
     19 N           2.0622    3.1570   36.1980 N.pl3   1  UNL1       -0.3013
     20 H           1.5113    3.7552   35.6431 H       1  UNL1        0.1497
     21 O           2.0209    0.7356   31.3622 O.3     1  UNL1       -0.4750
     22 C           2.0729    0.8548   29.8677 C.3     1  UNL1        0.1979
     23 C           2.8152    1.9024   29.0922 C.3     1  UNL1        0.0782
     24 C           2.5928    1.6423   27.6316 C.3     1  UNL1        0.1461
     25 O           1.7130    0.4340   27.5047 O.3     1  UNL1       -0.3498
     26 C           1.3917   -0.0527   28.8867 C.3     1  UNL1        0.1855
     27 O           8.6575   -5.6395   29.6122 O.3     1  UNL1       -0.4553
     28 C           8.0307   -6.7231   28.7857 C.3     1  UNL1        0.2543
     29 N           7.8858   -3.1717   28.0909 N.pl3   1  UNL1       -0.2104
     30 H           8.8407   -3.2765   27.8754 H       1  UNL1        0.1739
     31 S           6.9071   -2.8202   27.0099 S.O2    1  UNL1        0.0759
     32 O           7.5879   -1.4965   26.8241 O.2     1  UNL1       -0.1499
     33 O           6.2264   -4.1438   27.1956 O.2     1  UNL1       -0.1499
     34 C           5.9285   -2.4686   25.9288 C.ar    1  UNL1        0.1526
     35 C           6.0889   -3.0480   24.5545 C.ar    1  UNL1        0.0248
     36 C           5.1103   -2.6965   23.4735 C.ar    1  UNL1        0.0312
     37 C           3.9713   -1.7655   23.7667 C.ar    1  UNL1        0.1425
     38 F           2.9927   -1.4139   22.6856 F       1  UNL1       -0.2041
     39 C           3.8109   -1.1861   25.1409 C.ar    1  UNL1        0.0606
     40 C           4.7895   -1.5376   26.2220 C.ar    1  UNL1        0.1611
     41 F           4.6291   -0.9582   27.5962 F       1  UNL1       -0.2027
@<TRIPOS>BOND
     1    18    19    1
     2    19     7    1
     3     7     8   ar
     4     8     9   ar
     5     9    10    1
     6     9    11   ar
     7    11    12   ar
     8    12    13   ar
     9    13     1    1
    10     1     2   ar
    11     2     3   ar
    12     3     4   ar
    13     4    27    1
    14    27    28    1
    15     4     5   ar
    16     5    29    1
    17    29    31    1
    18    31    32    2
    19    31    33    2
    20    31    34    1
    21    34    35   ar
    22    35    36   ar
    23    36    37   ar
    24    37    38    1
    25    37    39   ar
    26    39    40   ar
    27    40    41    1
    28     5     6   ar
    29    13    14   ar
    30    14    15   ar
    31    15    21    1
    32    22    21    1
    33    22    23    1
    34    23    24    1
    35    24    25    1
    36    25    26    1
    37    15    16   ar
    38    16    17   ar
    39    17     7   ar
    40    16    11   ar
    41     6     1   ar
    42    26    22    1
    43    40    34   ar
    44    19    20    1
    45    29    30    1
@<TRIPOS>MOLECULE
*****
 41 45 0 0 0
SMALL
GASTEIGER

@<TRIPOS>ATOM
      1 C           2.4241    0.6224   25.4481 C.ar    1  UNL1        0.0208
      2 C           3.1733   -0.1760   26.4734 C.ar    1  UNL1        0.1021
      3 N           2.9558    0.0867   27.9341 N.ar    1  UNL1       -0.2090
      4 C           1.9890    1.1478   28.3695 C.ar    1  UNL1        0.2400
      5 C           1.2399    1.9462   27.3442 C.ar    1  UNL1        0.1178
      6 C           1.4574    1.6835   25.8835 C.ar    1  UNL1        0.0221
      7 C           3.9457   -1.7046   19.1616 C.ar    1  UNL1        0.2167
      8 N           4.3797   -2.7180   20.1787 N.ar    1  UNL1       -0.2182
      9 C           4.1622   -2.4553   21.6394 C.ar    1  UNL1        0.0638
     10 C           4.5962   -3.4689   22.6565 C.3     1  UNL1        0.0522
     11 C           3.5106   -1.1792   22.0830 C.ar    1  UNL1        0.0344
     12 C           3.2931   -0.9165   23.5438 C.ar    1  UNL1        0.0029
     13 C           2.6416    0.3597   23.9874 C.ar    1  UNL1        0.0047
     14 C           2.2076    1.3733   22.9703 C.ar    1  UNL1        0.0385
     15 C           2.4251    1.1106   21.5096 C.ar    1  UNL1        0.1561
     16 C           3.0767   -0.1657   21.0660 C.ar    1  UNL1        0.1191
     17 N           3.2942   -0.4284   19.6053 N.ar    1  UNL1       -0.2107
     18 C           3.8360   -0.9073   16.6914 C.3     1  UNL1        0.1108
     19 N           4.1632   -1.9673   17.7009 N.pl3   1  UNL1       -0.3013
     20 H           4.5208   -2.8355   17.4048 H       1  UNL1        0.1497
     21 O           1.9911    2.1240   20.4925 O.3     1  UNL1       -0.4750
     22 C           0.6900    2.8503   20.6652 C.3     1  UNL1        0.1979
     23 C          -0.6774    2.2726   20.4499 C.3     1  UNL1        0.0782
     24 C          -1.6847    3.3470   20.7352 C.3     1  UNL1        0.1461
     25 O          -0.9396    4.5886   21.1269 O.3     1  UNL1       -0.3498
     26 C           0.5280    4.2816   21.0836 C.3     1  UNL1        0.1855
     27 O           1.7715    1.4106   29.8302 O.3     1  UNL1       -0.4553
     28 C           2.4654    0.5641   30.8560 C.3     1  UNL1        0.2543
     29 N           0.2732    3.0073   27.7796 N.pl3   1  UNL1       -0.2104
     30 H           0.4621    3.5461   28.5816 H       1  UNL1        0.1739
     31 S          -0.9812    3.2475   26.9930 S.O2    1  UNL1        0.0759
     32 O          -1.5141    1.9174   27.4367 O.2     1  UNL1       -0.1499
     33 O          -0.4484    4.5776   26.5492 O.2     1  UNL1       -0.1499
     34 C          -2.2357    3.4876   26.2064 C.ar    1  UNL1        0.1526
     35 C          -3.4861    3.9317   26.9059 C.ar    1  UNL1        0.0248
     36 C          -4.7405    4.1718   26.1194 C.ar    1  UNL1        0.0312
     37 C          -4.7446    3.9679   24.6333 C.ar    1  UNL1        0.1425
     38 F          -5.9990    4.2080   23.8468 F       1  UNL1       -0.2041
     39 C          -3.4943    3.5238   23.9338 C.ar    1  UNL1        0.0606
     40 C          -2.2397    3.2836   24.7204 C.ar    1  UNL1        0.1611
     41 F          -0.9894    2.8396   24.0208 F       1  UNL1       -0.2027
@<TRIPOS>BOND
     1    18    19    1
     2    19     7    1
     3     7     8   ar
     4     8     9   ar
     5     9    10    1
     6     9    11   ar
     7    11    12   ar
     8    12    13   ar
     9    13     1    1
    10     1     2   ar
    11     2     3   ar
    12     3     4   ar
    13     4    27    1
    14    27    28    1
    15     4     5   ar
    16     5    29    1
    17    29    31    1
    18    31    32    2
    19    31    33    2
    20    31    34    1
    21    34    35   ar
    22    35    36   ar
    23    36    37   ar
    24    37    38    1
    25    37    39   ar
    26    39    40   ar
    27    40    41    1
    28     5     6   ar
    29    13    14   ar
    30    14    15   ar
    31    15    21    1
    32    22    21    1
    33    22    23    1
    34    23    24    1
    35    24    25    1
    36    25    26    1
    37    15    16   ar
    38    16    17   ar
    39    17     7   ar
    40    16    11   ar
    41     6     1   ar
    42    26    22    1
    43    40    34   ar
    44    19    20    1
    45    29    30    1
