@<TRIPOS>MOLECULE
*****
 32 34 0 0 0
SMALL
GASTEIGER

@<TRIPOS>ATOM
      1 C          -9.2124  -18.3855   22.6593 C.3     1  UNL1        0.0377
      2 C          -9.8681  -19.1799   21.5689 C.3     1  UNL1        0.0075
      3 C          -9.0541  -19.6818   20.4133 C.3     1  UNL1        0.0219
      4 C          -7.5843  -19.3894   20.3481 C.3     1  UNL1        0.0950
      5 N          -6.9286  -18.5950   21.4385 N.am    1  UNL1       -0.2637
      6 C          -5.4588  -18.3026   21.3733 C.2     1  UNL1        0.3077
      7 O          -4.8031  -17.5082   22.4638 O.2     1  UNL1       -0.2522
      8 N          -4.6447  -18.8045   20.2177 N.am    1  UNL1       -0.2681
      9 C          -7.7426  -18.0931   22.5941 C.3     1  UNL1        0.0989
     10 H          -5.0751  -19.3259   19.5020 H       1  UNL1        0.1564
     11 C          -3.1750  -18.5121   20.1526 C.ar    1  UNL1        0.0516
     12 C          -2.2742  -18.9434   21.2719 C.ar    1  UNL1        0.0156
     13 C          -0.8045  -18.6510   21.2068 C.ar    1  UNL1        0.0127
     14 C          -0.2354  -17.9272   20.0226 C.ar    1  UNL1        0.0578
     15 CL          1.2344  -17.6348   19.9575 Cl      1  UNL1       -0.0822
     16 C          -1.1362  -17.4959   18.9034 C.ar    1  UNL1        0.0127
     17 C          -2.6060  -17.7884   18.9684 C.ar    1  UNL1        0.0156
     18 C         -10.6248  -18.4044   23.1641 C.ar    1  UNL1       -0.0212
     19 C         -11.7365  -17.8845   22.3016 C.ar    1  UNL1       -0.0043
     20 C         -13.1488  -17.9033   22.8065 C.ar    1  UNL1        0.0035
     21 C         -13.4495  -18.4420   24.1737 C.ar    1  UNL1        0.0714
     22 C         -12.3378  -18.9619   25.0362 C.ar    1  UNL1        0.0035
     23 C         -10.9255  -18.9430   24.5314 C.ar    1  UNL1       -0.0043
     24 C         -14.8619  -18.4608   24.6785 C.3     1  UNL1        0.4186
     25 F         -16.2743  -18.4796   25.1834 F       1  UNL1       -0.1659
     26 F         -15.3638  -18.5806   23.2701 F       1  UNL1       -0.1659
     27 F         -14.3601  -18.3411   26.0870 F       1  UNL1       -0.1659
     28 C          -9.0472  -17.5977   23.9250 C.3     1  UNL1        0.0116
     29 C          -8.7850  -16.1222   23.8612 C.3     1  UNL1        0.0421
     30 O          -6.7443  -14.7028   24.6168 O.co2   1  UNL1       -0.5492
     31 C          -8.0003  -15.4521   24.9500 C.2     1  UNL1        0.0503
     32 O          -8.4717  -15.5314   26.3718 O.co2   1  UNL1       -0.5492
@<TRIPOS>UNITY_ATOM_ATTR
30 1
charge -1
@<TRIPOS>BOND
     1    30    31   ar
     2    31    32   ar
     3    31    29    1
     4    29    28    1
     5    28     1    1
     6     1    18    1
     7    18    19   ar
     8    19    20   ar
     9    20    21   ar
    10    21    24    1
    11    24    25    1
    12    24    26    1
    13    24    27    1
    14    21    22   ar
    15    22    23   ar
    16     1     2    1
    17     2     3    1
    18     3     4    1
    19     4     5    1
    20     5     6   am
    21     6     7    2
    22     6     8   am
    23     8    11    1
    24    11    12   ar
    25    12    13   ar
    26    13    14   ar
    27    14    15    1
    28    14    16   ar
    29    16    17   ar
    30     5     9    1
    31     9     1    1
    32    23    18   ar
    33    17    11   ar
    34     8    10    1
@<TRIPOS>MOLECULE
*****
 32 34 0 0 0
SMALL
GASTEIGER

@<TRIPOS>ATOM
      1 C           3.7505   -1.0657   21.6206 C.3     1  UNL1        0.0377
      2 C           3.2539   -0.1705   22.7169 C.3     1  UNL1        0.0075
      3 C           3.6045   -0.4680   24.1447 C.3     1  UNL1        0.0219
      4 C           4.4518   -1.6606   24.4762 C.3     1  UNL1        0.0950
      5 N           4.9484   -2.5558   23.3798 N.am    1  UNL1       -0.2637
      6 C           5.7957   -3.7484   23.7113 C.2     1  UNL1        0.3077
      7 O           6.2922   -4.6435   22.6149 O.2     1  UNL1       -0.2522
      8 N           6.1462   -4.0458   25.1391 N.am    1  UNL1       -0.2681
      9 C           4.5978   -2.2583   21.9520 C.3     1  UNL1        0.0989
     10 H           5.8203   -3.4583   25.8587 H       1  UNL1        0.1564
     11 C           6.9935   -5.2384   25.4704 C.ar    1  UNL1        0.0516
     12 C           6.7574   -5.9956   26.7437 C.ar    1  UNL1        0.0156
     13 C           7.6046   -7.1882   27.0751 C.ar    1  UNL1        0.0127
     14 C           8.6879   -7.6237   26.1333 C.ar    1  UNL1        0.0578
     15 CL          9.5351   -8.8164   26.4647 Cl      1  UNL1       -0.0822
     16 C           8.9239   -6.8666   24.8601 C.ar    1  UNL1        0.0127
     17 C           8.0767   -5.6740   24.5287 C.ar    1  UNL1        0.0156
     18 C           2.9832   -0.0630   20.8107 C.ar    1  UNL1       -0.0212
     19 C           3.5063    1.3342   20.6559 C.ar    1  UNL1       -0.0043
     20 C           2.7390    2.3368   19.8460 C.ar    1  UNL1        0.0035
     21 C           1.4485    1.9422   19.1909 C.ar    1  UNL1        0.0714
     22 C           0.9255    0.5449   19.3457 C.ar    1  UNL1        0.0035
     23 C           1.6928   -0.4577   20.1556 C.ar    1  UNL1       -0.0043
     24 C           0.6812    2.9449   18.3810 C.3     1  UNL1        0.4186
     25 F          -0.0861    3.9475   17.5711 F       1  UNL1       -0.1659
     26 F           1.9694    3.5107   17.8609 F       1  UNL1       -0.1659
     27 F          -0.6069    2.3791   18.9010 F       1  UNL1       -0.1659
     28 C           3.9807   -1.6127   20.2430 C.3     1  UNL1        0.0116
     29 C           5.3793   -1.8184   19.7417 C.3     1  UNL1        0.0421
     30 O           4.9768   -4.0883   18.5435 O.co2   1  UNL1       -0.5492
     31 C           5.6340   -2.7406   18.5863 C.2     1  UNL1        0.0503
     32 O           6.5458   -2.3150   17.4739 O.co2   1  UNL1       -0.5492
@<TRIPOS>UNITY_ATOM_ATTR
30 1
charge -1
@<TRIPOS>BOND
     1    30    31   ar
     2    31    32   ar
     3    31    29    1
     4    29    28    1
     5    28     1    1
     6     1    18    1
     7    18    19   ar
     8    19    20   ar
     9    20    21   ar
    10    21    24    1
    11    24    25    1
    12    24    26    1
    13    24    27    1
    14    21    22   ar
    15    22    23   ar
    16     1     2    1
    17     2     3    1
    18     3     4    1
    19     4     5    1
    20     5     6   am
    21     6     7    2
    22     6     8   am
    23     8    11    1
    24    11    12   ar
    25    12    13   ar
    26    13    14   ar
    27    14    15    1
    28    14    16   ar
    29    16    17   ar
    30     5     9    1
    31     9     1    1
    32    23    18   ar
    33    17    11   ar
    34     8    10    1
@<TRIPOS>MOLECULE
*****
 32 34 0 0 0
SMALL
GASTEIGER

@<TRIPOS>ATOM
      1 C           3.0978   -0.7513   21.6632 C.3     1  UNL1        0.0377
      2 C           2.9558    0.3160   22.7075 C.3     1  UNL1        0.0075
      3 C           3.6316    0.1588   24.0374 C.3     1  UNL1        0.0219
      4 C           4.4494   -1.0659   24.3229 C.3     1  UNL1        0.0950
      5 N           4.5914   -2.1332   23.2786 N.am    1  UNL1       -0.2637
      6 C           5.4092   -3.3579   23.5641 C.2     1  UNL1        0.3077
      7 O           5.5512   -4.4251   22.5197 O.2     1  UNL1       -0.2522
      8 N           6.0851   -3.5151   24.8939 N.am    1  UNL1       -0.2681
      9 C           3.9156   -1.9759   21.9487 C.3     1  UNL1        0.0989
     10 H           5.9919   -2.8146   25.5794 H       1  UNL1        0.1564
     11 C           6.9028   -4.7397   25.1794 C.ar    1  UNL1        0.0516
     12 C           8.0454   -5.1053   24.2787 C.ar    1  UNL1        0.0156
     13 C           8.8631   -6.3298   24.5641 C.ar    1  UNL1        0.0127
     14 C           8.5385   -7.1890   25.7501 C.ar    1  UNL1        0.0578
     15 CL          9.3564   -8.4136   26.0355 Cl      1  UNL1       -0.0822
     16 C           7.3960   -6.8235   26.6507 C.ar    1  UNL1        0.0127
     17 C           6.5782   -5.5988   26.3653 C.ar    1  UNL1        0.0156
     18 C           2.2238    0.2198   20.9260 C.ar    1  UNL1       -0.0212
     19 C           0.7446   -0.0148   20.8446 C.ar    1  UNL1       -0.0043
     20 C          -0.1293    0.9562   20.1074 C.ar    1  UNL1        0.0035
     21 C           0.4762    2.1619   19.4518 C.ar    1  UNL1        0.0714
     22 C           1.9554    2.3965   19.5332 C.ar    1  UNL1        0.0035
     23 C           2.8293    1.4254   20.2704 C.ar    1  UNL1       -0.0043
     24 C          -0.3978    3.1330   18.7146 C.3     1  UNL1        0.4186
     25 F          -1.2717    4.1040   17.9775 F       1  UNL1       -0.1659
     26 F           0.6107    3.1992   17.6062 F       1  UNL1       -0.1659
     27 F          -1.4063    3.0667   19.8230 F       1  UNL1       -0.1659
     28 C           2.9362   -1.4814   20.3628 C.3     1  UNL1        0.0116
     29 C           4.1401   -2.0310   19.6567 C.3     1  UNL1        0.0421
     30 O           3.4943   -0.7065   17.5170 O.co2   1  UNL1       -0.5492
     31 C           4.3897   -1.6840   18.2189 C.2     1  UNL1        0.0503
     32 O           5.5346   -2.3146   17.4831 O.co2   1  UNL1       -0.5492
@<TRIPOS>UNITY_ATOM_ATTR
30 1
charge -1
@<TRIPOS>BOND
     1    30    31   ar
     2    31    32   ar
     3    31    29    1
     4    29    28    1
     5    28     1    1
     6     1    18    1
     7    18    19   ar
     8    19    20   ar
     9    20    21   ar
    10    21    24    1
    11    24    25    1
    12    24    26    1
    13    24    27    1
    14    21    22   ar
    15    22    23   ar
    16     1     2    1
    17     2     3    1
    18     3     4    1
    19     4     5    1
    20     5     6   am
    21     6     7    2
    22     6     8   am
    23     8    11    1
    24    11    12   ar
    25    12    13   ar
    26    13    14   ar
    27    14    15    1
    28    14    16   ar
    29    16    17   ar
    30     5     9    1
    31     9     1    1
    32    23    18   ar
    33    17    11   ar
    34     8    10    1
@<TRIPOS>MOLECULE
*****
 32 34 0 0 0
SMALL
GASTEIGER

@<TRIPOS>ATOM
      1 C           3.4137   -1.0172   21.3681 C.3     1  UNL1        0.0377
      2 C           3.6404   -0.6059   22.7926 C.3     1  UNL1        0.0075
      3 C           2.7932    0.4688   23.4069 C.3     1  UNL1        0.0219
      4 C           1.7193    1.1322   22.5965 C.3     1  UNL1        0.0950
      5 N           1.4926    0.7208   21.1719 N.am    1  UNL1       -0.2637
      6 C           0.4186    1.3841   20.3616 C.2     1  UNL1        0.3077
      7 O           0.1920    0.9727   18.9370 O.2     1  UNL1       -0.2522
      8 N          -0.4286    2.4588   20.9758 N.am    1  UNL1       -0.2681
      9 C           2.3398   -0.3539   20.5577 C.3     1  UNL1        0.0989
     10 H          -0.2798    2.7289   21.9108 H       1  UNL1        0.1564
     11 C          -1.5024    3.1221   20.1654 C.ar    1  UNL1        0.0516
     12 C          -2.9342    3.0367   20.6046 C.ar    1  UNL1        0.0156
     13 C          -4.0081    3.6999   19.7943 C.ar    1  UNL1        0.0127
     14 C          -3.6504    4.4486   18.5446 C.ar    1  UNL1        0.0578
     15 CL         -4.7244    5.1119   17.7342 Cl      1  UNL1       -0.0822
     16 C          -2.2187    4.5340   18.1054 C.ar    1  UNL1        0.0127
     17 C          -1.1447    3.8707   18.9158 C.ar    1  UNL1        0.0156
     18 C           4.5454   -1.9341   21.7270 C.ar    1  UNL1       -0.0212
     19 C           4.3366   -3.0240   22.7362 C.ar    1  UNL1       -0.0043
     20 C           5.4682   -3.9407   23.0950 C.ar    1  UNL1        0.0035
     21 C           6.8088   -3.7675   22.4447 C.ar    1  UNL1        0.0714
     22 C           7.0177   -2.6777   21.4355 C.ar    1  UNL1        0.0035
     23 C           5.8860   -1.7609   21.0767 C.ar    1  UNL1       -0.0043
     24 C           7.9405   -4.6844   22.8036 C.3     1  UNL1        0.4186
     25 F           9.0722   -5.6012   23.1625 F       1  UNL1       -0.1659
     26 F           8.7402   -4.1475   21.6537 F       1  UNL1       -0.1659
     27 F           7.1409   -5.2213   23.9534 F       1  UNL1       -0.1659
     28 C           3.5800   -1.7470   20.0682 C.3     1  UNL1        0.0116
     29 C           3.4955   -0.9980   18.7714 C.3     1  UNL1        0.0421
     30 O           5.3339   -2.5012   17.7176 O.co2   1  UNL1       -0.5492
     31 C           4.2197   -1.5092   17.5613 C.2     1  UNL1        0.0503
     32 O           3.8297   -1.0284   16.1951 O.co2   1  UNL1       -0.5492
@<TRIPOS>UNITY_ATOM_ATTR
30 1
charge -1
@<TRIPOS>BOND
     1    30    31   ar
     2    31    32   ar
     3    31    29    1
     4    29    28    1
     5    28     1    1
     6     1    18    1
     7    18    19   ar
     8    19    20   ar
     9    20    21   ar
    10    21    24    1
    11    24    25    1
    12    24    26    1
    13    24    27    1
    14    21    22   ar
    15    22    23   ar
    16     1     2    1
    17     2     3    1
    18     3     4    1
    19     4     5    1
    20     5     6   am
    21     6     7    2
    22     6     8   am
    23     8    11    1
    24    11    12   ar
    25    12    13   ar
    26    13    14   ar
    27    14    15    1
    28    14    16   ar
    29    16    17   ar
    30     5     9    1
    31     9     1    1
    32    23    18   ar
    33    17    11   ar
    34     8    10    1
@<TRIPOS>MOLECULE
*****
 32 34 0 0 0
SMALL
GASTEIGER

@<TRIPOS>ATOM
      1 C           4.9677   -1.1153   29.8036 C.3     1  UNL1        0.0377
      2 C           3.6864   -0.4438   30.1999 C.3     1  UNL1        0.0075
      3 C           2.6479   -0.1373   29.1618 C.3     1  UNL1        0.0219
      4 C           2.8908   -0.5025   27.7273 C.3     1  UNL1        0.0950
      5 N           4.1721   -1.1740   27.3310 N.am    1  UNL1       -0.2637
      6 C           4.4151   -1.5391   25.8965 C.2     1  UNL1        0.3077
      7 O           5.6965   -2.2107   25.5002 O.2     1  UNL1       -0.2522
      8 N           3.3766   -1.2327   24.8584 N.am    1  UNL1       -0.2681
      9 C           5.2106   -1.4804   28.3691 C.3     1  UNL1        0.0989
     10 H           2.5356   -0.7919   25.1185 H       1  UNL1        0.1564
     11 C           3.6195   -1.5978   23.4240 C.ar    1  UNL1        0.0516
     12 C           4.3707   -2.8516   23.0861 C.ar    1  UNL1        0.0156
     13 C           4.6137   -3.2168   21.6518 C.ar    1  UNL1        0.0127
     14 C           4.1056   -2.3283   20.5552 C.ar    1  UNL1        0.0578
     15 CL          4.3486   -2.6936   19.1207 Cl      1  UNL1       -0.0822
     16 C           3.3545   -1.0747   20.8930 C.ar    1  UNL1        0.0127
     17 C           3.1115   -0.7094   22.3274 C.ar    1  UNL1        0.0156
     18 C           5.1976   -0.9653   31.2783 C.ar    1  UNL1       -0.0212
     19 C           6.3578   -0.1566   31.7781 C.ar    1  UNL1       -0.0043
     20 C           6.5876   -0.0066   33.2527 C.ar    1  UNL1        0.0035
     21 C           5.6572   -0.6654   34.2276 C.ar    1  UNL1        0.0714
     22 C           4.4970   -1.4741   33.7278 C.ar    1  UNL1        0.0035
     23 C           4.2672   -1.6241   32.2532 C.ar    1  UNL1       -0.0043
     24 C           5.8871   -0.5154   35.7023 C.3     1  UNL1        0.4186
     25 F           6.1169   -0.3654   37.1770 F       1  UNL1       -0.1659
     26 F           7.3387   -0.2362   35.4477 F       1  UNL1       -0.1659
     27 F           4.4355   -0.7946   35.9569 F       1  UNL1       -0.1659
     28 C           6.3290   -1.7347   29.9193 C.3     1  UNL1        0.0116
     29 C           6.5364   -3.1680   29.5288 C.3     1  UNL1        0.0421
     30 O           6.7619   -5.6606   30.2262 O.co2   1  UNL1       -0.5492
     31 C           6.7874   -4.2041   30.5841 C.2     1  UNL1        0.0503
     32 O           7.0639   -3.7837   31.9972 O.co2   1  UNL1       -0.5492
@<TRIPOS>UNITY_ATOM_ATTR
30 1
charge -1
@<TRIPOS>BOND
     1    30    31   ar
     2    31    32   ar
     3    31    29    1
     4    29    28    1
     5    28     1    1
     6     1    18    1
     7    18    19   ar
     8    19    20   ar
     9    20    21   ar
    10    21    24    1
    11    24    25    1
    12    24    26    1
    13    24    27    1
    14    21    22   ar
    15    22    23   ar
    16     1     2    1
    17     2     3    1
    18     3     4    1
    19     4     5    1
    20     5     6   am
    21     6     7    2
    22     6     8   am
    23     8    11    1
    24    11    12   ar
    25    12    13   ar
    26    13    14   ar
    27    14    15    1
    28    14    16   ar
    29    16    17   ar
    30     5     9    1
    31     9     1    1
    32    23    18   ar
    33    17    11   ar
    34     8    10    1
@<TRIPOS>MOLECULE
*****
 32 34 0 0 0
SMALL
GASTEIGER

@<TRIPOS>ATOM
      1 C           5.7849   -2.3463   25.3069 C.3     1  UNL1        0.0377
      2 C           6.4712   -3.6736   25.1770 C.3     1  UNL1        0.0075
      3 C           6.9076   -4.4157   26.4054 C.3     1  UNL1        0.0219
      4 C           6.6577   -3.8302   27.7637 C.3     1  UNL1        0.0950
      5 N           5.9713   -2.5028   27.8935 N.am    1  UNL1       -0.2637
      6 C           5.7214   -1.9174   29.2518 C.2     1  UNL1        0.3077
      7 O           5.0350   -0.5900   29.3816 O.2     1  UNL1       -0.2522
      8 N           6.1578   -2.6594   30.4802 N.am    1  UNL1       -0.2681
      9 C           5.5349   -1.7608   26.6652 C.3     1  UNL1        0.0989
     10 H           6.6083   -3.5307   30.3950 H       1  UNL1        0.1564
     11 C           5.9078   -2.0740   31.8384 C.ar    1  UNL1        0.0516
     12 C           4.6285   -2.3757   32.5612 C.ar    1  UNL1        0.0156
     13 C           4.3785   -1.7903   33.9194 C.ar    1  UNL1        0.0127
     14 C           5.4077   -0.9031   34.5548 C.ar    1  UNL1        0.0578
     15 CL          5.1576   -0.3176   35.9130 Cl      1  UNL1       -0.0822
     16 C           6.6869   -0.6014   33.8320 C.ar    1  UNL1        0.0127
     17 C           6.9370   -1.1868   32.4737 C.ar    1  UNL1        0.0156
     18 C           5.7980   -2.4877   23.8136 C.ar    1  UNL1       -0.0212
     19 C           6.6089   -1.5423   22.9778 C.ar    1  UNL1       -0.0043
     20 C           6.6221   -1.6838   21.4846 C.ar    1  UNL1        0.0035
     21 C           5.8242   -2.7707   20.8271 C.ar    1  UNL1        0.0714
     22 C           5.0133   -3.7160   21.6629 C.ar    1  UNL1        0.0035
     23 C           5.0002   -3.5746   23.1561 C.ar    1  UNL1       -0.0043
     24 C           5.8374   -2.9121   19.3338 C.3     1  UNL1        0.4186
     25 F           5.8505   -3.0535   17.8406 F       1  UNL1       -0.1659
     26 F           7.3346   -2.8215   19.3384 F       1  UNL1       -0.1659
     27 F           4.3402   -3.0027   19.3293 F       1  UNL1       -0.1659
     28 C           5.1031   -1.0679   24.9181 C.3     1  UNL1        0.0116
     29 C           3.6390   -0.8864   25.1890 C.3     1  UNL1        0.0421
     30 O           2.9353   -0.7566   22.6914 O.co2   1  UNL1       -0.5492
     31 C           2.7404   -0.3403   24.1192 C.2     1  UNL1        0.0503
     32 O           1.6469    0.6220   24.4773 O.co2   1  UNL1       -0.5492
@<TRIPOS>UNITY_ATOM_ATTR
30 1
charge -1
@<TRIPOS>BOND
     1    30    31   ar
     2    31    32   ar
     3    31    29    1
     4    29    28    1
     5    28     1    1
     6     1    18    1
     7    18    19   ar
     8    19    20   ar
     9    20    21   ar
    10    21    24    1
    11    24    25    1
    12    24    26    1
    13    24    27    1
    14    21    22   ar
    15    22    23   ar
    16     1     2    1
    17     2     3    1
    18     3     4    1
    19     4     5    1
    20     5     6   am
    21     6     7    2
    22     6     8   am
    23     8    11    1
    24    11    12   ar
    25    12    13   ar
    26    13    14   ar
    27    14    15    1
    28    14    16   ar
    29    16    17   ar
    30     5     9    1
    31     9     1    1
    32    23    18   ar
    33    17    11   ar
    34     8    10    1
@<TRIPOS>MOLECULE
*****
 32 34 0 0 0
SMALL
GASTEIGER

@<TRIPOS>ATOM
      1 C           4.1612   -0.6295   23.5530 C.3     1  UNL1        0.0377
      2 C           4.3655    0.8167   23.2115 C.3     1  UNL1        0.0075
      3 C           4.5850    1.8214   24.3034 C.3     1  UNL1        0.0219
      4 C           4.6001    1.3798   25.7369 C.3     1  UNL1        0.0950
      5 N           4.3958   -0.0664   26.0784 N.am    1  UNL1       -0.2637
      6 C           4.4109   -0.5079   27.5119 C.2     1  UNL1        0.3077
      7 O           4.2066   -1.9542   27.8534 O.2     1  UNL1       -0.2522
      8 N           4.6304    0.4968   28.6039 N.am    1  UNL1       -0.2681
      9 C           4.1764   -1.0711   24.9865 C.3     1  UNL1        0.0989
     10 H           4.7645    1.4460   28.3798 H       1  UNL1        0.1564
     11 C           4.6455    0.0552   30.0373 C.ar    1  UNL1        0.0516
     12 C           3.4033    0.1696   30.8704 C.ar    1  UNL1        0.0156
     13 C           3.4183   -0.2720   32.3038 C.ar    1  UNL1        0.0127
     14 C           4.6755   -0.8279   32.9042 C.ar    1  UNL1        0.0578
     15 CL          4.6906   -1.2695   34.3377 Cl      1  UNL1       -0.0822
     16 C           5.9177   -0.9423   32.0711 C.ar    1  UNL1        0.0127
     17 C           5.9026   -0.5007   30.6377 C.ar    1  UNL1        0.0156
     18 C           4.0633   -0.6986   22.0577 C.ar    1  UNL1       -0.0212
     19 C           5.2650   -0.3957   21.2127 C.ar    1  UNL1       -0.0043
     20 C           5.1670   -0.4648   19.7175 C.ar    1  UNL1        0.0035
     21 C           3.8674   -0.8369   19.0674 C.ar    1  UNL1        0.0714
     22 C           2.6658   -1.1398   19.9125 C.ar    1  UNL1        0.0035
     23 C           2.7637   -1.0707   21.4077 C.ar    1  UNL1       -0.0043
     24 C           3.7695   -0.9060   17.5722 C.3     1  UNL1        0.4186
     25 F           3.6716   -0.9751   16.0770 F       1  UNL1       -0.1659
     26 F           4.7419   -2.0481   17.5612 F       1  UNL1       -0.1659
     27 F           2.7972    0.2361   17.5831 F       1  UNL1       -0.1659
     28 C           3.9229   -2.0998   23.3752 C.3     1  UNL1        0.0116
     29 C           5.0354   -3.0752   23.6221 C.3     1  UNL1        0.0421
     30 O           4.6784   -4.1631   21.2899 O.co2   1  UNL1       -0.5492
     31 C           5.5292   -3.9477   22.5064 C.2     1  UNL1        0.0503
     32 O           6.8738   -4.6049   22.6072 O.co2   1  UNL1       -0.5492
@<TRIPOS>UNITY_ATOM_ATTR
30 1
charge -1
@<TRIPOS>BOND
     1    30    31   ar
     2    31    32   ar
     3    31    29    1
     4    29    28    1
     5    28     1    1
     6     1    18    1
     7    18    19   ar
     8    19    20   ar
     9    20    21   ar
    10    21    24    1
    11    24    25    1
    12    24    26    1
    13    24    27    1
    14    21    22   ar
    15    22    23   ar
    16     1     2    1
    17     2     3    1
    18     3     4    1
    19     4     5    1
    20     5     6   am
    21     6     7    2
    22     6     8   am
    23     8    11    1
    24    11    12   ar
    25    12    13   ar
    26    13    14   ar
    27    14    15    1
    28    14    16   ar
    29    16    17   ar
    30     5     9    1
    31     9     1    1
    32    23    18   ar
    33    17    11   ar
    34     8    10    1
@<TRIPOS>MOLECULE
*****
 32 34 0 0 0
SMALL
GASTEIGER

@<TRIPOS>ATOM
      1 C          -2.1097    3.7770   22.8974 C.3     1  UNL1        0.0377
      2 C          -3.2676    3.8452   21.9464 C.3     1  UNL1        0.0075
      3 C          -3.0832    3.4519   20.5107 C.3     1  UNL1        0.0219
      4 C          -1.7408    2.9904   20.0260 C.3     1  UNL1        0.0950
      5 N          -0.5828    2.9222   20.9769 N.am    1  UNL1       -0.2637
      6 C           0.7597    2.4608   20.4922 C.2     1  UNL1        0.3077
      7 O           1.9176    2.3926   21.4432 O.2     1  UNL1       -0.2522
      8 N           0.9441    2.0675   19.0565 N.am    1  UNL1       -0.2681
      9 C          -0.7672    3.3155   22.4126 C.3     1  UNL1        0.0989
     10 H           0.1840    2.1122   18.4323 H       1  UNL1        0.1564
     11 C           2.2865    1.6060   18.5718 C.ar    1  UNL1        0.0516
     12 C           2.4877    0.1746   18.1709 C.ar    1  UNL1        0.0156
     13 C           3.8300   -0.2869   17.6863 C.ar    1  UNL1        0.0127
     14 C           4.9713    0.6829   17.6025 C.ar    1  UNL1        0.0578
     15 CL          6.3138    0.2214   17.1178 Cl      1  UNL1       -0.0822
     16 C           4.7701    2.1143   18.0034 C.ar    1  UNL1        0.0127
     17 C           3.4277    2.5758   18.4881 C.ar    1  UNL1        0.0156
     18 C          -3.1789    4.2748   23.8242 C.ar    1  UNL1       -0.0212
     19 C          -3.0728    5.6455   24.4243 C.ar    1  UNL1       -0.0043
     20 C          -4.1420    6.1432   25.3510 C.ar    1  UNL1        0.0035
     21 C          -5.3173    5.2704   25.6778 C.ar    1  UNL1        0.0714
     22 C          -5.4234    3.8998   25.0778 C.ar    1  UNL1        0.0035
     23 C          -4.3542    3.4020   24.1510 C.ar    1  UNL1       -0.0043
     24 C          -6.3865    5.7683   26.6046 C.3     1  UNL1        0.4186
     25 F          -7.4557    6.2661   27.5314 F       1  UNL1       -0.1659
     26 F          -5.3616    5.9634   27.6823 F       1  UNL1       -0.1659
     27 F          -7.4115    5.5731   25.5270 F       1  UNL1       -0.1659
     28 C          -1.3230    3.8817   24.1703 C.3     1  UNL1        0.0116
     29 C          -0.6617    2.6645   24.7455 C.3     1  UNL1        0.0421
     30 O          -1.9870    2.9884   26.9566 O.co2   1  UNL1       -0.5492
     31 C          -0.9763    2.2316   26.1468 C.2     1  UNL1        0.0503
     32 O          -0.2802    1.0418   26.7383 O.co2   1  UNL1       -0.5492
@<TRIPOS>UNITY_ATOM_ATTR
30 1
charge -1
@<TRIPOS>BOND
     1    30    31   ar
     2    31    32   ar
     3    31    29    1
     4    29    28    1
     5    28     1    1
     6     1    18    1
     7    18    19   ar
     8    19    20   ar
     9    20    21   ar
    10    21    24    1
    11    24    25    1
    12    24    26    1
    13    24    27    1
    14    21    22   ar
    15    22    23   ar
    16     1     2    1
    17     2     3    1
    18     3     4    1
    19     4     5    1
    20     5     6   am
    21     6     7    2
    22     6     8   am
    23     8    11    1
    24    11    12   ar
    25    12    13   ar
    26    13    14   ar
    27    14    15    1
    28    14    16   ar
    29    16    17   ar
    30     5     9    1
    31     9     1    1
    32    23    18   ar
    33    17    11   ar
    34     8    10    1
@<TRIPOS>MOLECULE
*****
 32 34 0 0 0
SMALL
GASTEIGER

@<TRIPOS>ATOM
      1 C           6.9782   -3.4725   28.6673 C.3     1  UNL1        0.0377
      2 C           6.0138   -2.8833   27.6811 C.3     1  UNL1        0.0075
      3 C           5.0975   -1.7721   28.1003 C.3     1  UNL1        0.0219
      4 C           5.1457   -1.2502   29.5058 C.3     1  UNL1        0.0950
      5 N           6.1100   -1.8395   30.4921 N.am    1  UNL1       -0.2637
      6 C           6.1582   -1.3176   31.8976 C.2     1  UNL1        0.3077
      7 O           7.1226   -1.9070   32.8837 O.2     1  UNL1       -0.2522
      8 N           5.2419   -0.2065   32.3168 N.am    1  UNL1       -0.2681
      9 C           7.0263   -2.9507   30.0728 C.3     1  UNL1        0.0989
     10 H           4.6089    0.1803   31.6695 H       1  UNL1        0.1564
     11 C           5.2901    0.3153   33.7222 C.ar    1  UNL1        0.0516
     12 C           4.6830   -0.4811   34.8391 C.ar    1  UNL1        0.0156
     13 C           4.7312    0.0406   36.2445 C.ar    1  UNL1        0.0127
     14 C           5.3863    1.3588   36.5333 C.ar    1  UNL1        0.0578
     15 CL          5.4345    1.8805   37.9388 Cl      1  UNL1       -0.0822
     16 C           5.9934    2.1552   35.4165 C.ar    1  UNL1        0.0127
     17 C           5.9452    1.6334   34.0109 C.ar    1  UNL1        0.0156
     18 C           7.3044   -4.2987   27.4586 C.ar    1  UNL1       -0.0212
     19 C           6.8214   -5.7158   27.3661 C.ar    1  UNL1       -0.0043
     20 C           7.1475   -6.5419   26.1574 C.ar    1  UNL1        0.0035
     21 C           7.9567   -5.9510   25.0411 C.ar    1  UNL1        0.0714
     22 C           8.4397   -4.5339   25.1336 C.ar    1  UNL1        0.0035
     23 C           8.1135   -3.7078   26.3423 C.ar    1  UNL1       -0.0043
     24 C           8.2829   -6.7772   23.8323 C.3     1  UNL1        0.4186
     25 F           8.6090   -7.6033   22.6236 F       1  UNL1       -0.1659
     26 F           8.4311   -7.9906   24.7016 F       1  UNL1       -0.1659
     27 F           8.1346   -5.5639   22.9630 F       1  UNL1       -0.1659
     28 C           8.0559   -4.3488   29.2338 C.3     1  UNL1        0.0116
     29 C           8.1139   -4.6069   30.7102 C.3     1  UNL1        0.0421
     30 O           6.7890   -6.4107   32.0296 O.co2   1  UNL1       -0.5492
     31 C           7.9938   -6.0081   31.2320 C.2     1  UNL1        0.0503
     32 O           9.0786   -7.0067   30.9560 O.co2   1  UNL1       -0.5492
@<TRIPOS>UNITY_ATOM_ATTR
30 1
charge -1
@<TRIPOS>BOND
     1    30    31   ar
     2    31    32   ar
     3    31    29    1
     4    29    28    1
     5    28     1    1
     6     1    18    1
     7    18    19   ar
     8    19    20   ar
     9    20    21   ar
    10    21    24    1
    11    24    25    1
    12    24    26    1
    13    24    27    1
    14    21    22   ar
    15    22    23   ar
    16     1     2    1
    17     2     3    1
    18     3     4    1
    19     4     5    1
    20     5     6   am
    21     6     7    2
    22     6     8   am
    23     8    11    1
    24    11    12   ar
    25    12    13   ar
    26    13    14   ar
    27    14    15    1
    28    14    16   ar
    29    16    17   ar
    30     5     9    1
    31     9     1    1
    32    23    18   ar
    33    17    11   ar
    34     8    10    1
