@<TRIPOS>MOLECULE
*****
 32 34 0 0 0
SMALL
GASTEIGER

@<TRIPOS>ATOM
      1 C          -5.3651  -16.9944   23.5083 C.ar    1  UNL1        0.0533
      2 C          -3.9091  -17.2850   23.2945 C.ar    1  UNL1        0.0076
      3 C          -3.4933  -18.4119   22.3960 C.ar    1  UNL1        0.0367
      4 C          -4.5335  -19.2482   21.7114 C.ar    1  UNL1        0.1355
      5 C          -5.9895  -18.9575   21.9252 C.ar    1  UNL1        0.0232
      6 C          -6.4052  -17.8306   22.8237 C.ar    1  UNL1        0.0041
      7 N          -5.3674  -15.8663   25.8487 N.am    1  UNL1       -0.3009
      8 C          -5.7808  -15.8675   24.4068 C.2     1  UNL1        0.2458
      9 O          -6.6101  -14.7418   23.8634 O.2     1  UNL1       -0.2701
     10 H          -4.8232  -16.6051   26.2054 H       1  UNL1        0.1497
     11 C          -5.7832  -14.7394   26.7472 C.3     1  UNL1        0.0897
     12 C          -6.9308  -14.9209   27.6959 C.3     1  UNL1        0.0213
     13 C          -8.5955  -16.8099   27.0554 C.3     1  UNL1        0.0001
     14 C          -8.2713  -15.3505   27.1779 C.3     1  UNL1        0.0017
     15 O          -4.1177  -20.3750   20.8129 O.3     1  UNL1       -0.4717
     16 C          -3.6847  -20.0911   19.4050 C.3     1  UNL1        0.2525
     17 C          -7.0297  -19.7937   21.2406 C.3     1  UNL1        0.0943
     18 S          -8.2421  -19.1425   20.6440 S.3     1  UNL1       -0.0724
     19 C          -9.4654  -18.9231   21.4839 C.ar    1  UNL1        0.1719
     20 N          -9.6706  -19.4113   22.8872 N.ar    1  UNL1       -0.2210
     21 C         -11.0303  -18.9668   23.3385 C.ar    1  UNL1        0.1014
     22 C         -11.7721  -19.1582   24.6281 C.ar    1  UNL1        0.0503
     23 C         -13.1491  -18.5867   24.7932 C.ar    1  UNL1        0.1417
     24 F         -13.8910  -18.7781   26.0828 F       1  UNL1       -0.2041
     25 C         -13.7842  -17.8238   23.6687 C.ar    1  UNL1        0.0312
     26 C         -13.0424  -17.6323   22.3791 C.ar    1  UNL1        0.0211
     27 C         -11.6655  -18.2039   22.2140 C.ar    1  UNL1        0.0797
     28 N         -10.6983  -18.1769   21.0678 N.ar    1  UNL1       -0.3011
     29 C         -10.9243  -17.5191   19.7388 C.3     1  UNL1        0.1496
     30 C         -11.1257  -16.0348   19.6612 C.2     1  UNL1        0.0733
     31 O         -12.3696  -15.4784   19.0340 O.co2   1  UNL1       -0.5472
     32 O         -10.0833  -15.1066   20.2107 O.co2   1  UNL1       -0.5472
@<TRIPOS>UNITY_ATOM_ATTR
31 1
charge -1
@<TRIPOS>BOND
     1    13    14    1
     2    14    12    1
     3    12    11    1
     4    11     7    1
     5     7     8   am
     6     8     9    2
     7     8     1    1
     8     1     2   ar
     9     2     3   ar
    10     3     4   ar
    11     4    15    1
    12    15    16    1
    13     4     5   ar
    14     5    17    1
    15    17    18    1
    16    18    19    1
    17    19    20   ar
    18    20    21   ar
    19    21    22   ar
    20    22    23   ar
    21    23    24    1
    22    23    25   ar
    23    25    26   ar
    24    26    27   ar
    25    27    28   ar
    26    28    29    1
    27    29    30    1
    28    30    31   ar
    29    30    32   ar
    30     5     6   ar
    31     6     1   ar
    32    28    19   ar
    33    27    21   ar
    34     7    10    1
@<TRIPOS>MOLECULE
*****
 32 34 0 0 0
SMALL
GASTEIGER

@<TRIPOS>ATOM
      1 C          -4.1438  -17.5179   23.5147 C.ar    1  UNL1        0.0533
      2 C          -2.7638  -17.3185   22.9618 C.ar    1  UNL1        0.0076
      3 C          -2.4100  -17.8682   21.6117 C.ar    1  UNL1        0.0367
      4 C          -3.4364  -18.6172   20.8145 C.ar    1  UNL1        0.1355
      5 C          -4.8165  -18.8166   21.3674 C.ar    1  UNL1        0.0232
      6 C          -5.1701  -18.2669   22.7175 C.ar    1  UNL1        0.0041
      7 N          -5.3829  -15.7625   24.9752 N.am    1  UNL1       -0.3009
      8 C          -4.4975  -16.9682   24.8647 C.2     1  UNL1        0.2458
      9 O          -3.9657  -17.6243   26.1045 O.2     1  UNL1       -0.2701
     10 H          -5.7320  -15.3319   24.1615 H       1  UNL1        0.1497
     11 C          -5.7366  -15.2128   26.3253 C.3     1  UNL1        0.0897
     12 C          -6.8412  -15.8389   27.1241 C.3     1  UNL1        0.0213
     13 C          -8.6791  -15.3564   25.3523 C.3     1  UNL1        0.0001
     14 C          -8.1314  -16.2118   26.4561 C.3     1  UNL1        0.0017
     15 O          -3.0827  -19.1669   19.4644 O.3     1  UNL1       -0.4717
     16 C          -2.1844  -18.3884   18.5495 C.3     1  UNL1        0.2525
     17 C          -5.8428  -19.5656   20.5702 C.3     1  UNL1        0.0943
     18 S          -7.1083  -20.0321   21.2266 S.3     1  UNL1       -0.0724
     19 C          -8.3272  -19.1579   21.2118 C.ar    1  UNL1        0.1719
     20 N          -8.9616  -18.5501   19.9960 N.ar    1  UNL1       -0.2210
     21 C         -10.1522  -17.7546   20.4430 C.ar    1  UNL1        0.1014
     22 C         -11.1570  -16.9396   19.6841 C.ar    1  UNL1        0.0503
     23 C         -12.2632  -16.2406   20.4174 C.ar    1  UNL1        0.1417
     24 F         -13.2682  -15.4255   19.6585 F       1  UNL1       -0.2041
     25 C         -12.3646  -16.3567   21.9094 C.ar    1  UNL1        0.0312
     26 C         -11.3598  -17.1718   22.6683 C.ar    1  UNL1        0.0211
     27 C         -10.2535  -17.8707   21.9350 C.ar    1  UNL1        0.0797
     28 N          -9.1256  -18.7380   22.4102 N.ar    1  UNL1       -0.3011
     29 C          -8.8454  -19.1185   23.8338 C.3     1  UNL1        0.1496
     30 C          -9.7851  -20.0306   24.5652 C.2     1  UNL1        0.0733
     31 O          -9.3561  -21.4244   24.9164 O.co2   1  UNL1       -0.5472
     32 O         -11.1538  -19.5489   24.9456 O.co2   1  UNL1       -0.5472
@<TRIPOS>UNITY_ATOM_ATTR
31 1
charge -1
@<TRIPOS>BOND
     1    13    14    1
     2    14    12    1
     3    12    11    1
     4    11     7    1
     5     7     8   am
     6     8     9    2
     7     8     1    1
     8     1     2   ar
     9     2     3   ar
    10     3     4   ar
    11     4    15    1
    12    15    16    1
    13     4     5   ar
    14     5    17    1
    15    17    18    1
    16    18    19    1
    17    19    20   ar
    18    20    21   ar
    19    21    22   ar
    20    22    23   ar
    21    23    24    1
    22    23    25   ar
    23    25    26   ar
    24    26    27   ar
    25    27    28   ar
    26    28    29    1
    27    29    30    1
    28    30    31   ar
    29    30    32   ar
    30     5     6   ar
    31     6     1   ar
    32    28    19   ar
    33    27    21   ar
    34     7    10    1
@<TRIPOS>MOLECULE
*****
 32 34 0 0 0
SMALL
GASTEIGER

@<TRIPOS>ATOM
      1 C          -5.4425  -15.5745   24.2433 C.ar    1  UNL1        0.0533
      2 C          -5.0920  -15.5901   25.7017 C.ar    1  UNL1        0.0076
      3 C          -6.1799  -15.6105   26.7343 C.ar    1  UNL1        0.0367
      4 C          -7.6182  -15.6152   26.3084 C.ar    1  UNL1        0.1355
      5 C          -7.9686  -15.5996   24.8500 C.ar    1  UNL1        0.0232
      6 C          -6.8808  -15.5793   23.8175 C.ar    1  UNL1        0.0041
      7 N          -3.5095  -16.7732   22.9876 N.am    1  UNL1       -0.3009
      8 C          -4.3547  -15.5542   23.2108 C.2     1  UNL1        0.2458
      9 O          -4.1120  -14.3148   22.4013 O.2     1  UNL1       -0.2701
     10 H          -3.6688  -17.5866   23.5189 H       1  UNL1        0.1497
     11 C          -2.4216  -16.7528   21.9550 C.3     1  UNL1        0.0897
     12 C          -1.9362  -18.0374   21.3516 C.3     1  UNL1        0.0213
     13 C          -3.5397  -18.7804   19.4472 C.3     1  UNL1        0.0001
     14 C          -2.9197  -19.0217   20.7916 C.3     1  UNL1        0.0017
     15 O          -8.7060  -15.6356   27.3410 O.3     1  UNL1       -0.4717
     16 C          -8.9161  -14.4477   28.2326 C.3     1  UNL1        0.2525
     17 C          -9.4069  -15.6043   24.4241 C.3     1  UNL1        0.0943
     18 S         -10.0496  -16.8803   23.9672 S.3     1  UNL1       -0.0724
     19 C          -9.3564  -17.7510   22.9616 C.ar    1  UNL1        0.1719
     20 N          -8.0518  -18.4636   23.1627 N.ar    1  UNL1       -0.2210
     21 C          -7.7352  -19.2151   21.9037 C.ar    1  UNL1        0.1014
     22 C          -6.5804  -20.0932   21.5225 C.ar    1  UNL1        0.0503
     23 C          -6.5345  -20.7232   20.1620 C.ar    1  UNL1        0.1417
     24 F          -5.3797  -21.6014   19.7807 F       1  UNL1       -0.2041
     25 C          -7.6433  -20.4751   19.1828 C.ar    1  UNL1        0.0312
     26 C          -8.7981  -19.5970   19.5640 C.ar    1  UNL1        0.0211
     27 C          -8.8440  -18.9670   20.9245 C.ar    1  UNL1        0.0797
     28 N          -9.8459  -18.0621   21.5783 N.ar    1  UNL1       -0.3011
     29 C         -11.1147  -17.5571   20.9577 C.3     1  UNL1        0.1496
     30 C         -11.1455  -16.2058   20.3075 C.2     1  UNL1        0.0733
     31 O          -9.9992  -15.2566   20.4956 O.co2   1  UNL1       -0.5472
     32 O         -12.3225  -15.8034   19.4691 O.co2   1  UNL1       -0.5472
@<TRIPOS>UNITY_ATOM_ATTR
31 1
charge -1
@<TRIPOS>BOND
     1    13    14    1
     2    14    12    1
     3    12    11    1
     4    11     7    1
     5     7     8   am
     6     8     9    2
     7     8     1    1
     8     1     2   ar
     9     2     3   ar
    10     3     4   ar
    11     4    15    1
    12    15    16    1
    13     4     5   ar
    14     5    17    1
    15    17    18    1
    16    18    19    1
    17    19    20   ar
    18    20    21   ar
    19    21    22   ar
    20    22    23   ar
    21    23    24    1
    22    23    25   ar
    23    25    26   ar
    24    26    27   ar
    25    27    28   ar
    26    28    29    1
    27    29    30    1
    28    30    31   ar
    29    30    32   ar
    30     5     6   ar
    31     6     1   ar
    32    28    19   ar
    33    27    21   ar
    34     7    10    1
@<TRIPOS>MOLECULE
*****
 32 34 0 0 0
SMALL
GASTEIGER

@<TRIPOS>ATOM
      1 C          -5.6121  -19.5949   20.4164 C.ar    1  UNL1        0.0533
      2 C          -5.6075  -20.4803   21.6272 C.ar    1  UNL1        0.0076
      3 C          -6.8793  -20.7205   22.3856 C.ar    1  UNL1        0.0367
      4 C          -8.1556  -20.0753   21.9331 C.ar    1  UNL1        0.1355
      5 C          -8.1601  -19.1899   20.7222 C.ar    1  UNL1        0.0232
      6 C          -6.8884  -18.9497   19.9639 C.ar    1  UNL1        0.0041
      7 N          -3.9450  -17.9580   19.2801 N.am    1  UNL1       -0.3009
      8 C          -4.3404  -19.3547   19.6581 C.2     1  UNL1        0.2458
      9 O          -3.4641  -20.5112   19.2778 O.2     1  UNL1       -0.2701
     10 H          -4.5201  -17.1990   19.5298 H       1  UNL1        0.1497
     11 C          -2.6732  -17.7179   18.5218 C.3     1  UNL1        0.0897
     12 C          -1.3554  -17.7520   19.2375 C.3     1  UNL1        0.0213
     13 C          -1.7572  -16.3514   21.3885 C.3     1  UNL1        0.0001
     14 C          -1.3096  -17.6233   20.7313 C.3     1  UNL1        0.0017
     15 O          -9.4273  -20.3155   22.6914 O.3     1  UNL1       -0.4717
     16 C          -9.3769  -20.6602   24.1504 C.3     1  UNL1        0.2525
     17 C          -9.4365  -18.5446   20.2697 C.3     1  UNL1        0.0943
     18 S          -9.9178  -17.2882   20.9327 S.3     1  UNL1       -0.0724
     19 C          -9.2663  -16.8100   22.1964 C.ar    1  UNL1        0.1719
     20 N          -7.9354  -16.1255   22.2979 N.ar    1  UNL1       -0.2210
     21 C          -7.6778  -15.8249   23.7447 C.ar    1  UNL1        0.1014
     22 C          -6.5278  -15.1614   24.4427 C.ar    1  UNL1        0.0503
     23 C          -6.5494  -14.9967   25.9334 C.ar    1  UNL1        0.1417
     24 F          -5.3994  -14.3332   26.6315 F       1  UNL1       -0.2041
     25 C          -7.7211  -15.4954   26.7262 C.ar    1  UNL1        0.0312
     26 C          -8.8711  -16.1589   26.0282 C.ar    1  UNL1        0.0211
     27 C          -8.8495  -16.3236   24.5374 C.ar    1  UNL1        0.0797
     28 N          -9.8312  -16.9324   23.5806 N.ar    1  UNL1       -0.3011
     29 C         -11.1468  -17.5545   23.9441 C.3     1  UNL1        0.1496
     30 C         -12.4014  -17.1160   23.2488 C.2     1  UNL1        0.0733
     31 O         -13.5158  -18.0947   23.0242 O.co2   1  UNL1       -0.5472
     32 O         -12.5418  -15.6987   22.7780 O.co2   1  UNL1       -0.5472
@<TRIPOS>UNITY_ATOM_ATTR
31 1
charge -1
@<TRIPOS>BOND
     1    13    14    1
     2    14    12    1
     3    12    11    1
     4    11     7    1
     5     7     8   am
     6     8     9    2
     7     8     1    1
     8     1     2   ar
     9     2     3   ar
    10     3     4   ar
    11     4    15    1
    12    15    16    1
    13     4     5   ar
    14     5    17    1
    15    17    18    1
    16    18    19    1
    17    19    20   ar
    18    20    21   ar
    19    21    22   ar
    20    22    23   ar
    21    23    24    1
    22    23    25   ar
    23    25    26   ar
    24    26    27   ar
    25    27    28   ar
    26    28    29    1
    27    29    30    1
    28    30    31   ar
    29    30    32   ar
    30     5     6   ar
    31     6     1   ar
    32    28    19   ar
    33    27    21   ar
    34     7    10    1
@<TRIPOS>MOLECULE
*****
 32 34 0 0 0
SMALL
GASTEIGER

@<TRIPOS>ATOM
      1 C          -4.5693  -16.3742   23.9994 C.ar    1  UNL1        0.0533
      2 C          -4.1953  -16.3924   25.4519 C.ar    1  UNL1        0.0076
      3 C          -5.2027  -15.9974   26.4908 C.ar    1  UNL1        0.0367
      4 C          -6.5841  -15.5842   26.0771 C.ar    1  UNL1        0.1355
      5 C          -6.9580  -15.5661   24.6245 C.ar    1  UNL1        0.0232
      6 C          -5.9506  -15.9610   23.5857 C.ar    1  UNL1        0.0041
      7 N          -3.0659  -18.1833   22.8963 N.am    1  UNL1       -0.3009
      8 C          -3.5619  -16.7691   22.9606 C.2     1  UNL1        0.2458
      9 O          -3.0505  -15.7499   21.9860 O.2     1  UNL1       -0.2701
     10 H          -3.4015  -18.8522   23.5359 H       1  UNL1        0.1497
     11 C          -2.0584  -18.5782   21.8574 C.3     1  UNL1        0.0897
     12 C          -2.4727  -19.4364   20.6991 C.3     1  UNL1        0.0213
     13 C          -2.0730  -17.6681   18.8381 C.3     1  UNL1        0.0001
     14 C          -2.8781  -18.8012   19.4022 C.3     1  UNL1        0.0017
     15 O          -7.5914  -15.1893   27.1159 O.3     1  UNL1       -0.4717
     16 C          -8.4843  -16.2278   27.7278 C.3     1  UNL1        0.2525
     17 C          -8.3394  -15.1529   24.2108 C.3     1  UNL1        0.0943
     18 S          -9.4267  -16.1798   24.0964 S.3     1  UNL1       -0.0724
     19 C          -9.4699  -17.0975   22.9107 C.ar    1  UNL1        0.1719
     20 N          -8.2825  -17.6389   22.1710 N.ar    1  UNL1       -0.2210
     21 C          -8.7868  -18.5109   21.0596 C.ar    1  UNL1        0.1014
     22 C          -8.0746  -19.3068   20.0064 C.ar    1  UNL1        0.0503
     23 C          -8.8616  -20.1004   19.0059 C.ar    1  UNL1        0.1417
     24 F          -8.1494  -20.8963   17.9526 F       1  UNL1       -0.2041
     25 C         -10.3607  -20.0980   19.0587 C.ar    1  UNL1        0.0312
     26 C         -11.0728  -19.3021   20.1119 C.ar    1  UNL1        0.0211
     27 C         -10.2859  -18.5086   21.1124 C.ar    1  UNL1        0.0797
     28 N         -10.7080  -17.6350   22.2564 N.ar    1  UNL1       -0.3011
     29 C         -12.1204  -17.3492   22.6730 C.3     1  UNL1        0.1496
     30 C         -12.7306  -18.0994   23.8195 C.2     1  UNL1        0.0733
     31 O         -14.2086  -18.0230   24.0641 O.co2   1  UNL1       -0.5472
     32 O         -11.8629  -18.9262   24.7216 O.co2   1  UNL1       -0.5472
@<TRIPOS>UNITY_ATOM_ATTR
31 1
charge -1
@<TRIPOS>BOND
     1    13    14    1
     2    14    12    1
     3    12    11    1
     4    11     7    1
     5     7     8   am
     6     8     9    2
     7     8     1    1
     8     1     2   ar
     9     2     3   ar
    10     3     4   ar
    11     4    15    1
    12    15    16    1
    13     4     5   ar
    14     5    17    1
    15    17    18    1
    16    18    19    1
    17    19    20   ar
    18    20    21   ar
    19    21    22   ar
    20    22    23   ar
    21    23    24    1
    22    23    25   ar
    23    25    26   ar
    24    26    27   ar
    25    27    28   ar
    26    28    29    1
    27    29    30    1
    28    30    31   ar
    29    30    32   ar
    30     5     6   ar
    31     6     1   ar
    32    28    19   ar
    33    27    21   ar
    34     7    10    1
@<TRIPOS>MOLECULE
*****
 32 34 0 0 0
SMALL
GASTEIGER

@<TRIPOS>ATOM
      1 C          -6.2733  -19.5858   21.1518 C.ar    1  UNL1        0.0533
      2 C          -6.0321  -20.6465   20.1190 C.ar    1  UNL1        0.0076
      3 C          -7.1203  -21.0159   19.1549 C.ar    1  UNL1        0.0367
      4 C          -8.4497  -20.3245   19.2237 C.ar    1  UNL1        0.1355
      5 C          -8.6909  -19.2638   20.2565 C.ar    1  UNL1        0.0232
      6 C          -7.6027  -18.8944   21.2205 C.ar    1  UNL1        0.0041
      7 N          -4.9588  -17.7780   22.4762 N.am    1  UNL1       -0.3009
      8 C          -5.1851  -19.2164   22.1158 C.2     1  UNL1        0.2458
      9 O          -4.3232  -20.2854   22.7195 O.2     1  UNL1       -0.2701
     10 H          -5.5245  -17.0764   22.0800 H       1  UNL1        0.1497
     11 C          -3.8705  -17.4087   23.4403 C.3     1  UNL1        0.0897
     12 C          -2.4562  -17.2743   22.9592 C.3     1  UNL1        0.0213
     13 C          -1.4237  -16.7979   20.6232 C.3     1  UNL1        0.0001
     14 C          -2.1274  -16.3128   21.8559 C.3     1  UNL1        0.0017
     15 O          -9.5378  -20.6939   18.2596 O.3     1  UNL1       -0.4717
     16 C          -9.2120  -21.4864   17.0284 C.3     1  UNL1        0.2525
     17 C         -10.0203  -18.5724   20.3252 C.3     1  UNL1        0.0943
     18 S         -10.1079  -17.1643   20.8345 S.3     1  UNL1       -0.0724
     19 C          -9.3549  -16.7649   22.0688 C.ar    1  UNL1        0.1719
     20 N          -8.1286  -15.9023   22.1130 N.ar    1  UNL1       -0.2210
     21 C          -7.7118  -15.7622   23.5472 C.ar    1  UNL1        0.1014
     22 C          -6.5753  -15.0283   24.1950 C.ar    1  UNL1        0.0503
     23 C          -6.4076  -15.0705   25.6850 C.ar    1  UNL1        0.1417
     24 F          -5.2711  -14.3366   26.3329 F       1  UNL1       -0.2041
     25 C          -7.3764  -15.8466   26.5271 C.ar    1  UNL1        0.0312
     26 C          -8.5128  -16.5805   25.8792 C.ar    1  UNL1        0.0211
     27 C          -8.6805  -16.5383   24.3893 C.ar    1  UNL1        0.0797
     28 N          -9.6960  -17.1580   23.4756 N.ar    1  UNL1       -0.3011
     29 C         -10.8501  -18.0195   23.8951 C.3     1  UNL1        0.1496
     30 C         -10.6527  -19.4931   24.0936 C.2     1  UNL1        0.0733
     31 O         -10.0013  -20.0006   25.3459 O.co2   1  UNL1       -0.5472
     32 O         -11.1067  -20.4594   23.0399 O.co2   1  UNL1       -0.5472
@<TRIPOS>UNITY_ATOM_ATTR
31 1
charge -1
@<TRIPOS>BOND
     1    13    14    1
     2    14    12    1
     3    12    11    1
     4    11     7    1
     5     7     8   am
     6     8     9    2
     7     8     1    1
     8     1     2   ar
     9     2     3   ar
    10     3     4   ar
    11     4    15    1
    12    15    16    1
    13     4     5   ar
    14     5    17    1
    15    17    18    1
    16    18    19    1
    17    19    20   ar
    18    20    21   ar
    19    21    22   ar
    20    22    23   ar
    21    23    24    1
    22    23    25   ar
    23    25    26   ar
    24    26    27   ar
    25    27    28   ar
    26    28    29    1
    27    29    30    1
    28    30    31   ar
    29    30    32   ar
    30     5     6   ar
    31     6     1   ar
    32    28    19   ar
    33    27    21   ar
    34     7    10    1
@<TRIPOS>MOLECULE
*****
 32 34 0 0 0
SMALL
GASTEIGER

@<TRIPOS>ATOM
      1 C          -4.1994  -16.5119   23.6230 C.ar    1  UNL1        0.0533
      2 C          -4.1846  -16.3798   25.1171 C.ar    1  UNL1        0.0076
      3 C          -5.4226  -15.9447   25.8439 C.ar    1  UNL1        0.0367
      4 C          -6.6753  -15.6416   25.0766 C.ar    1  UNL1        0.1355
      5 C          -6.6901  -15.7736   23.5824 C.ar    1  UNL1        0.0232
      6 C          -5.4521  -16.2087   22.8557 C.ar    1  UNL1        0.0041
      7 N          -2.5422  -16.2421   21.6404 N.am    1  UNL1       -0.3009
      8 C          -2.9615  -16.9470   22.8963 C.2     1  UNL1        0.2458
      9 O          -2.1428  -18.0871   23.4254 O.2     1  UNL1       -0.2701
     10 H          -3.0795  -15.4938   21.2931 H       1  UNL1        0.1497
     11 C          -1.3042  -16.6773   20.9137 C.3     1  UNL1        0.0897
     12 C          -1.4150  -17.5572   19.7039 C.3     1  UNL1        0.0213
     13 C          -3.6148  -18.9055   19.3991 C.3     1  UNL1        0.0001
     14 C          -2.1663  -18.8529   19.7853 C.3     1  UNL1        0.0017
     15 O          -7.9132  -15.2064   25.8033 O.3     1  UNL1       -0.4717
     16 C          -8.0871  -15.5408   27.2553 C.3     1  UNL1        0.2525
     17 C          -7.9428  -15.4705   22.8151 C.3     1  UNL1        0.0943
     18 S          -8.6338  -16.5582   22.0475 S.3     1  UNL1       -0.0724
     19 C         -10.0062  -17.0073   22.4536 C.ar    1  UNL1        0.1719
     20 N         -10.4606  -17.2977   23.8533 N.ar    1  UNL1       -0.2210
     21 C         -11.9003  -17.7147   23.7962 C.ar    1  UNL1        0.1014
     22 C         -12.8710  -18.1199   24.8655 C.ar    1  UNL1        0.0503
     23 C         -14.2772  -18.4925   24.4997 C.ar    1  UNL1        0.1417
     24 F         -15.2480  -18.8977   25.5690 F       1  UNL1       -0.2041
     25 C         -14.7126  -18.4598   23.0647 C.ar    1  UNL1        0.0312
     26 C         -13.7419  -18.0546   21.9954 C.ar    1  UNL1        0.0211
     27 C         -12.3357  -17.6820   22.3612 C.ar    1  UNL1        0.0797
     28 N         -11.1651  -17.2448   21.5314 N.ar    1  UNL1       -0.3011
     29 C         -11.1552  -17.0750   20.0411 C.3     1  UNL1        0.1496
     30 C         -11.4656  -15.7378   19.4365 C.2     1  UNL1        0.0733
     31 O         -10.3541  -14.7813   19.1205 O.co2   1  UNL1       -0.5472
     32 O         -12.8875  -15.3571   19.1479 O.co2   1  UNL1       -0.5472
@<TRIPOS>UNITY_ATOM_ATTR
31 1
charge -1
@<TRIPOS>BOND
     1    13    14    1
     2    14    12    1
     3    12    11    1
     4    11     7    1
     5     7     8   am
     6     8     9    2
     7     8     1    1
     8     1     2   ar
     9     2     3   ar
    10     3     4   ar
    11     4    15    1
    12    15    16    1
    13     4     5   ar
    14     5    17    1
    15    17    18    1
    16    18    19    1
    17    19    20   ar
    18    20    21   ar
    19    21    22   ar
    20    22    23   ar
    21    23    24    1
    22    23    25   ar
    23    25    26   ar
    24    26    27   ar
    25    27    28   ar
    26    28    29    1
    27    29    30    1
    28    30    31   ar
    29    30    32   ar
    30     5     6   ar
    31     6     1   ar
    32    28    19   ar
    33    27    21   ar
    34     7    10    1
@<TRIPOS>MOLECULE
*****
 32 34 0 0 0
SMALL
GASTEIGER

@<TRIPOS>ATOM
      1 C           3.1058   -0.6199   23.5928 C.ar    1  UNL1        0.0533
      2 C           2.7994   -0.7660   22.1317 C.ar    1  UNL1        0.0076
      3 C           3.4572   -1.8516   21.3323 C.ar    1  UNL1        0.0367
      4 C           4.4212   -2.7911   21.9941 C.ar    1  UNL1        0.1355
      5 C           4.7276   -2.6450   23.4552 C.ar    1  UNL1        0.0232
      6 C           4.0699   -1.5594   24.2545 C.ar    1  UNL1        0.0041
      7 N           1.9436    0.1780   25.7751 N.am    1  UNL1       -0.3009
      8 C           2.4481    0.4656   24.3921 C.2     1  UNL1        0.2458
      9 O           2.2947    1.8389   23.8083 O.2     1  UNL1       -0.2701
     10 H           2.0442   -0.7233   26.1582 H       1  UNL1        0.1497
     11 C           1.2859    1.2636   26.5744 C.3     1  UNL1        0.0897
     12 C          -0.1199    1.0858   27.0666 C.3     1  UNL1        0.0213
     13 C          -1.3353   -0.4720   28.7536 C.3     1  UNL1        0.0001
     14 C          -0.3702    0.6426   28.4775 C.3     1  UNL1        0.0017
     15 O           5.0790   -3.8766   21.1948 O.3     1  UNL1       -0.4717
     16 C           5.9738   -3.5234   20.0439 C.3     1  UNL1        0.2525
     17 C           5.6917   -3.5844   24.1170 C.3     1  UNL1        0.0943
     18 S           6.7538   -3.0485   25.0304 S.3     1  UNL1       -0.0724
     19 C           6.7593   -3.4318   26.4806 C.ar    1  UNL1        0.1719
     20 N           7.0938   -4.7854   27.0336 N.ar    1  UNL1       -0.2210
     21 C           6.9724   -4.7190   28.5272 C.ar    1  UNL1        0.1014
     22 C           7.1819   -5.7483   29.5979 C.ar    1  UNL1        0.0503
     23 C           6.9818   -5.3829   31.0389 C.ar    1  UNL1        0.1417
     24 F           7.1913   -6.4122   32.1098 F       1  UNL1       -0.2041
     25 C           6.5722   -3.9882   31.4091 C.ar    1  UNL1        0.0312
     26 C           6.3627   -2.9589   30.3383 C.ar    1  UNL1        0.0211
     27 C           6.5628   -3.3243   28.8973 C.ar    1  UNL1        0.0797
     28 N           6.4311   -2.5288   27.6325 N.ar    1  UNL1       -0.3011
     29 C           6.0399   -1.0839   27.5365 C.3     1  UNL1        0.1496
     30 C           4.6165   -0.6748   27.7744 C.2     1  UNL1        0.0733
     31 O           3.5164   -1.6887   27.6647 O.co2   1  UNL1       -0.5472
     32 O           4.2931    0.7481   28.1220 O.co2   1  UNL1       -0.5472
@<TRIPOS>UNITY_ATOM_ATTR
31 1
charge -1
@<TRIPOS>BOND
     1    13    14    1
     2    14    12    1
     3    12    11    1
     4    11     7    1
     5     7     8   am
     6     8     9    2
     7     8     1    1
     8     1     2   ar
     9     2     3   ar
    10     3     4   ar
    11     4    15    1
    12    15    16    1
    13     4     5   ar
    14     5    17    1
    15    17    18    1
    16    18    19    1
    17    19    20   ar
    18    20    21   ar
    19    21    22   ar
    20    22    23   ar
    21    23    24    1
    22    23    25   ar
    23    25    26   ar
    24    26    27   ar
    25    27    28   ar
    26    28    29    1
    27    29    30    1
    28    30    31   ar
    29    30    32   ar
    30     5     6   ar
    31     6     1   ar
    32    28    19   ar
    33    27    21   ar
    34     7    10    1
@<TRIPOS>MOLECULE
*****
 32 34 0 0 0
SMALL
GASTEIGER

@<TRIPOS>ATOM
      1 C           3.6978   -1.0770   23.9618 C.ar    1  UNL1        0.0533
      2 C           3.2107   -1.1269   22.5440 C.ar    1  UNL1        0.0076
      3 C           3.7517   -2.1605   21.6010 C.ar    1  UNL1        0.0367
      4 C           4.7797   -3.1442   22.0759 C.ar    1  UNL1        0.1355
      5 C           5.2668   -3.0942   23.4938 C.ar    1  UNL1        0.0232
      6 C           4.7259   -2.0607   24.4367 C.ar    1  UNL1        0.0041
      7 N           2.7491   -0.4358   26.2938 N.am    1  UNL1       -0.3009
      8 C           3.1569   -0.0435   24.9047 C.2     1  UNL1        0.2458
      9 O           3.0237    1.3824   24.4584 O.2     1  UNL1       -0.2701
     10 H           2.8365   -1.3716   26.5868 H       1  UNL1        0.1497
     11 C           2.2081    0.5979   27.2367 C.3     1  UNL1        0.0897
     12 C           1.7060    0.1891   28.5898 C.3     1  UNL1        0.0213
     13 C          -0.8132    0.6600   28.1630 C.3     1  UNL1        0.0001
     14 C           0.2651   -0.1853   28.7735 C.3     1  UNL1        0.0017
     15 O           5.3207   -4.1777   21.1330 O.3     1  UNL1       -0.4717
     16 C           4.8232   -4.2367   19.7191 C.3     1  UNL1        0.2525
     17 C           6.2949   -4.0779   23.9687 C.3     1  UNL1        0.0943
     18 S           7.3925   -3.6306   24.8880 S.3     1  UNL1       -0.0724
     19 C           7.3537   -4.0048   26.3401 C.ar    1  UNL1        0.1719
     20 N           6.7255   -3.2024   27.4409 N.ar    1  UNL1       -0.2210
     21 C           6.9198   -3.9487   28.7274 C.ar    1  UNL1        0.1014
     22 C           6.5120   -3.6410   30.1377 C.ar    1  UNL1        0.0503
     23 C           6.8526   -4.5968   31.2424 C.ar    1  UNL1        0.1417
     24 F           6.4448   -4.2890   32.6528 F       1  UNL1       -0.2041
     25 C           7.6008   -5.8604   30.9368 C.ar    1  UNL1        0.0312
     26 C           8.0086   -6.1681   29.5266 C.ar    1  UNL1        0.0211
     27 C           7.6681   -5.2123   28.4219 C.ar    1  UNL1        0.0797
     28 N           7.9362   -5.2469   26.9464 N.ar    1  UNL1       -0.3011
     29 C           8.6599   -6.3331   26.2071 C.3     1  UNL1        0.1496
     30 C           7.8864   -7.3449   25.4148 C.2     1  UNL1        0.0733
     31 O           7.0116   -8.3394   26.1189 O.co2   1  UNL1       -0.5472
     32 O           7.9878   -7.3625   23.9183 O.co2   1  UNL1       -0.5472
@<TRIPOS>UNITY_ATOM_ATTR
31 1
charge -1
@<TRIPOS>BOND
     1    13    14    1
     2    14    12    1
     3    12    11    1
     4    11     7    1
     5     7     8   am
     6     8     9    2
     7     8     1    1
     8     1     2   ar
     9     2     3   ar
    10     3     4   ar
    11     4    15    1
    12    15    16    1
    13     4     5   ar
    14     5    17    1
    15    17    18    1
    16    18    19    1
    17    19    20   ar
    18    20    21   ar
    19    21    22   ar
    20    22    23   ar
    21    23    24    1
    22    23    25   ar
    23    25    26   ar
    24    26    27   ar
    25    27    28   ar
    26    28    29    1
    27    29    30    1
    28    30    31   ar
    29    30    32   ar
    30     5     6   ar
    31     6     1   ar
    32    28    19   ar
    33    27    21   ar
    34     7    10    1
