@<TRIPOS>MOLECULE
*****
 24 27 0 0 0
SMALL
GASTEIGER

@<TRIPOS>ATOM
      1 C          -7.8718  -18.1739   22.0594 C.2     1  UNL1       -0.0420
      2 C          -8.5097  -16.8580   22.3933 C.2     1  UNL1       -0.0240
      3 C          -9.9847  -16.9832   22.1514 C.ar    1  UNL1       -0.0078
      4 C         -11.1140  -16.0085   22.3089 C.ar    1  UNL1       -0.0006
      5 C         -12.5169  -16.4272   21.9830 C.ar    1  UNL1       -0.0000
      6 C         -12.7907  -17.8205   21.4996 C.ar    1  UNL1       -0.0003
      7 C         -11.6615  -18.7952   21.3421 C.ar    1  UNL1       -0.0040
      8 C         -10.2585  -18.3765   21.6680 C.ar    1  UNL1       -0.0184
      9 C          -8.9527  -19.1124   21.6112 C.3     1  UNL1        0.0480
     10 C          -6.4098  -18.4949   22.1567 C.3     1  UNL1        0.0394
     11 C          -5.7244  -19.2179   21.0353 C.3     1  UNL1        0.0765
     12 F          -1.2598  -17.9336   18.5257 F       1  UNL1       -0.2357
     13 C          -2.2249  -18.3612   19.5913 C.3     1  UNL1        0.1782
     14 C          -1.8749  -18.7222   21.0046 C.3     1  UNL1        0.0540
     15 C          -3.1432  -19.0870   21.7175 C.3     1  UNL1        0.0750
     16 N          -4.2771  -18.9516   20.7449 N.3     1  UNL1       -0.2700
     17 C          -3.7096  -18.5030   19.4308 C.3     1  UNL1        0.1078
     18 C          -7.7975  -15.6320   22.8831 C.3     1  UNL1        0.0730
     19 C          -7.4041  -15.5195   24.3263 C.ar    1  UNL1        0.0825
     20 C          -8.4268  -15.7378   25.4017 C.ar    1  UNL1        0.1139
     21 N          -8.0335  -15.6253   26.8448 N.ar    1  UNL1       -0.2394
     22 C          -6.6174  -15.2944   27.2125 C.ar    1  UNL1        0.1195
     23 C          -5.5947  -15.0761   26.1371 C.ar    1  UNL1        0.1191
     24 N          -5.9880  -15.1886   24.6940 N.ar    1  UNL1       -0.2446
@<TRIPOS>BOND
     1    12    13    1
     2    13    14    1
     3    14    15    1
     4    15    16    1
     5    16    11    1
     6    11    10    1
     7    10     1    1
     8     1     2    2
     9     2    18    1
    10    18    19    1
    11    19    20   ar
    12    20    21   ar
    13    21    22   ar
    14    22    23   ar
    15    23    24   ar
    16     2     3    1
    17     3     4   ar
    18     4     5   ar
    19     5     6   ar
    20     6     7   ar
    21     7     8   ar
    22     8     9    1
    23    16    17    1
    24    17    13    1
    25     9     1    1
    26    24    19   ar
    27     8     3   ar
@<TRIPOS>MOLECULE
*****
 24 27 0 0 0
SMALL
GASTEIGER

@<TRIPOS>ATOM
      1 C          -9.7181  -17.9182   24.6657 C.2     1  UNL1       -0.0420
      2 C          -8.6262  -17.2265   23.9045 C.2     1  UNL1       -0.0240
      3 C          -7.7907  -16.4596   24.8863 C.ar    1  UNL1       -0.0078
      4 C          -6.5803  -15.5912   24.7114 C.ar    1  UNL1       -0.0006
      5 C          -5.9453  -14.9406   25.9045 C.ar    1  UNL1       -0.0000
      6 C          -6.5208  -15.1584   27.2725 C.ar    1  UNL1       -0.0003
      7 C          -7.7312  -16.0269   27.4474 C.ar    1  UNL1       -0.0040
      8 C          -8.3662  -16.6775   26.2543 C.ar    1  UNL1       -0.0184
      9 C          -9.5573  -17.5789   26.1179 C.3     1  UNL1        0.0480
     10 C         -10.7835  -18.7953   24.0779 C.3     1  UNL1        0.0394
     11 C         -11.9217  -18.1843   23.3155 C.3     1  UNL1        0.0765
     12 F         -11.6272  -15.2134   18.9603 F       1  UNL1       -0.2357
     13 C         -11.5909  -16.3904   19.8894 C.3     1  UNL1        0.1782
     14 C         -11.2599  -17.8034   19.5099 C.3     1  UNL1        0.0540
     15 C         -11.3436  -18.6473   20.7471 C.3     1  UNL1        0.0750
     16 N         -11.7262  -17.7560   21.8913 N.3     1  UNL1       -0.2700
     17 C         -11.8791  -16.3611   21.3612 C.3     1  UNL1        0.1078
     18 C          -8.4082  -17.2903   22.4218 C.3     1  UNL1        0.0730
     19 C          -7.3849  -18.2288   21.8540 C.ar    1  UNL1        0.0825
     20 C          -7.7808  -19.2235   20.8033 C.ar    1  UNL1        0.1139
     21 N          -6.7577  -20.1619   20.2354 N.ar    1  UNL1       -0.2394
     22 C          -5.3387  -20.1057   20.7183 C.ar    1  UNL1        0.1195
     23 C          -4.9428  -19.1110   21.7689 C.ar    1  UNL1        0.1191
     24 N          -5.9659  -18.1726   22.3368 N.ar    1  UNL1       -0.2446
@<TRIPOS>BOND
     1    12    13    1
     2    13    14    1
     3    14    15    1
     4    15    16    1
     5    16    11    1
     6    11    10    1
     7    10     1    1
     8     1     2    2
     9     2    18    1
    10    18    19    1
    11    19    20   ar
    12    20    21   ar
    13    21    22   ar
    14    22    23   ar
    15    23    24   ar
    16     2     3    1
    17     3     4   ar
    18     4     5   ar
    19     5     6   ar
    20     6     7   ar
    21     7     8   ar
    22     8     9    1
    23    16    17    1
    24    17    13    1
    25     9     1    1
    26    24    19   ar
    27     8     3   ar
@<TRIPOS>MOLECULE
*****
 24 27 0 0 0
SMALL
GASTEIGER

@<TRIPOS>ATOM
      1 C          -9.4797  -18.9718   23.1274 C.2     1  UNL1       -0.0420
      2 C          -8.3305  -18.2125   22.5335 C.2     1  UNL1       -0.0240
      3 C          -7.9375  -17.1351   23.5003 C.ar    1  UNL1       -0.0078
      4 C          -6.8715  -16.0811   23.4497 C.ar    1  UNL1       -0.0006
      5 C          -6.7118  -15.1205   24.5906 C.ar    1  UNL1       -0.0000
      6 C          -7.6182  -15.2139   25.7821 C.ar    1  UNL1       -0.0003
      7 C          -8.6843  -16.2679   25.8327 C.ar    1  UNL1       -0.0040
      8 C          -8.8439  -17.2285   24.6918 C.ar    1  UNL1       -0.0184
      9 C          -9.7970  -18.3636   24.4614 C.3     1  UNL1        0.0480
     10 C         -10.1874  -20.1349   22.4979 C.3     1  UNL1        0.0394
     11 C         -11.1514  -19.9062   21.3718 C.3     1  UNL1        0.0765
     12 F         -11.4162  -15.2731   18.8528 F       1  UNL1       -0.2357
     13 C         -11.6655  -16.3793   19.8346 C.3     1  UNL1        0.1782
     14 C         -12.6296  -16.3383   20.9830 C.3     1  UNL1        0.0540
     15 C         -12.5543  -17.6545   21.6986 C.3     1  UNL1        0.0750
     16 N         -11.5437  -18.5090   20.9925 N.3     1  UNL1       -0.2700
     17 C         -10.9943  -17.7209   19.8404 C.3     1  UNL1        0.1078
     18 C          -7.6871  -18.4831   21.2057 C.3     1  UNL1        0.0730
     19 C          -6.2345  -18.8514   21.1373 C.ar    1  UNL1        0.0825
     20 C          -5.5301  -19.3555   22.3619 C.ar    1  UNL1        0.1139
     21 N          -4.0776  -19.7238   22.2936 N.ar    1  UNL1       -0.2394
     22 C          -3.3296  -19.5878   21.0006 C.ar    1  UNL1        0.1195
     23 C          -4.0340  -19.0836   19.7760 C.ar    1  UNL1        0.1191
     24 N          -5.4864  -18.7154   19.8443 N.ar    1  UNL1       -0.2446
@<TRIPOS>BOND
     1    12    13    1
     2    13    14    1
     3    14    15    1
     4    15    16    1
     5    16    11    1
     6    11    10    1
     7    10     1    1
     8     1     2    2
     9     2    18    1
    10    18    19    1
    11    19    20   ar
    12    20    21   ar
    13    21    22   ar
    14    22    23   ar
    15    23    24   ar
    16     2     3    1
    17     3     4   ar
    18     4     5   ar
    19     5     6   ar
    20     6     7   ar
    21     7     8   ar
    22     8     9    1
    23    16    17    1
    24    17    13    1
    25     9     1    1
    26    24    19   ar
    27     8     3   ar
@<TRIPOS>MOLECULE
*****
 24 27 0 0 0
SMALL
GASTEIGER

@<TRIPOS>ATOM
      1 C          -7.7887  -18.5900   21.5550 C.2     1  UNL1       -0.0420
      2 C          -6.3450  -18.6756   21.9529 C.2     1  UNL1       -0.0240
      3 C          -6.0611  -17.5569   22.9110 C.ar    1  UNL1       -0.0078
      4 C          -4.8115  -17.1455   23.6316 C.ar    1  UNL1       -0.0006
      5 C          -4.8303  -15.9569   24.5465 C.ar    1  UNL1       -0.0000
      6 C          -6.0985  -15.1798   24.7407 C.ar    1  UNL1       -0.0003
      7 C          -7.3480  -15.5913   24.0200 C.ar    1  UNL1       -0.0040
      8 C          -7.3293  -16.7798   23.1052 C.ar    1  UNL1       -0.0184
      9 C          -8.3970  -17.4183   22.2671 C.3     1  UNL1        0.0480
     10 C          -8.4993  -19.5137   20.6107 C.3     1  UNL1        0.0394
     11 C          -9.6268  -19.0000   19.7652 C.3     1  UNL1        0.0765
     12 F         -13.7217  -17.9255   22.9208 F       1  UNL1       -0.2357
     13 C         -12.6698  -17.8062   21.8582 C.3     1  UNL1        0.1782
     14 C         -12.4776  -16.6398   20.9348 C.3     1  UNL1        0.0540
     15 C         -11.3143  -16.9451   20.0384 C.3     1  UNL1        0.0750
     16 N         -10.7875  -18.3001   20.4078 N.3     1  UNL1       -0.2700
     17 C         -11.6252  -18.8323   21.5325 C.3     1  UNL1        0.1078
     18 C          -5.3584  -19.7001   21.4764 C.3     1  UNL1        0.0730
     19 C          -4.0422  -19.2644   20.9036 C.ar    1  UNL1        0.0825
     20 C          -2.7621  -19.6726   21.5704 C.ar    1  UNL1        0.1139
     21 N          -1.4460  -19.2370   20.9976 N.ar    1  UNL1       -0.2394
     22 C          -1.4101  -18.3930   19.7581 C.ar    1  UNL1        0.1195
     23 C          -2.6902  -17.9848   19.0914 C.ar    1  UNL1        0.1191
     24 N          -4.0063  -18.4204   19.6641 N.ar    1  UNL1       -0.2446
@<TRIPOS>BOND
     1    12    13    1
     2    13    14    1
     3    14    15    1
     4    15    16    1
     5    16    11    1
     6    11    10    1
     7    10     1    1
     8     1     2    2
     9     2    18    1
    10    18    19    1
    11    19    20   ar
    12    20    21   ar
    13    21    22   ar
    14    22    23   ar
    15    23    24   ar
    16     2     3    1
    17     3     4   ar
    18     4     5   ar
    19     5     6   ar
    20     6     7   ar
    21     7     8   ar
    22     8     9    1
    23    16    17    1
    24    17    13    1
    25     9     1    1
    26    24    19   ar
    27     8     3   ar
@<TRIPOS>MOLECULE
*****
 24 27 0 0 0
SMALL
GASTEIGER

@<TRIPOS>ATOM
      1 C          -6.3682  -18.0373   22.3321 C.2     1  UNL1       -0.0420
      2 C          -6.3243  -19.1019   21.2763 C.2     1  UNL1       -0.0240
      3 C          -7.6851  -19.1919   20.6518 C.ar    1  UNL1       -0.0078
      4 C          -8.2328  -20.0623   19.5598 C.ar    1  UNL1       -0.0006
      5 C          -9.6654  -19.9236   19.1376 C.ar    1  UNL1       -0.0000
      6 C         -10.5504  -18.9146   19.8075 C.ar    1  UNL1       -0.0003
      7 C         -10.0028  -18.0443   20.8995 C.ar    1  UNL1       -0.0040
      8 C          -8.5702  -18.1829   21.3217 C.ar    1  UNL1       -0.0184
      9 C          -7.7562  -17.4693   22.3601 C.3     1  UNL1        0.0480
     10 C          -5.2249  -17.6148   23.2063 C.3     1  UNL1        0.0394
     11 C          -5.1826  -16.2237   23.7657 C.3     1  UNL1        0.0765
     12 F          -8.9495  -14.8238   27.1909 F       1  UNL1       -0.2357
     13 C          -7.6352  -15.2628   26.6165 C.3     1  UNL1        0.1782
     14 C          -6.3918  -15.5728   27.3961 C.3     1  UNL1        0.0540
     15 C          -5.3217  -15.9705   26.4230 C.3     1  UNL1        0.0750
     16 N          -5.9038  -15.9063   25.0421 N.3     1  UNL1       -0.2700
     17 C          -7.3337  -15.4689   25.1616 C.3     1  UNL1        0.1078
     18 C          -5.1293  -19.9310   20.9094 C.3     1  UNL1        0.0730
     19 C          -3.8613  -19.2638   20.4654 C.ar    1  UNL1        0.0825
     20 C          -2.5449  -19.6974   21.0391 C.ar    1  UNL1        0.1139
     21 N          -1.2770  -19.0303   20.5952 N.ar    1  UNL1       -0.2394
     22 C          -1.3253  -17.9295   19.5774 C.ar    1  UNL1        0.1195
     23 C          -2.6417  -17.4958   19.0036 C.ar    1  UNL1        0.1191
     24 N          -3.9097  -18.1629   19.4476 N.ar    1  UNL1       -0.2446
@<TRIPOS>BOND
     1    12    13    1
     2    13    14    1
     3    14    15    1
     4    15    16    1
     5    16    11    1
     6    11    10    1
     7    10     1    1
     8     1     2    2
     9     2    18    1
    10    18    19    1
    11    19    20   ar
    12    20    21   ar
    13    21    22   ar
    14    22    23   ar
    15    23    24   ar
    16     2     3    1
    17     3     4   ar
    18     4     5   ar
    19     5     6   ar
    20     6     7   ar
    21     7     8   ar
    22     8     9    1
    23    16    17    1
    24    17    13    1
    25     9     1    1
    26    24    19   ar
    27     8     3   ar
@<TRIPOS>MOLECULE
*****
 24 27 0 0 0
SMALL
GASTEIGER

@<TRIPOS>ATOM
      1 C          -7.1585  -19.1084   22.0024 C.2     1  UNL1       -0.0420
      2 C          -6.5235  -17.8496   22.5144 C.2     1  UNL1       -0.0240
      3 C          -5.0352  -18.0333   22.4784 C.ar    1  UNL1       -0.0078
      4 C          -3.9026  -17.1282   22.8630 C.ar    1  UNL1       -0.0006
      5 C          -2.4851  -17.5956   22.7135 C.ar    1  UNL1       -0.0000
      6 C          -2.2003  -18.9680   22.1793 C.ar    1  UNL1       -0.0003
      7 C          -3.3329  -19.8731   21.7947 C.ar    1  UNL1       -0.0040
      8 C          -4.7504  -19.4057   21.9442 C.ar    1  UNL1       -0.0184
      9 C          -6.0626  -20.0702   21.6501 C.3     1  UNL1        0.0480
     10 C          -8.6308  -19.3611   21.8667 C.3     1  UNL1        0.0394
     11 C          -9.5049  -19.3749   23.0856 C.3     1  UNL1        0.0765
     12 F         -14.3100  -17.6878   24.4803 F       1  UNL1       -0.2357
     13 C         -13.0969  -18.0227   23.6641 C.3     1  UNL1        0.1782
     14 C         -12.9368  -17.7986   22.1896 C.3     1  UNL1        0.0540
     15 C         -11.5718  -18.2779   21.7934 C.3     1  UNL1        0.0750
     16 N         -10.8882  -18.7982   23.0231 N.3     1  UNL1       -0.2700
     17 C         -11.8307  -18.6404   24.1793 C.3     1  UNL1        0.1078
     18 C          -7.2493  -16.6224   22.9805 C.3     1  UNL1        0.0730
     19 C          -7.2128  -16.2342   24.4290 C.ar    1  UNL1        0.0825
     20 C          -5.9962  -15.5643   24.9955 C.ar    1  UNL1        0.1139
     21 N          -5.9597  -15.1761   26.4439 N.ar    1  UNL1       -0.2394
     22 C          -7.1398  -15.4579   27.3258 C.ar    1  UNL1        0.1195
     23 C          -8.3565  -16.1278   26.7593 C.ar    1  UNL1        0.1191
     24 N          -8.3930  -16.5160   25.3109 N.ar    1  UNL1       -0.2446
@<TRIPOS>BOND
     1    12    13    1
     2    13    14    1
     3    14    15    1
     4    15    16    1
     5    16    11    1
     6    11    10    1
     7    10     1    1
     8     1     2    2
     9     2    18    1
    10    18    19    1
    11    19    20   ar
    12    20    21   ar
    13    21    22   ar
    14    22    23   ar
    15    23    24   ar
    16     2     3    1
    17     3     4   ar
    18     4     5   ar
    19     5     6   ar
    20     6     7   ar
    21     7     8   ar
    22     8     9    1
    23    16    17    1
    24    17    13    1
    25     9     1    1
    26    24    19   ar
    27     8     3   ar
@<TRIPOS>MOLECULE
*****
 24 27 0 0 0
SMALL
GASTEIGER

@<TRIPOS>ATOM
      1 C          -7.1914  -17.3785   22.8154 C.2     1  UNL1       -0.0420
      2 C          -8.3915  -17.2020   23.6978 C.2     1  UNL1       -0.0240
      3 C          -7.9675  -16.4209   24.9062 C.ar    1  UNL1       -0.0078
      4 C          -8.7239  -15.9489   26.1124 C.ar    1  UNL1       -0.0006
      5 C          -8.0182  -15.1708   27.1831 C.ar    1  UNL1       -0.0000
      6 C          -6.5561  -14.8646   27.0475 C.ar    1  UNL1       -0.0003
      7 C          -5.7997  -15.3366   25.8413 C.ar    1  UNL1       -0.0040
      8 C          -6.5054  -16.1147   24.7706 C.ar    1  UNL1       -0.0184
      9 C          -6.0258  -16.7065   23.4784 C.3     1  UNL1        0.0480
     10 C          -7.1622  -18.1003   21.5008 C.3     1  UNL1        0.0394
     11 C          -6.3430  -19.3475   21.3480 C.3     1  UNL1        0.0765
     12 F          -1.6848  -18.6790   18.9533 F       1  UNL1       -0.2357
     13 C          -2.7254  -18.9424   20.0010 C.3     1  UNL1        0.1782
     14 C          -2.4639  -19.2559   21.4444 C.3     1  UNL1        0.0540
     15 C          -3.7872  -19.4458   22.1246 C.3     1  UNL1        0.0750
     16 N          -4.8666  -19.2497   21.1017 N.3     1  UNL1       -0.2700
     17 C          -4.2104  -18.9386   19.7892 C.3     1  UNL1        0.1078
     18 C          -9.7731  -17.7162   23.4205 C.3     1  UNL1        0.0730
     19 C         -10.5602  -17.1676   22.2674 C.ar    1  UNL1        0.0825
     20 C         -11.9335  -17.6967   21.9774 C.ar    1  UNL1        0.1139
     21 N         -12.7206  -17.1482   20.8243 N.ar    1  UNL1       -0.2394
     22 C         -12.1343  -16.0704   19.9613 C.ar    1  UNL1        0.1195
     23 C         -10.7610  -15.5413   20.2513 C.ar    1  UNL1        0.1191
     24 N          -9.9739  -16.0898   21.4043 N.ar    1  UNL1       -0.2446
@<TRIPOS>BOND
     1    12    13    1
     2    13    14    1
     3    14    15    1
     4    15    16    1
     5    16    11    1
     6    11    10    1
     7    10     1    1
     8     1     2    2
     9     2    18    1
    10    18    19    1
    11    19    20   ar
    12    20    21   ar
    13    21    22   ar
    14    22    23   ar
    15    23    24   ar
    16     2     3    1
    17     3     4   ar
    18     4     5   ar
    19     5     6   ar
    20     6     7   ar
    21     7     8   ar
    22     8     9    1
    23    16    17    1
    24    17    13    1
    25     9     1    1
    26    24    19   ar
    27     8     3   ar
@<TRIPOS>MOLECULE
*****
 24 27 0 0 0
SMALL
GASTEIGER

@<TRIPOS>ATOM
      1 C          -5.7441  -18.9074   21.8737 C.2     1  UNL1       -0.0420
      2 C          -7.1028  -18.3156   22.1055 C.2     1  UNL1       -0.0240
      3 C          -6.9574  -17.1918   23.0884 C.ar    1  UNL1       -0.0078
      4 C          -7.9568  -16.2488   23.6898 C.ar    1  UNL1       -0.0006
      5 C          -7.5076  -15.2031   24.6669 C.ar    1  UNL1       -0.0000
      6 C          -6.0591  -15.1004   25.0425 C.ar    1  UNL1       -0.0003
      7 C          -5.0596  -16.0434   24.4410 C.ar    1  UNL1       -0.0040
      8 C          -5.5088  -17.0891   23.4640 C.ar    1  UNL1       -0.0184
      9 C          -4.7590  -18.1494   22.7132 C.3     1  UNL1        0.0480
     10 C          -5.4264  -20.0556   20.9623 C.3     1  UNL1        0.0394
     11 C          -3.9995  -20.3755   20.6283 C.3     1  UNL1        0.0765
     12 F           0.1761  -17.2101   19.9759 F       1  UNL1       -0.2357
     13 C          -1.1724  -17.8454   19.8087 C.3     1  UNL1        0.1782
     14 C          -2.2171  -17.4467   18.8089 C.3     1  UNL1        0.0540
     15 C          -3.4033  -18.3459   18.9942 C.3     1  UNL1        0.0750
     16 N          -3.0917  -19.3004   20.1086 N.3     1  UNL1       -0.2700
     17 C          -1.7129  -18.9912   20.6120 C.3     1  UNL1        0.1078
     18 C          -8.3823  -18.7680   21.4667 C.3     1  UNL1        0.0730
     19 C          -9.6516  -18.0059   21.7081 C.ar    1  UNL1        0.0825
     20 C         -10.6018  -18.4517   22.7798 C.ar    1  UNL1        0.1139
     21 N         -11.8710  -17.6897   23.0212 N.ar    1  UNL1       -0.2394
     22 C         -12.1901  -16.4819   22.1909 C.ar    1  UNL1        0.1195
     23 C         -11.2399  -16.0361   21.1193 C.ar    1  UNL1        0.1191
     24 N          -9.9707  -16.7981   20.8778 N.ar    1  UNL1       -0.2446
@<TRIPOS>BOND
     1    12    13    1
     2    13    14    1
     3    14    15    1
     4    15    16    1
     5    16    11    1
     6    11    10    1
     7    10     1    1
     8     1     2    2
     9     2    18    1
    10    18    19    1
    11    19    20   ar
    12    20    21   ar
    13    21    22   ar
    14    22    23   ar
    15    23    24   ar
    16     2     3    1
    17     3     4   ar
    18     4     5   ar
    19     5     6   ar
    20     6     7   ar
    21     7     8   ar
    22     8     9    1
    23    16    17    1
    24    17    13    1
    25     9     1    1
    26    24    19   ar
    27     8     3   ar
@<TRIPOS>MOLECULE
*****
 24 27 0 0 0
SMALL
GASTEIGER

@<TRIPOS>ATOM
      1 C          -8.8599  -19.3004   22.0767 C.2     1  UNL1       -0.0420
      2 C          -9.7732  -18.5893   23.0307 C.2     1  UNL1       -0.0240
      3 C         -10.7408  -17.7736   22.2254 C.ar    1  UNL1       -0.0078
      4 C         -11.8682  -16.8692   22.6264 C.ar    1  UNL1       -0.0006
      5 C         -12.6803  -16.1718   21.5757 C.ar    1  UNL1       -0.0000
      6 C         -12.3649  -16.3788   20.1239 C.ar    1  UNL1       -0.0003
      7 C         -11.2375  -17.2832   19.7228 C.ar    1  UNL1       -0.0040
      8 C         -10.4254  -17.9806   20.7736 C.ar    1  UNL1       -0.0184
      9 C          -9.2630  -18.9242   20.6817 C.3     1  UNL1        0.0480
     10 C          -7.7401  -20.2252   22.4518 C.3     1  UNL1        0.0394
     11 C          -6.3805  -20.0412   21.8456 C.3     1  UNL1        0.0765
     12 F          -4.5048  -15.5928   23.9845 F       1  UNL1       -0.2357
     13 C          -4.5815  -16.9664   23.3867 C.3     1  UNL1        0.1782
     14 C          -3.4225  -17.8856   23.1378 C.3     1  UNL1        0.0540
     15 C          -3.9554  -19.1493   22.5303 C.3     1  UNL1        0.0750
     16 N          -5.4436  -19.0112   22.4036 N.3     1  UNL1       -0.2700
     17 C          -5.8306  -17.6620   22.9330 C.3     1  UNL1        0.1078
     18 C          -9.7271  -18.6782   24.5274 C.3     1  UNL1        0.0730
     19 C          -9.1429  -17.5521   25.3280 C.ar    1  UNL1        0.0825
     20 C          -8.7138  -16.2886   24.6429 C.ar    1  UNL1        0.1139
     21 N          -8.1296  -15.1626   25.4434 N.ar    1  UNL1       -0.2394
     22 C          -7.9746  -15.3001   26.9290 C.ar    1  UNL1        0.1195
     23 C          -8.4038  -16.5637   27.6141 C.ar    1  UNL1        0.1191
     24 N          -8.9879  -17.6897   26.8136 N.ar    1  UNL1       -0.2446
@<TRIPOS>BOND
     1    12    13    1
     2    13    14    1
     3    14    15    1
     4    15    16    1
     5    16    11    1
     6    11    10    1
     7    10     1    1
     8     1     2    2
     9     2    18    1
    10    18    19    1
    11    19    20   ar
    12    20    21   ar
    13    21    22   ar
    14    22    23   ar
    15    23    24   ar
    16     2     3    1
    17     3     4   ar
    18     4     5   ar
    19     5     6   ar
    20     6     7   ar
    21     7     8   ar
    22     8     9    1
    23    16    17    1
    24    17    13    1
    25     9     1    1
    26    24    19   ar
    27     8     3   ar
