@<TRIPOS>MOLECULE
*****
 27 30 0 0 0
SMALL
GASTEIGER

@<TRIPOS>ATOM
      1 C          -4.3739  -16.7217   23.7223 C.ar    1  UNL1        0.0192
      2 C          -4.0917  -17.3112   25.0725 C.ar    1  UNL1        0.0047
      3 C          -4.7779  -16.7629   26.2884 C.ar    1  UNL1        0.0369
      4 C          -5.7463  -15.6252   26.1543 C.ar    1  UNL1        0.1386
      5 C          -6.0284  -15.0358   24.8041 C.ar    1  UNL1        0.0369
      6 C          -5.3423  -15.5840   23.5882 C.ar    1  UNL1        0.0047
      7 C          -0.4951  -16.5229   20.2704 C.3     1  UNL1        0.1571
      8 N          -1.7484  -17.1705   20.7804 N.ar    1  UNL1       -0.2149
      9 N          -2.4345  -16.6224   21.9963 N.ar    1  UNL1       -0.1671
     10 C          -3.6877  -17.2699   22.5063 C.ar    1  UNL1        0.0968
     11 C          -4.2548  -18.4657   21.8003 C.ar    1  UNL1       -0.0022
     12 C          -3.5686  -19.0140   20.5843 C.ar    1  UNL1        0.0329
     13 C          -2.3154  -18.3664   20.0743 C.ar    1  UNL1        0.2721
     14 O          -1.6292  -18.9145   18.8583 O.2     1  UNL1       -0.2659
     15 C          -4.3561  -20.1956   20.1008 C.3     1  UNL1        0.0313
     16 C          -5.5289  -20.3776   21.0180 C.3     1  UNL1        0.0095
     17 C          -5.4663  -19.3086   22.0684 C.3     1  UNL1        0.0281
     18 O          -6.4324  -15.0770   27.3702 O.3     1  UNL1       -0.4754
     19 C          -7.9020  -15.3031   27.5681 C.3     1  UNL1        0.2068
     20 C          -8.5714  -16.4851   26.9321 C.3     1  UNL1        0.0646
     21 C          -9.1130  -16.3797   25.5372 C.3     1  UNL1        0.0759
     22 N          -9.3180  -17.6184   24.7166 N.3     1  UNL1       -0.2726
     23 C          -8.8267  -17.6697   23.3003 C.3     1  UNL1        0.0721
     24 C          -9.0317  -18.9083   22.4797 C.3     1  UNL1        0.0174
     25 C          -9.7280  -20.0959   23.0753 C.3     1  UNL1        0.0029
     26 C         -10.2193  -20.0447   24.4916 C.3     1  UNL1        0.0174
     27 C         -10.0143  -18.8060   25.3123 C.3     1  UNL1        0.0721
@<TRIPOS>BOND
     1     7     8    1
     2     8     9   ar
     3     9    10   ar
     4    10     1    1
     5     1     2   ar
     6     2     3   ar
     7     3     4   ar
     8     4    18    1
     9    18    19    1
    10    19    20    1
    11    20    21    1
    12    21    22    1
    13    22    23    1
    14    23    24    1
    15    24    25    1
    16    25    26    1
    17    26    27    1
    18     4     5   ar
    19     5     6   ar
    20    10    11   ar
    21    11    12   ar
    22    12    13   ar
    23    13    14    2
    24    12    15    1
    25    15    16    1
    26    16    17    1
    27    13     8   ar
    28     6     1   ar
    29    17    11    1
    30    27    22    1
@<TRIPOS>MOLECULE
*****
 27 30 0 0 0
SMALL
GASTEIGER

@<TRIPOS>ATOM
      1 C          -7.3572  -17.4686   22.5362 C.ar    1  UNL1        0.0192
      2 C          -8.3377  -17.3227   21.4103 C.ar    1  UNL1        0.0047
      3 C          -9.6755  -16.6911   21.6580 C.ar    1  UNL1        0.0369
      4 C         -10.0329  -16.2053   23.0315 C.ar    1  UNL1        0.1386
      5 C          -9.0524  -16.3512   24.1573 C.ar    1  UNL1        0.0369
      6 C          -7.7146  -16.9828   23.9097 C.ar    1  UNL1        0.0047
      7 C          -2.2275  -17.6099   23.3522 C.3     1  UNL1        0.1571
      8 N          -3.4546  -18.1709   22.6966 N.ar    1  UNL1       -0.2149
      9 N          -4.7924  -17.5393   22.9441 N.ar    1  UNL1       -0.1671
     10 C          -6.0194  -18.1002   22.2886 C.ar    1  UNL1        0.0968
     11 C          -5.9086  -19.2927   21.3854 C.ar    1  UNL1       -0.0022
     12 C          -4.5708  -19.9243   21.1378 C.ar    1  UNL1        0.0329
     13 C          -3.3438  -19.3634   21.7934 C.ar    1  UNL1        0.2721
     14 O          -2.0059  -19.9950   21.5458 O.2     1  UNL1       -0.2659
     15 C          -4.7703  -21.0822   20.2054 C.3     1  UNL1        0.0313
     16 C          -6.2314  -21.1662   19.8768 C.3     1  UNL1        0.0095
     17 C          -6.9350  -20.0603   20.6060 C.3     1  UNL1        0.0281
     18 O         -11.3706  -15.5737   23.2791 O.3     1  UNL1       -0.4754
     19 C         -12.5051  -15.8232   22.3299 C.3     1  UNL1        0.2068
     20 C         -13.1976  -17.1537   22.3220 C.3     1  UNL1        0.0646
     21 C         -13.0466  -18.0848   23.4884 C.3     1  UNL1        0.0759
     22 N         -11.8043  -18.9132   23.6308 N.3     1  UNL1       -0.2726
     23 C         -11.1928  -19.5616   22.4242 C.3     1  UNL1        0.0721
     24 C          -9.9505  -20.3899   22.5665 C.3     1  UNL1        0.0174
     25 C          -9.3195  -20.5700   23.9153 C.3     1  UNL1        0.0029
     26 C          -9.9309  -19.9216   25.1219 C.3     1  UNL1        0.0174
     27 C         -11.1733  -19.0932   24.9796 C.3     1  UNL1        0.0721
@<TRIPOS>BOND
     1     7     8    1
     2     8     9   ar
     3     9    10   ar
     4    10     1    1
     5     1     2   ar
     6     2     3   ar
     7     3     4   ar
     8     4    18    1
     9    18    19    1
    10    19    20    1
    11    20    21    1
    12    21    22    1
    13    22    23    1
    14    23    24    1
    15    24    25    1
    16    25    26    1
    17    26    27    1
    18     4     5   ar
    19     5     6   ar
    20    10    11   ar
    21    11    12   ar
    22    12    13   ar
    23    13    14    2
    24    12    15    1
    25    15    16    1
    26    16    17    1
    27    13     8   ar
    28     6     1   ar
    29    17    11    1
    30    27    22    1
@<TRIPOS>MOLECULE
*****
 27 30 0 0 0
SMALL
GASTEIGER

@<TRIPOS>ATOM
      1 C          -7.4559  -18.9046   21.3374 C.ar    1  UNL1        0.0192
      2 C          -7.0725  -19.3612   19.9610 C.ar    1  UNL1        0.0047
      3 C          -5.6608  -19.7808   19.6761 C.ar    1  UNL1        0.0369
      4 C          -4.6325  -19.7438   20.7676 C.ar    1  UNL1        0.1386
      5 C          -5.0160  -19.2871   22.1440 C.ar    1  UNL1        0.0369
      6 C          -6.4276  -18.8676   22.4289 C.ar    1  UNL1        0.0047
      7 C         -11.6458  -16.0845   20.1160 C.3     1  UNL1        0.1571
      8 N         -10.9624  -17.0750   21.0117 N.ar    1  UNL1       -0.2149
      9 N          -9.5509  -17.4946   20.7268 N.ar    1  UNL1       -0.1671
     10 C          -8.8676  -18.4850   21.6224 C.ar    1  UNL1        0.0968
     11 C          -9.5959  -19.0558   22.8029 C.ar    1  UNL1       -0.0022
     12 C         -11.0075  -18.6362   23.0878 C.ar    1  UNL1        0.0329
     13 C         -11.6909  -17.6458   22.1923 C.ar    1  UNL1        0.2721
     14 O         -13.1025  -17.2261   22.4771 O.2     1  UNL1       -0.2659
     15 C         -11.4685  -19.3638   24.3159 C.3     1  UNL1        0.0313
     16 C         -10.3417  -20.2331   24.7899 C.3     1  UNL1        0.0095
     17 C          -9.1844  -20.0427   23.8549 C.3     1  UNL1        0.0281
     18 O          -3.2210  -20.1633   20.4827 O.3     1  UNL1       -0.4754
     19 C          -2.1130  -19.1536   20.5366 C.3     1  UNL1        0.2068
     20 C          -2.4127  -17.6992   20.3252 C.3     1  UNL1        0.0646
     21 C          -2.1164  -16.7069   21.4105 C.3     1  UNL1        0.0759
     22 N          -3.0385  -16.5849   22.5872 N.3     1  UNL1       -0.2726
     23 C          -4.0627  -15.4897   22.6271 C.3     1  UNL1        0.0721
     24 C          -4.9848  -15.3676   23.8037 C.3     1  UNL1        0.0174
     25 C          -4.8828  -16.3407   24.9407 C.3     1  UNL1        0.0029
     26 C          -3.8587  -17.4359   24.9009 C.3     1  UNL1        0.0174
     27 C          -2.9365  -17.5580   23.7242 C.3     1  UNL1        0.0721
@<TRIPOS>BOND
     1     7     8    1
     2     8     9   ar
     3     9    10   ar
     4    10     1    1
     5     1     2   ar
     6     2     3   ar
     7     3     4   ar
     8     4    18    1
     9    18    19    1
    10    19    20    1
    11    20    21    1
    12    21    22    1
    13    22    23    1
    14    23    24    1
    15    24    25    1
    16    25    26    1
    17    26    27    1
    18     4     5   ar
    19     5     6   ar
    20    10    11   ar
    21    11    12   ar
    22    12    13   ar
    23    13    14    2
    24    12    15    1
    25    15    16    1
    26    16    17    1
    27    13     8   ar
    28     6     1   ar
    29    17    11    1
    30    27    22    1
@<TRIPOS>MOLECULE
*****
 27 30 0 0 0
SMALL
GASTEIGER

@<TRIPOS>ATOM
      1 C          -7.0758  -18.1579   22.7315 C.ar    1  UNL1        0.0192
      2 C          -7.5437  -16.7576   22.9961 C.ar    1  UNL1        0.0047
      3 C          -8.9132  -16.5182   23.5594 C.ar    1  UNL1        0.0369
      4 C          -9.8148  -17.6792   23.8581 C.ar    1  UNL1        0.1386
      5 C          -9.3469  -19.0796   23.5934 C.ar    1  UNL1        0.0369
      6 C          -7.9775  -19.3190   23.0302 C.ar    1  UNL1        0.0047
      7 C          -2.0792  -16.7937   22.3165 C.3     1  UNL1        0.1571
      8 N          -3.2081  -17.7153   21.9607 N.ar    1  UNL1       -0.2149
      9 N          -4.5775  -17.4759   22.5239 N.ar    1  UNL1       -0.1671
     10 C          -5.7064  -18.3973   22.1683 C.ar    1  UNL1        0.0968
     11 C          -5.4658  -19.5582   21.2493 C.ar    1  UNL1       -0.0022
     12 C          -4.0963  -19.7976   20.6860 C.ar    1  UNL1        0.0329
     13 C          -2.9674  -18.8762   21.0417 C.ar    1  UNL1        0.2721
     14 O          -1.5979  -19.1155   20.4785 O.2     1  UNL1       -0.2659
     15 C          -4.1608  -21.0150   19.8121 C.3     1  UNL1        0.0313
     16 C          -5.5702  -21.5280   19.8352 C.3     1  UNL1        0.0095
     17 C          -6.3767  -20.6276   20.7234 C.3     1  UNL1        0.0281
     18 O         -11.1842  -17.4398   24.4213 O.3     1  UNL1       -0.4754
     19 C         -12.2793  -18.4361   24.1796 C.3     1  UNL1        0.2068
     20 C         -13.4823  -18.0473   23.3726 C.3     1  UNL1        0.0646
     21 C         -13.3346  -17.7191   21.9164 C.3     1  UNL1        0.0759
     22 N         -12.0990  -18.1361   21.1753 N.3     1  UNL1       -0.2726
     23 C         -11.7355  -19.5884   21.0807 C.3     1  UNL1        0.0721
     24 C         -10.4999  -20.0056   20.3396 C.3     1  UNL1        0.0174
     25 C          -9.6278  -18.9705   19.6930 C.3     1  UNL1        0.0029
     26 C          -9.9913  -17.5183   19.7876 C.3     1  UNL1        0.0174
     27 C         -11.2268  -17.1011   20.5287 C.3     1  UNL1        0.0721
@<TRIPOS>BOND
     1     7     8    1
     2     8     9   ar
     3     9    10   ar
     4    10     1    1
     5     1     2   ar
     6     2     3   ar
     7     3     4   ar
     8     4    18    1
     9    18    19    1
    10    19    20    1
    11    20    21    1
    12    21    22    1
    13    22    23    1
    14    23    24    1
    15    24    25    1
    16    25    26    1
    17    26    27    1
    18     4     5   ar
    19     5     6   ar
    20    10    11   ar
    21    11    12   ar
    22    12    13   ar
    23    13    14    2
    24    12    15    1
    25    15    16    1
    26    16    17    1
    27    13     8   ar
    28     6     1   ar
    29    17    11    1
    30    27    22    1
@<TRIPOS>MOLECULE
*****
 27 30 0 0 0
SMALL
GASTEIGER

@<TRIPOS>ATOM
      1 C         -15.3326   -5.0941   19.2250 C.ar    1  UNL1        0.0192
      2 C         -14.2031   -5.1153   20.2119 C.ar    1  UNL1        0.0047
      3 C         -13.1962   -4.0035   20.2231 C.ar    1  UNL1        0.0369
      4 C         -13.3187   -2.8706   19.2477 C.ar    1  UNL1        0.1386
      5 C         -14.4482   -2.8495   18.2608 C.ar    1  UNL1        0.0369
      6 C         -15.4551   -3.9612   18.2495 C.ar    1  UNL1        0.0047
      7 C         -20.1601   -6.8021   20.1068 C.3     1  UNL1        0.1571
      8 N         -18.7533   -7.0598   19.6546 N.ar    1  UNL1       -0.2149
      9 N         -17.7463   -5.9482   19.6659 N.ar    1  UNL1       -0.1671
     10 C         -16.3395   -6.2058   19.2137 C.ar    1  UNL1        0.0968
     11 C         -15.9397   -7.5752   18.7501 C.ar    1  UNL1       -0.0022
     12 C         -16.9467   -8.6869   18.7387 C.ar    1  UNL1        0.0329
     13 C         -18.3535   -8.4293   19.1910 C.ar    1  UNL1        0.2721
     14 O         -19.3605   -9.5409   19.1796 O.2     1  UNL1       -0.2659
     15 C         -16.2659   -9.9239   18.2323 C.3     1  UNL1        0.0313
     16 C         -14.8382   -9.5766   17.9307 C.3     1  UNL1        0.0095
     17 C         -14.6366   -8.1251   18.2507 C.3     1  UNL1        0.0281
     18 O         -12.3118   -1.7589   19.2590 O.3     1  UNL1       -0.4754
     19 C         -11.9993   -1.0170   17.9933 C.3     1  UNL1        0.2068
     20 C         -10.6692   -1.2011   17.3249 C.3     1  UNL1        0.0646
     21 C         -10.3921   -2.4466   16.5361 C.3     1  UNL1        0.0759
     22 N         -10.6067   -3.7932   17.1608 N.3     1  UNL1       -0.2726
     23 C         -11.6275   -4.7315   16.5882 C.3     1  UNL1        0.0721
     24 C         -11.8422   -6.0782   17.2129 C.3     1  UNL1        0.0174
     25 C         -11.0361   -6.4867   18.4101 C.3     1  UNL1        0.0029
     26 C         -10.0154   -5.5485   18.9827 C.3     1  UNL1        0.0174
     27 C          -9.8007   -4.2018   18.3580 C.3     1  UNL1        0.0721
@<TRIPOS>BOND
     1     7     8    1
     2     8     9   ar
     3     9    10   ar
     4    10     1    1
     5     1     2   ar
     6     2     3   ar
     7     3     4   ar
     8     4    18    1
     9    18    19    1
    10    19    20    1
    11    20    21    1
    12    21    22    1
    13    22    23    1
    14    23    24    1
    15    24    25    1
    16    25    26    1
    17    26    27    1
    18     4     5   ar
    19     5     6   ar
    20    10    11   ar
    21    11    12   ar
    22    12    13   ar
    23    13    14    2
    24    12    15    1
    25    15    16    1
    26    16    17    1
    27    13     8   ar
    28     6     1   ar
    29    17    11    1
    30    27    22    1
@<TRIPOS>MOLECULE
*****
 27 30 0 0 0
SMALL
GASTEIGER

@<TRIPOS>ATOM
      1 C         -14.4229   -6.8051   18.6179 C.ar    1  UNL1        0.0192
      2 C         -15.4643   -7.0926   19.6585 C.ar    1  UNL1        0.0047
      3 C         -16.2903   -8.3414   19.5678 C.ar    1  UNL1        0.0369
      4 C         -16.0749   -9.3027   18.4367 C.ar    1  UNL1        0.1386
      5 C         -15.0334   -9.0152   17.3961 C.ar    1  UNL1        0.0369
      6 C         -14.2074   -7.7664   17.4867 C.ar    1  UNL1        0.0047
      7 C         -14.1062   -1.6211   18.7786 C.3     1  UNL1        0.1571
      8 N         -13.4385   -2.9643   18.7888 N.ar    1  UNL1       -0.2149
      9 N         -14.2645   -4.2131   18.6983 N.ar    1  UNL1       -0.1671
     10 C         -13.5969   -5.5563   18.7085 C.ar    1  UNL1        0.0968
     11 C         -12.1032   -5.6507   18.8093 C.ar    1  UNL1       -0.0022
     12 C         -11.2772   -4.4019   18.8999 C.ar    1  UNL1        0.0329
     13 C         -11.9448   -3.0587   18.8897 C.ar    1  UNL1        0.2721
     14 O         -11.1189   -1.8098   18.9802 O.2     1  UNL1       -0.2659
     15 C          -9.8352   -4.8053   18.9889 C.3     1  UNL1        0.0313
     16 C          -9.7701   -6.3034   18.9533 C.3     1  UNL1        0.0095
     17 C         -11.1718   -6.8259   18.8423 C.3     1  UNL1        0.0281
     18 O         -16.9008  -10.5515   18.3461 O.3     1  UNL1       -0.4754
     19 C         -18.3875  -10.4563   18.1700 C.3     1  UNL1        0.2068
     20 C         -18.9575   -9.7784   16.9596 C.3     1  UNL1        0.0646
     21 C         -19.7988   -8.5463   17.1163 C.3     1  UNL1        0.0759
     22 N         -19.1779   -7.2716   17.6055 N.3     1  UNL1       -0.2726
     23 C         -19.5635   -6.7150   18.9440 C.3     1  UNL1        0.0721
     24 C         -18.9426   -5.4402   19.4332 C.3     1  UNL1        0.0174
     25 C         -17.9362   -4.7220   18.5841 C.3     1  UNL1        0.0029
     26 C         -17.5505   -5.2785   17.2456 C.3     1  UNL1        0.0174
     27 C         -18.1714   -6.5533   16.7563 C.3     1  UNL1        0.0721
@<TRIPOS>BOND
     1     7     8    1
     2     8     9   ar
     3     9    10   ar
     4    10     1    1
     5     1     2   ar
     6     2     3   ar
     7     3     4   ar
     8     4    18    1
     9    18    19    1
    10    19    20    1
    11    20    21    1
    12    21    22    1
    13    22    23    1
    14    23    24    1
    15    24    25    1
    16    25    26    1
    17    26    27    1
    18     4     5   ar
    19     5     6   ar
    20    10    11   ar
    21    11    12   ar
    22    12    13   ar
    23    13    14    2
    24    12    15    1
    25    15    16    1
    26    16    17    1
    27    13     8   ar
    28     6     1   ar
    29    17    11    1
    30    27    22    1
@<TRIPOS>MOLECULE
*****
 27 30 0 0 0
SMALL
GASTEIGER

@<TRIPOS>ATOM
      1 C          -6.3035  -18.9697   20.7354 C.ar    1  UNL1        0.0192
      2 C          -6.9829  -19.0802   22.0681 C.ar    1  UNL1        0.0047
      3 C          -8.4386  -19.4351   22.1407 C.ar    1  UNL1        0.0369
      4 C          -9.2148  -19.6794   20.8806 C.ar    1  UNL1        0.1386
      5 C          -8.5352  -19.5689   19.5479 C.ar    1  UNL1        0.0369
      6 C          -7.0797  -19.2141   19.4753 C.ar    1  UNL1        0.0047
      7 C          -2.0025  -18.1643   17.9332 C.3     1  UNL1        0.1571
      8 N          -2.6974  -18.2122   19.2617 N.ar    1  UNL1       -0.2149
      9 N          -4.1530  -18.5670   19.3344 N.ar    1  UNL1       -0.1671
     10 C          -4.8478  -18.6149   20.6628 C.ar    1  UNL1        0.0968
     11 C          -4.0871  -18.3081   21.9186 C.ar    1  UNL1       -0.0022
     12 C          -2.6315  -17.9532   21.8460 C.ar    1  UNL1        0.0329
     13 C          -1.9366  -17.9053   20.5176 C.ar    1  UNL1        0.2721
     14 O          -0.4809  -17.5505   20.4448 O.2     1  UNL1       -0.2659
     15 C          -2.1455  -17.7014   23.2425 C.3     1  UNL1        0.0313
     16 C          -3.3008  -17.9006   24.1783 C.3     1  UNL1        0.0095
     17 C          -4.5008  -18.2755   23.3601 C.3     1  UNL1        0.0281
     18 O         -10.6703  -20.0342   20.9532 O.3     1  UNL1       -0.4754
     19 C         -11.7000  -18.9523   21.0928 C.3     1  UNL1        0.2068
     20 C         -11.4391  -17.5903   20.5213 C.3     1  UNL1        0.0646
     21 C         -11.3065  -16.4069   21.4335 C.3     1  UNL1        0.0759
     22 N         -10.1375  -16.3078   22.3681 N.3     1  UNL1       -0.2726
     23 C         -10.2660  -16.7878   23.7835 C.3     1  UNL1        0.0721
     24 C          -9.0971  -16.6887   24.7181 C.3     1  UNL1        0.0174
     25 C          -7.7995  -16.1096   24.2376 C.3     1  UNL1        0.0029
     26 C          -7.6709  -15.6295   22.8223 C.3     1  UNL1        0.0174
     27 C          -8.8399  -15.7286   21.8876 C.3     1  UNL1        0.0721
@<TRIPOS>BOND
     1     7     8    1
     2     8     9   ar
     3     9    10   ar
     4    10     1    1
     5     1     2   ar
     6     2     3   ar
     7     3     4   ar
     8     4    18    1
     9    18    19    1
    10    19    20    1
    11    20    21    1
    12    21    22    1
    13    22    23    1
    14    23    24    1
    15    24    25    1
    16    25    26    1
    17    26    27    1
    18     4     5   ar
    19     5     6   ar
    20    10    11   ar
    21    11    12   ar
    22    12    13   ar
    23    13    14    2
    24    12    15    1
    25    15    16    1
    26    16    17    1
    27    13     8   ar
    28     6     1   ar
    29    17    11    1
    30    27    22    1
@<TRIPOS>MOLECULE
*****
 27 30 0 0 0
SMALL
GASTEIGER

@<TRIPOS>ATOM
      1 C          -7.5112  -19.5310   21.4023 C.ar    1  UNL1        0.0192
      2 C          -8.3433  -19.2466   20.1872 C.ar    1  UNL1        0.0047
      3 C          -9.8341  -19.1325   20.3090 C.ar    1  UNL1        0.0369
      4 C         -10.4926  -19.3028   21.6459 C.ar    1  UNL1        0.1386
      5 C          -9.6603  -19.5872   22.8611 C.ar    1  UNL1        0.0369
      6 C          -8.1697  -19.7013   22.7393 C.ar    1  UNL1        0.0047
      7 C          -3.3282  -21.6668   19.1795 C.3     1  UNL1        0.1571
      8 N          -3.9290  -20.7130   20.1692 N.ar    1  UNL1       -0.2149
      9 N          -5.4196  -20.5989   20.2910 N.ar    1  UNL1       -0.1671
     10 C          -6.0205  -19.6452   21.2806 C.ar    1  UNL1        0.0968
     11 C          -5.1306  -18.8056   22.1485 C.ar    1  UNL1       -0.0022
     12 C          -3.6399  -18.9197   22.0268 C.ar    1  UNL1        0.0329
     13 C          -3.0391  -19.8734   21.0371 C.ar    1  UNL1        0.2721
     14 O          -1.5484  -19.9876   20.9153 O.2     1  UNL1       -0.2659
     15 C          -3.0205  -17.9703   23.0091 C.3     1  UNL1        0.0313
     16 C          -4.1285  -17.2694   23.7380 C.3     1  UNL1        0.0095
     17 C          -5.4326  -17.7856   23.2061 C.3     1  UNL1        0.0281
     18 O         -11.9832  -19.1886   21.7677 O.3     1  UNL1       -0.4754
     19 C         -12.6773  -17.9319   21.3328 C.3     1  UNL1        0.2068
     20 C         -12.2483  -16.6070   21.8900 C.3     1  UNL1        0.0646
     21 C         -10.9333  -16.0119   21.4815 C.3     1  UNL1        0.0759
     22 N          -9.8310  -15.8662   22.4883 N.3     1  UNL1       -0.2726
     23 C          -8.4978  -15.3227   22.0674 C.3     1  UNL1        0.0721
     24 C          -7.3955  -15.1771   23.0741 C.3     1  UNL1        0.0174
     25 C          -7.6263  -15.5748   24.5018 C.3     1  UNL1        0.0029
     26 C          -8.9594  -16.1183   24.9228 C.3     1  UNL1        0.0174
     27 C         -10.0618  -16.2640   23.9161 C.3     1  UNL1        0.0721
@<TRIPOS>BOND
     1     7     8    1
     2     8     9   ar
     3     9    10   ar
     4    10     1    1
     5     1     2   ar
     6     2     3   ar
     7     3     4   ar
     8     4    18    1
     9    18    19    1
    10    19    20    1
    11    20    21    1
    12    21    22    1
    13    22    23    1
    14    23    24    1
    15    24    25    1
    16    25    26    1
    17    26    27    1
    18     4     5   ar
    19     5     6   ar
    20    10    11   ar
    21    11    12   ar
    22    12    13   ar
    23    13    14    2
    24    12    15    1
    25    15    16    1
    26    16    17    1
    27    13     8   ar
    28     6     1   ar
    29    17    11    1
    30    27    22    1
@<TRIPOS>MOLECULE
*****
 27 30 0 0 0
SMALL
GASTEIGER

@<TRIPOS>ATOM
      1 C         -14.6906   -7.6635   18.9646 C.ar    1  UNL1        0.0192
      2 C         -15.9345   -7.2866   19.7133 C.ar    1  UNL1        0.0047
      3 C         -17.1265   -8.1970   19.6937 C.ar    1  UNL1        0.0369
      4 C         -17.0746   -9.4843   18.9254 C.ar    1  UNL1        0.1386
      5 C         -15.8306   -9.8611   18.1767 C.ar    1  UNL1        0.0369
      6 C         -14.6387   -8.9508   18.1963 C.ar    1  UNL1        0.0047
      7 C          -9.6244   -6.8647   18.1307 C.3     1  UNL1        0.1571
      8 N         -10.9655   -6.3538   18.5672 N.ar    1  UNL1       -0.2149
      9 N         -12.1575   -7.2641   18.5477 N.ar    1  UNL1       -0.1671
     10 C         -13.4985   -6.7532   18.9842 C.ar    1  UNL1        0.0968
     11 C         -13.6476   -5.3320   19.4402 C.ar    1  UNL1       -0.0022
     12 C         -12.4555   -4.4217   19.4598 C.ar    1  UNL1        0.0329
     13 C         -11.1145   -4.9325   19.0233 C.ar    1  UNL1        0.2721
     14 O          -9.9224   -4.0223   19.0428 O.2     1  UNL1       -0.2659
     15 C         -12.9053   -3.0795   19.9559 C.3     1  UNL1        0.0313
     16 C         -14.3754   -3.1603   20.2430 C.3     1  UNL1        0.0095
     17 C         -14.8341   -4.5524   19.9243 C.3     1  UNL1        0.0281
     18 O         -18.2666  -10.3946   18.9059 O.3     1  UNL1       -0.4754
     19 C         -19.3191  -10.2295   17.8499 C.3     1  UNL1        0.2068
     20 C         -19.0460   -9.3789   16.6451 C.3     1  UNL1        0.0646
     21 C         -19.4413   -7.9318   16.6433 C.3     1  UNL1        0.0759
     22 N         -18.3861   -6.8661   16.6660 N.3     1  UNL1       -0.2726
     23 C         -18.6462   -5.5679   17.3712 C.3     1  UNL1        0.0721
     24 C         -17.5911   -4.5022   17.3939 C.3     1  UNL1        0.0174
     25 C         -16.2757   -4.7344   16.7114 C.3     1  UNL1        0.0029
     26 C         -16.0155   -6.0325   16.0063 C.3     1  UNL1        0.0174
     27 C         -17.0707   -7.0983   15.9836 C.3     1  UNL1        0.0721
@<TRIPOS>BOND
     1     7     8    1
     2     8     9   ar
     3     9    10   ar
     4    10     1    1
     5     1     2   ar
     6     2     3   ar
     7     3     4   ar
     8     4    18    1
     9    18    19    1
    10    19    20    1
    11    20    21    1
    12    21    22    1
    13    22    23    1
    14    23    24    1
    15    24    25    1
    16    25    26    1
    17    26    27    1
    18     4     5   ar
    19     5     6   ar
    20    10    11   ar
    21    11    12   ar
    22    12    13   ar
    23    13    14    2
    24    12    15    1
    25    15    16    1
    26    16    17    1
    27    13     8   ar
    28     6     1   ar
    29    17    11    1
    30    27    22    1
