@<TRIPOS>MOLECULE
*****
 39 42 0 0 0
SMALL
GASTEIGER

@<TRIPOS>ATOM
      1 C           4.3932   -1.4679   23.0741 C.ar    1  UNL1        0.0561
      2 C           4.2105   -1.8112   21.6254 C.ar    1  UNL1        0.0196
      3 C           4.8429   -3.0495   21.0625 C.ar    1  UNL1        0.0768
      4 N           5.6581   -3.9444   21.9483 N.ar    1  UNL1       -0.2480
      5 C           5.8409   -3.6010   23.3970 C.ar    1  UNL1        0.0812
      6 C           6.6560   -4.4959   24.2828 C.ar    1  UNL1        0.0214
      7 C           6.8388   -4.1526   25.7314 C.ar    1  UNL1        0.0312
      8 C           6.2064   -2.9144   26.2943 C.ar    1  UNL1        0.1402
      9 F           6.3892   -2.5711   27.7431 F       1  UNL1       -0.2042
     10 C           5.3912   -2.0195   25.4086 C.ar    1  UNL1        0.0313
     11 C           5.2085   -2.3628   23.9599 C.ar    1  UNL1        0.0243
     12 C           3.3953   -0.9163   20.7396 C.ar    1  UNL1        0.0013
     13 C           4.0645    0.1707   19.9518 C.ar    1  UNL1        0.0000
     14 C           3.2494    1.0655   19.0660 C.ar    1  UNL1        0.0000
     15 C           1.7650    0.8734   18.9679 C.ar    1  UNL1        0.0000
     16 C           1.0958   -0.2136   19.7557 C.ar    1  UNL1        0.0000
     17 C           1.9109   -1.1085   20.6415 C.ar    1  UNL1        0.0000
     18 N           2.4297   -0.3131   24.3235 N.am    1  UNL1       -0.3025
     19 C           3.7608   -0.2297   23.6370 C.2     1  UNL1        0.2459
     20 O           4.4595    1.0919   23.5134 O.2     1  UNL1       -0.2701
     21 H           1.9711   -1.1805   24.4046 H       1  UNL1        0.1497
     22 C           2.1852    1.4113   26.2513 C.3     1  UNL1        0.0213
     23 C           1.7973    0.9251   24.8864 C.3     1  UNL1        0.0720
     24 C           0.7769    1.6772   24.0843 C.3     1  UNL1        0.0213
     25 C           4.6601   -3.3928   19.6137 C.3     1  UNL1        0.1109
     26 C           3.3252   -3.8633   19.1172 C.3     1  UNL1        0.0278
     27 N           5.8122   -3.2655   18.6617 N.pl3   1  UNL1       -0.3142
     28 H           6.2274   -4.0728   18.2807 H       1  UNL1        0.1485
     29 C           6.3315   -1.9083   18.2900 C.ar    1  UNL1        0.1429
     30 N           5.6472   -1.1106   17.2197 N.ar    1  UNL1       -0.2084
     31 C           6.1666    0.2466   16.8481 C.ar    1  UNL1        0.2012
     32 N           7.3703    0.8062   17.5466 N.ar    1  UNL1       -0.2087
     33 C           8.0546    0.0085   18.6169 C.ar    1  UNL1        0.1396
     34 N           9.2583    0.5681   19.3154 N.pl3   1  UNL1       -0.3420
     35 C           7.5352   -1.3487   18.9886 C.ar    1  UNL1        0.1308
     36 H           9.5992    1.4589   19.0715 H       1  UNL1        0.1437
     37 H           9.7074    0.0446   20.0179 H       1  UNL1        0.1437
     38 C           8.2195   -2.1464   20.0588 C.1     1  UNL1        0.1061
     39 N           8.9038   -2.9440   21.1291 N.1     1  UNL1       -0.1906
@<TRIPOS>BOND
     1    22    23    1
     2    23    24    1
     3    23    18    1
     4    18    19   am
     5    19    20    2
     6    19     1    1
     7     1     2   ar
     8     2    12    1
     9    12    13   ar
    10    13    14   ar
    11    14    15   ar
    12    15    16   ar
    13    16    17   ar
    14     2     3   ar
    15     3    25    1
    16    25    26    1
    17    25    27    1
    18    27    29    1
    19    29    30   ar
    20    30    31   ar
    21    31    32   ar
    22    32    33   ar
    23    33    34    1
    24    33    35   ar
    25    35    38    1
    26    38    39    3
    27     3     4   ar
    28     4     5   ar
    29     5     6   ar
    30     6     7   ar
    31     7     8   ar
    32     8     9    1
    33     8    10   ar
    34    10    11   ar
    35    11     1   ar
    36    17    12   ar
    37    35    29   ar
    38    11     5   ar
    39    18    21    1
    40    27    28    1
    41    34    36    1
    42    34    37    1
@<TRIPOS>MOLECULE
*****
 39 42 0 0 0
SMALL
GASTEIGER

@<TRIPOS>ATOM
      1 C           2.3784   -0.1628   22.3868 C.ar    1  UNL1        0.0561
      2 C           2.4600    0.2407   23.8292 C.ar    1  UNL1        0.0196
      3 C           3.3400   -0.5238   24.7732 C.ar    1  UNL1        0.0768
      4 N           4.1384   -1.6917   24.2749 N.ar    1  UNL1       -0.2480
      5 C           4.0568   -2.0953   22.8324 C.ar    1  UNL1        0.0812
      6 C           4.8553   -3.2632   22.3341 C.ar    1  UNL1        0.0214
      7 C           4.7737   -3.6667   20.8917 C.ar    1  UNL1        0.0312
      8 C           3.8937   -2.9022   19.9477 C.ar    1  UNL1        0.1402
      9 F           3.8121   -3.3057   18.5052 F       1  UNL1       -0.2042
     10 C           3.0953   -1.7343   20.4460 C.ar    1  UNL1        0.0313
     11 C           3.1768   -1.3308   21.8884 C.ar    1  UNL1        0.0243
     12 C           1.6615    1.4087   24.3276 C.ar    1  UNL1        0.0013
     13 C           2.2268    2.7954   24.2407 C.ar    1  UNL1        0.0000
     14 C           1.4284    3.9633   24.7391 C.ar    1  UNL1        0.0000
     15 C           0.0648    3.7446   25.3244 C.ar    1  UNL1        0.0000
     16 C          -0.5005    2.3579   25.4113 C.ar    1  UNL1        0.0000
     17 C           0.2979    1.1899   24.9129 C.ar    1  UNL1        0.0000
     18 N           2.0377    1.7992   20.7181 N.am    1  UNL1       -0.3025
     19 C           1.4984    0.6017   21.4428 C.2     1  UNL1        0.2459
     20 O           0.0791    0.1687   21.2235 O.2     1  UNL1       -0.2701
     21 H           2.9693    2.0834   20.8620 H       1  UNL1        0.1497
     22 C           0.9352    2.0573   18.3797 C.3     1  UNL1        0.0213
     23 C           1.1577    2.5636   19.7740 C.3     1  UNL1        0.0720
     24 C           0.5002    3.8345   20.2243 C.3     1  UNL1        0.0213
     25 C           3.4215   -0.1202   26.2157 C.3     1  UNL1        0.1109
     26 C           4.2416    1.0702   26.6162 C.3     1  UNL1        0.0278
     27 N           2.6830   -0.9071   27.2575 N.pl3   1  UNL1       -0.3142
     28 H           2.5825   -1.8815   27.1591 H       1  UNL1        0.1485
     29 C           2.0977   -0.2094   28.4493 C.ar    1  UNL1        0.1429
     30 N           0.7562    0.4539   28.3462 N.ar    1  UNL1       -0.2084
     31 C           0.1709    1.1516   29.5380 C.ar    1  UNL1        0.2012
     32 N           0.9270    1.1862   30.8331 N.ar    1  UNL1       -0.2087
     33 C           2.2685    0.5230   30.9362 C.ar    1  UNL1        0.1396
     34 N           3.0246    0.5575   32.2313 N.pl3   1  UNL1       -0.3420
     35 C           2.8538   -0.1748   29.7444 C.ar    1  UNL1        0.1308
     36 H           2.6404    1.0155   33.0135 H       1  UNL1        0.1437
     37 H           3.9050    0.1223   32.2990 H       1  UNL1        0.1437
     38 C           4.1953   -0.8380   29.8476 C.1     1  UNL1        0.1061
     39 N           5.5367   -1.5012   29.9507 N.1     1  UNL1       -0.1906
@<TRIPOS>BOND
     1    22    23    1
     2    23    24    1
     3    23    18    1
     4    18    19   am
     5    19    20    2
     6    19     1    1
     7     1     2   ar
     8     2    12    1
     9    12    13   ar
    10    13    14   ar
    11    14    15   ar
    12    15    16   ar
    13    16    17   ar
    14     2     3   ar
    15     3    25    1
    16    25    26    1
    17    25    27    1
    18    27    29    1
    19    29    30   ar
    20    30    31   ar
    21    31    32   ar
    22    32    33   ar
    23    33    34    1
    24    33    35   ar
    25    35    38    1
    26    38    39    3
    27     3     4   ar
    28     4     5   ar
    29     5     6   ar
    30     6     7   ar
    31     7     8   ar
    32     8     9    1
    33     8    10   ar
    34    10    11   ar
    35    11     1   ar
    36    17    12   ar
    37    35    29   ar
    38    11     5   ar
    39    18    21    1
    40    27    28    1
    41    34    36    1
    42    34    37    1
@<TRIPOS>MOLECULE
*****
 39 42 0 0 0
SMALL
GASTEIGER

@<TRIPOS>ATOM
      1 C           4.1420   -1.2134   23.8909 C.ar    1  UNL1        0.0561
      2 C           5.0684   -1.9017   24.8490 C.ar    1  UNL1        0.0196
      3 C           5.7819   -3.1541   24.4337 C.ar    1  UNL1        0.0768
      4 N           5.5689   -3.7182   23.0603 N.ar    1  UNL1       -0.2480
      5 C           4.6424   -3.0300   22.1021 C.ar    1  UNL1        0.0812
      6 C           4.4294   -3.5942   20.7287 C.ar    1  UNL1        0.0214
      7 C           3.5030   -2.9059   19.7706 C.ar    1  UNL1        0.0312
      8 C           2.7896   -1.6535   20.1859 C.ar    1  UNL1        0.1402
      9 F           1.8631   -0.9653   19.2277 F       1  UNL1       -0.2042
     10 C           3.0026   -1.0893   21.5593 C.ar    1  UNL1        0.0313
     11 C           3.9290   -1.7776   22.5174 C.ar    1  UNL1        0.0243
     12 C           5.2815   -1.3375   26.2225 C.ar    1  UNL1        0.0013
     13 C           4.3463   -1.7032   27.3369 C.ar    1  UNL1        0.0000
     14 C           4.5593   -1.1391   28.7103 C.ar    1  UNL1        0.0000
     15 C           5.7074   -0.2093   28.9694 C.ar    1  UNL1        0.0000
     16 C           6.6425    0.1564   27.8551 C.ar    1  UNL1        0.0000
     17 C           6.4296   -0.4077   26.4816 C.ar    1  UNL1        0.0000
     18 N           2.0921   -0.0481   24.9819 N.am    1  UNL1       -0.3025
     19 C           3.4286    0.0390   24.3062 C.2     1  UNL1        0.2459
     20 O           4.0515    1.3784   24.0459 O.2     1  UNL1       -0.2701
     21 H           1.6833   -0.9273   25.1528 H       1  UNL1        0.1497
     22 C           0.3137    1.7879   24.5168 C.3     1  UNL1        0.0213
     23 C           1.3787    1.2043   25.3972 C.3     1  UNL1        0.0720
     24 C           1.7303    1.8731   26.6931 C.3     1  UNL1        0.0213
     25 C           6.7083   -3.8423   25.3919 C.3     1  UNL1        0.1109
     26 C           8.1832   -3.5754   25.3317 C.3     1  UNL1        0.0278
     27 N           6.1600   -4.7974   26.4102 N.pl3   1  UNL1       -0.3142
     28 H           5.2368   -4.6932   26.7359 H       1  UNL1        0.1485
     29 C           7.0182   -5.9113   26.9323 C.ar    1  UNL1        0.1429
     30 N           7.3123   -7.1005   26.0666 N.ar    1  UNL1       -0.2084
     31 C           8.1706   -8.2144   26.5887 C.ar    1  UNL1        0.2012
     32 N           8.7347   -8.1392   27.9765 N.ar    1  UNL1       -0.2087
     33 C           8.4406   -6.9501   28.8422 C.ar    1  UNL1        0.1396
     34 N           9.0048   -6.8749   30.2301 N.pl3   1  UNL1       -0.3420
     35 C           7.5824   -5.8361   28.3201 C.ar    1  UNL1        0.1308
     36 H           9.5681   -7.6060   30.5727 H       1  UNL1        0.1437
     37 H           8.8118   -6.0944   30.7983 H       1  UNL1        0.1437
     38 C           7.2883   -4.6470   29.1859 C.1     1  UNL1        0.1061
     39 N           6.9942   -3.4579   30.0516 N.1     1  UNL1       -0.1906
@<TRIPOS>BOND
     1    22    23    1
     2    23    24    1
     3    23    18    1
     4    18    19   am
     5    19    20    2
     6    19     1    1
     7     1     2   ar
     8     2    12    1
     9    12    13   ar
    10    13    14   ar
    11    14    15   ar
    12    15    16   ar
    13    16    17   ar
    14     2     3   ar
    15     3    25    1
    16    25    26    1
    17    25    27    1
    18    27    29    1
    19    29    30   ar
    20    30    31   ar
    21    31    32   ar
    22    32    33   ar
    23    33    34    1
    24    33    35   ar
    25    35    38    1
    26    38    39    3
    27     3     4   ar
    28     4     5   ar
    29     5     6   ar
    30     6     7   ar
    31     7     8   ar
    32     8     9    1
    33     8    10   ar
    34    10    11   ar
    35    11     1   ar
    36    17    12   ar
    37    35    29   ar
    38    11     5   ar
    39    18    21    1
    40    27    28    1
    41    34    36    1
    42    34    37    1
@<TRIPOS>MOLECULE
*****
 39 42 0 0 0
SMALL
GASTEIGER

@<TRIPOS>ATOM
      1 C           0.0743    2.0319   24.6848 C.ar    1  UNL1        0.0561
      2 C          -0.9414    3.0260   24.2051 C.ar    1  UNL1        0.0196
      3 C          -1.1176    3.2685   22.7354 C.ar    1  UNL1        0.0768
      4 N          -0.2782    2.5168   21.7453 N.ar    1  UNL1       -0.2480
      5 C           0.7375    1.5226   22.2250 C.ar    1  UNL1        0.0812
      6 C           1.5769    0.7708   21.2349 C.ar    1  UNL1        0.0214
      7 C           2.5925   -0.2233   21.7146 C.ar    1  UNL1        0.0312
      8 C           2.7687   -0.4657   23.1844 C.ar    1  UNL1        0.1402
      9 F           3.7844   -1.4600   23.6640 F       1  UNL1       -0.2042
     10 C           1.9293    0.2860   24.1744 C.ar    1  UNL1        0.0313
     11 C           0.9137    1.2801   23.6947 C.ar    1  UNL1        0.0243
     12 C          -1.7808    3.7778   25.1952 C.ar    1  UNL1        0.0013
     13 C          -3.1118    3.2306   25.6185 C.ar    1  UNL1        0.0000
     14 C          -3.9513    3.9823   26.6085 C.ar    1  UNL1        0.0000
     15 C          -3.4598    5.2812   27.1753 C.ar    1  UNL1        0.0000
     16 C          -2.1288    5.8284   26.7520 C.ar    1  UNL1        0.0000
     17 C          -1.2893    5.0767   25.7620 C.ar    1  UNL1        0.0000
     18 N          -0.3483    0.5700   26.7907 N.am    1  UNL1       -0.3025
     19 C           0.2505    1.7895   26.1546 C.2     1  UNL1        0.2459
     20 O           1.0254    2.7664   26.9882 O.2     1  UNL1       -0.2701
     21 H          -0.8570   -0.0712   26.2435 H       1  UNL1        0.1497
     22 C          -1.3335    0.5011   29.1937 C.3     1  UNL1        0.0213
     23 C          -0.1721    0.3276   28.2604 C.3     1  UNL1        0.0720
     24 C           1.1655   -0.0884   28.7969 C.3     1  UNL1        0.0213
     25 C          -2.1333    4.2627   22.2557 C.3     1  UNL1        0.1109
     26 C          -1.7331    5.6888   22.0189 C.3     1  UNL1        0.0278
     27 N          -3.5490    3.8308   22.0129 N.pl3   1  UNL1       -0.3142
     28 H          -4.0991    3.5036   22.7610 H       1  UNL1        0.1485
     29 C          -4.1267    3.8973   20.6302 C.ar    1  UNL1        0.1429
     30 N          -3.2271    3.7842   19.4352 N.ar    1  UNL1       -0.2084
     31 C          -3.8048    3.8507   18.0526 C.ar    1  UNL1        0.2012
     32 N          -5.2821    4.0304   17.8648 N.ar    1  UNL1       -0.2087
     33 C          -6.1817    4.1436   19.0597 C.ar    1  UNL1        0.1396
     34 N          -7.6590    4.3233   18.8719 N.pl3   1  UNL1       -0.3420
     35 C          -5.6040    4.0770   20.4425 C.ar    1  UNL1        0.1308
     36 H          -8.0382    4.3669   17.9644 H       1  UNL1        0.1437
     37 H          -8.2495    4.3975   19.6562 H       1  UNL1        0.1437
     38 C          -6.5036    4.1902   21.6374 C.1     1  UNL1        0.1061
     39 N          -7.4033    4.3033   22.8323 N.1     1  UNL1       -0.1906
@<TRIPOS>BOND
     1    22    23    1
     2    23    24    1
     3    23    18    1
     4    18    19   am
     5    19    20    2
     6    19     1    1
     7     1     2   ar
     8     2    12    1
     9    12    13   ar
    10    13    14   ar
    11    14    15   ar
    12    15    16   ar
    13    16    17   ar
    14     2     3   ar
    15     3    25    1
    16    25    26    1
    17    25    27    1
    18    27    29    1
    19    29    30   ar
    20    30    31   ar
    21    31    32   ar
    22    32    33   ar
    23    33    34    1
    24    33    35   ar
    25    35    38    1
    26    38    39    3
    27     3     4   ar
    28     4     5   ar
    29     5     6   ar
    30     6     7   ar
    31     7     8   ar
    32     8     9    1
    33     8    10   ar
    34    10    11   ar
    35    11     1   ar
    36    17    12   ar
    37    35    29   ar
    38    11     5   ar
    39    18    21    1
    40    27    28    1
    41    34    36    1
    42    34    37    1
@<TRIPOS>MOLECULE
*****
 39 42 0 0 0
SMALL
GASTEIGER

@<TRIPOS>ATOM
      1 C           1.0951    1.6415   23.5835 C.ar    1  UNL1        0.0561
      2 C           0.3901    2.1999   22.3831 C.ar    1  UNL1        0.0196
      3 C          -0.8864    2.9691   22.5534 C.ar    1  UNL1        0.0768
      4 N          -1.4579    3.1798   23.9241 N.ar    1  UNL1       -0.2480
      5 C          -0.7529    2.6213   25.1246 C.ar    1  UNL1        0.0812
      6 C          -1.3244    2.8320   26.4953 C.ar    1  UNL1        0.0214
      7 C          -0.6194    2.2735   27.6958 C.ar    1  UNL1        0.0312
      8 C           0.6571    1.5044   27.5255 C.ar    1  UNL1        0.1402
      9 F           1.3621    0.9460   28.7260 F       1  UNL1       -0.2042
     10 C           1.2286    1.2937   26.1548 C.ar    1  UNL1        0.0313
     11 C           0.5236    1.8522   24.9543 C.ar    1  UNL1        0.0243
     12 C           0.9616    1.9893   21.0122 C.ar    1  UNL1        0.0013
     13 C           0.4972    0.8343   20.1754 C.ar    1  UNL1        0.0000
     14 C           1.0686    0.6235   18.8047 C.ar    1  UNL1        0.0000
     15 C           2.1045    1.5679   18.2707 C.ar    1  UNL1        0.0000
     16 C           2.5690    2.7229   19.1075 C.ar    1  UNL1        0.0000
     17 C           1.9975    2.9336   20.4783 C.ar    1  UNL1        0.0000
     18 N           2.3276   -0.5942   23.1011 N.am    1  UNL1       -0.3025
     19 C           2.3716    0.8724   23.4132 C.2     1  UNL1        0.2459
     20 O           3.6920    1.5697   23.5549 O.2     1  UNL1       -0.2701
     21 H           1.4610   -1.0519   23.0081 H       1  UNL1        0.1497
     22 C           4.3352   -1.8792   24.1347 C.3     1  UNL1        0.0213
     23 C           3.6041   -1.3633   22.9308 C.3     1  UNL1        0.0720
     24 C           4.1495   -1.6166   21.5566 C.3     1  UNL1        0.0213
     25 C          -1.5914    3.5275   21.3528 C.3     1  UNL1        0.1109
     26 C          -1.0769    4.7724   20.6927 C.3     1  UNL1        0.0278
     27 N          -2.8107    2.8412   20.8125 N.pl3   1  UNL1       -0.3142
     28 H          -2.7144    2.0621   20.2183 H       1  UNL1        0.1485
     29 C          -4.1768    3.3417   21.1775 C.ar    1  UNL1        0.1429
     30 N          -4.5716    3.4600   22.6198 N.ar    1  UNL1       -0.2084
     31 C          -5.9377    3.9606   22.9848 C.ar    1  UNL1        0.2012
     32 N          -6.9090    4.3429   21.9076 N.ar    1  UNL1       -0.2087
     33 C          -6.5142    4.2247   20.4653 C.ar    1  UNL1        0.1396
     34 N          -7.4854    4.6070   19.3881 N.pl3   1  UNL1       -0.3420
     35 C          -5.1480    3.7241   20.1002 C.ar    1  UNL1        0.1308
     36 H          -8.3820    4.9355   19.6276 H       1  UNL1        0.1437
     37 H          -7.2263    4.5294   18.4415 H       1  UNL1        0.1437
     38 C          -4.7533    3.6058   18.6580 C.1     1  UNL1        0.1061
     39 N          -4.3585    3.4876   17.2158 N.1     1  UNL1       -0.1906
@<TRIPOS>BOND
     1    22    23    1
     2    23    24    1
     3    23    18    1
     4    18    19   am
     5    19    20    2
     6    19     1    1
     7     1     2   ar
     8     2    12    1
     9    12    13   ar
    10    13    14   ar
    11    14    15   ar
    12    15    16   ar
    13    16    17   ar
    14     2     3   ar
    15     3    25    1
    16    25    26    1
    17    25    27    1
    18    27    29    1
    19    29    30   ar
    20    30    31   ar
    21    31    32   ar
    22    32    33   ar
    23    33    34    1
    24    33    35   ar
    25    35    38    1
    26    38    39    3
    27     3     4   ar
    28     4     5   ar
    29     5     6   ar
    30     6     7   ar
    31     7     8   ar
    32     8     9    1
    33     8    10   ar
    34    10    11   ar
    35    11     1   ar
    36    17    12   ar
    37    35    29   ar
    38    11     5   ar
    39    18    21    1
    40    27    28    1
    41    34    36    1
    42    34    37    1
@<TRIPOS>MOLECULE
*****
 39 42 0 0 0
SMALL
GASTEIGER

@<TRIPOS>ATOM
      1 C           2.2498   -0.0931   22.2681 C.ar    1  UNL1        0.0561
      2 C           2.3589    0.3490   23.6973 C.ar    1  UNL1        0.0196
      3 C           3.2873   -0.3651   24.6344 C.ar    1  UNL1        0.0768
      4 N           4.1065   -1.5212   24.1424 N.ar    1  UNL1       -0.2480
      5 C           3.9974   -1.9633   22.7131 C.ar    1  UNL1        0.0812
      6 C           4.8167   -3.1194   22.2211 C.ar    1  UNL1        0.0214
      7 C           4.7076   -3.5615   20.7919 C.ar    1  UNL1        0.0312
      8 C           3.7792   -2.8475   19.8547 C.ar    1  UNL1        0.1402
      9 F           3.6701   -3.2896   18.4255 F       1  UNL1       -0.2042
     10 C           2.9600   -1.6913   20.3468 C.ar    1  UNL1        0.0313
     11 C           3.0691   -1.2493   21.7760 C.ar    1  UNL1        0.0243
     12 C           1.5396    1.5052   24.1894 C.ar    1  UNL1        0.0013
     13 C           2.0357    2.9086   24.0041 C.ar    1  UNL1        0.0000
     14 C           1.2165    4.0647   24.4962 C.ar    1  UNL1        0.0000
     15 C          -0.0988    3.8174   25.1735 C.ar    1  UNL1        0.0000
     16 C          -0.5949    2.4140   25.3587 C.ar    1  UNL1        0.0000
     17 C           0.2243    1.2579   24.8667 C.ar    1  UNL1        0.0000
     18 N           1.7699    1.8759   20.6423 N.am    1  UNL1       -0.3025
     19 C           1.3214    0.6210   21.3309 C.2     1  UNL1        0.2459
     20 O          -0.0554    0.0801   21.0823 O.2     1  UNL1       -0.2701
     21 H           2.6736    2.2308   20.8055 H       1  UNL1        0.1497
     22 C           0.8178    2.2253   18.2504 C.3     1  UNL1        0.0213
     23 C           0.8415    2.5899   19.7052 C.3     1  UNL1        0.0720
     24 C          -0.0632    3.6687   20.2229 C.3     1  UNL1        0.0213
     25 C           3.3963    0.0771   26.0637 C.3     1  UNL1        0.1109
     26 C           4.0321    1.3947   26.3946 C.3     1  UNL1        0.0278
     27 N           2.8697   -0.7984   27.1618 N.pl3   1  UNL1       -0.3142
     28 H           1.9952   -1.2397   27.0630 H       1  UNL1        0.1485
     29 C           3.6754   -1.0016   28.4106 C.ar    1  UNL1        0.1429
     30 N           5.0337   -1.6334   28.3323 N.ar    1  UNL1       -0.2084
     31 C           5.8394   -1.8366   29.5811 C.ar    1  UNL1        0.2012
     32 N           5.2870   -1.4081   30.9082 N.ar    1  UNL1       -0.2087
     33 C           3.9288   -0.7763   30.9865 C.ar    1  UNL1        0.1396
     34 N           3.3763   -0.3478   32.3136 N.pl3   1  UNL1       -0.3420
     35 C           3.1230   -0.5731   29.7377 C.ar    1  UNL1        0.1308
     36 H           3.9052   -0.4812   33.1332 H       1  UNL1        0.1437
     37 H           2.4849    0.0669   32.3650 H       1  UNL1        0.1437
     38 C           1.7648    0.0587   29.8160 C.1     1  UNL1        0.1061
     39 N           0.4066    0.6904   29.8943 N.1     1  UNL1       -0.1906
@<TRIPOS>BOND
     1    22    23    1
     2    23    24    1
     3    23    18    1
     4    18    19   am
     5    19    20    2
     6    19     1    1
     7     1     2   ar
     8     2    12    1
     9    12    13   ar
    10    13    14   ar
    11    14    15   ar
    12    15    16   ar
    13    16    17   ar
    14     2     3   ar
    15     3    25    1
    16    25    26    1
    17    25    27    1
    18    27    29    1
    19    29    30   ar
    20    30    31   ar
    21    31    32   ar
    22    32    33   ar
    23    33    34    1
    24    33    35   ar
    25    35    38    1
    26    38    39    3
    27     3     4   ar
    28     4     5   ar
    29     5     6   ar
    30     6     7   ar
    31     7     8   ar
    32     8     9    1
    33     8    10   ar
    34    10    11   ar
    35    11     1   ar
    36    17    12   ar
    37    35    29   ar
    38    11     5   ar
    39    18    21    1
    40    27    28    1
    41    34    36    1
    42    34    37    1
@<TRIPOS>MOLECULE
*****
 39 42 0 0 0
SMALL
GASTEIGER

@<TRIPOS>ATOM
      1 C           0.7890    1.7019   23.6411 C.ar    1  UNL1        0.0561
      2 C          -0.3315    2.5623   23.1369 C.ar    1  UNL1        0.0196
      3 C          -0.7740    2.4561   21.7076 C.ar    1  UNL1        0.0768
      4 N          -0.0960    1.4895   20.7824 N.ar    1  UNL1       -0.2480
      5 C           1.0246    0.6291   21.2866 C.ar    1  UNL1        0.0812
      6 C           1.7026   -0.3375   20.3614 C.ar    1  UNL1        0.0214
      7 C           2.8232   -1.1978   20.8655 C.ar    1  UNL1        0.0312
      8 C           3.2656   -1.0916   22.2948 C.ar    1  UNL1        0.1402
      9 F           4.3862   -1.9520   22.7990 F       1  UNL1       -0.2042
     10 C           2.5876   -0.1251   23.2200 C.ar    1  UNL1        0.0313
     11 C           1.4671    0.7353   22.7159 C.ar    1  UNL1        0.0243
     12 C          -1.0096    3.5289   24.0621 C.ar    1  UNL1        0.0013
     13 C          -0.4438    4.9045   24.2556 C.ar    1  UNL1        0.0000
     14 C          -1.1218    5.8711   25.1807 C.ar    1  UNL1        0.0000
     15 C          -2.3657    5.4621   25.9124 C.ar    1  UNL1        0.0000
     16 C          -2.9316    4.0864   25.7189 C.ar    1  UNL1        0.0000
     17 C          -2.2535    3.1198   24.7938 C.ar    1  UNL1        0.0000
     18 N           0.5573    0.9844   26.1274 N.am    1  UNL1       -0.3025
     19 C           1.2314    1.8081   25.0704 C.2     1  UNL1        0.2459
     20 O           2.3479    2.7380   25.4428 O.2     1  UNL1       -0.2701
     21 H          -0.1755    0.3740   25.8830 H       1  UNL1        0.1497
     22 C           0.2730    2.0015   28.5011 C.3     1  UNL1        0.0213
     23 C           0.9998    1.0906   27.5567 C.3     1  UNL1        0.0720
     24 C           2.1691    0.2858   28.0416 C.3     1  UNL1        0.0213
     25 C          -1.8946    3.3165   21.2035 C.3     1  UNL1        0.1109
     26 C          -1.7100    4.8012   21.0957 C.3     1  UNL1        0.0278
     27 N          -3.1996    2.6922   20.8072 N.pl3   1  UNL1       -0.3142
     28 H          -3.2078    1.8474   20.3017 H       1  UNL1        0.1485
     29 C          -4.4922    3.3550   21.1811 C.ar    1  UNL1        0.1429
     30 N          -4.8513    3.5370   22.6261 N.ar    1  UNL1       -0.2084
     31 C          -6.1439    4.1999   23.0000 C.ar    1  UNL1        0.2012
     32 N          -7.0774    4.6808   21.9290 N.ar    1  UNL1       -0.2087
     33 C          -6.7184    4.4988   20.4840 C.ar    1  UNL1        0.1396
     34 N          -7.6520    4.9798   19.4129 N.pl3   1  UNL1       -0.3420
     35 C          -5.4258    3.8360   20.1100 C.ar    1  UNL1        0.1308
     36 H          -8.5003    5.4148   19.6584 H       1  UNL1        0.1437
     37 H          -7.4163    4.8603   18.4645 H       1  UNL1        0.1437
     38 C          -5.0668    3.6540   18.6651 C.1     1  UNL1        0.1061
     39 N          -4.7077    3.4721   17.2201 N.1     1  UNL1       -0.1906
@<TRIPOS>BOND
     1    22    23    1
     2    23    24    1
     3    23    18    1
     4    18    19   am
     5    19    20    2
     6    19     1    1
     7     1     2   ar
     8     2    12    1
     9    12    13   ar
    10    13    14   ar
    11    14    15   ar
    12    15    16   ar
    13    16    17   ar
    14     2     3   ar
    15     3    25    1
    16    25    26    1
    17    25    27    1
    18    27    29    1
    19    29    30   ar
    20    30    31   ar
    21    31    32   ar
    22    32    33   ar
    23    33    34    1
    24    33    35   ar
    25    35    38    1
    26    38    39    3
    27     3     4   ar
    28     4     5   ar
    29     5     6   ar
    30     6     7   ar
    31     7     8   ar
    32     8     9    1
    33     8    10   ar
    34    10    11   ar
    35    11     1   ar
    36    17    12   ar
    37    35    29   ar
    38    11     5   ar
    39    18    21    1
    40    27    28    1
    41    34    36    1
    42    34    37    1
@<TRIPOS>MOLECULE
*****
 39 42 0 0 0
SMALL
GASTEIGER

@<TRIPOS>ATOM
      1 C           4.3542   -1.7111   22.1731 C.ar    1  UNL1        0.0561
      2 C           3.4593   -0.6119   22.6640 C.ar    1  UNL1        0.0196
      3 C           3.3975   -0.2927   24.1283 C.ar    1  UNL1        0.0768
      4 N           4.2306   -1.0725   25.1018 N.ar    1  UNL1       -0.2480
      5 C           5.1256   -2.1718   24.6109 C.ar    1  UNL1        0.0812
      6 C           5.9587   -2.9516   25.5844 C.ar    1  UNL1        0.0214
      7 C           6.8536   -4.0508   25.0935 C.ar    1  UNL1        0.0312
      8 C           6.9154   -4.3701   23.6292 C.ar    1  UNL1        0.1402
      9 F           7.8103   -5.4693   23.1384 F       1  UNL1       -0.2042
     10 C           6.0823   -3.5902   22.6557 C.ar    1  UNL1        0.0313
     11 C           5.1874   -2.4910   23.1466 C.ar    1  UNL1        0.0243
     12 C           2.6261    0.1680   21.6905 C.ar    1  UNL1        0.0013
     13 C           3.0904    1.5127   21.2149 C.ar    1  UNL1        0.0000
     14 C           2.2573    2.2927   20.2414 C.ar    1  UNL1        0.0000
     15 C           0.9600    1.7279   19.7436 C.ar    1  UNL1        0.0000
     16 C           0.4957    0.3832   20.2193 C.ar    1  UNL1        0.0000
     17 C           1.3288   -0.3968   21.1927 C.ar    1  UNL1        0.0000
     18 N           5.2351   -1.1747   19.7885 N.am    1  UNL1       -0.3025
     19 C           4.4160   -2.0304   20.7088 C.2     1  UNL1        0.2459
     20 O           3.6587   -3.2053   20.1647 O.2     1  UNL1       -0.2701
     21 H           5.7322   -0.4035   20.1456 H       1  UNL1        0.1497
     22 C           4.2574   -0.9453   17.3924 C.3     1  UNL1        0.0213
     23 C           5.2969   -1.4939   18.3242 C.3     1  UNL1        0.0720
     24 C           6.3983   -2.3619   17.7916 C.3     1  UNL1        0.0213
     25 C           2.5025    0.8066   24.6191 C.3     1  UNL1        0.1109
     26 C           3.0748    2.1585   24.9269 C.3     1  UNL1        0.0278
     27 N           1.0354    0.5538   24.8022 N.pl3   1  UNL1       -0.3142
     28 H           0.7195   -0.3389   25.0716 H       1  UNL1        0.1485
     29 C           0.0495    1.6611   24.5746 C.ar    1  UNL1        0.1429
     30 N          -0.0594    2.3023   23.2229 N.ar    1  UNL1       -0.2084
     31 C          -1.0453    3.4096   22.9953 C.ar    1  UNL1        0.2012
     32 N          -1.9223    3.8758   24.1194 N.ar    1  UNL1       -0.2087
     33 C          -1.8134    3.2347   25.4710 C.ar    1  UNL1        0.1396
     34 N          -2.6904    3.7008   26.5951 N.pl3   1  UNL1       -0.3420
     35 C          -0.8275    2.1273   25.6987 C.ar    1  UNL1        0.1308
     36 H          -3.3375    4.4276   26.4457 H       1  UNL1        0.1437
     37 H          -2.6189    3.2800   27.4823 H       1  UNL1        0.1437
     38 C          -0.7186    1.4861   27.0503 C.1     1  UNL1        0.1061
     39 N          -0.6097    0.8450   28.4020 N.1     1  UNL1       -0.1906
@<TRIPOS>BOND
     1    22    23    1
     2    23    24    1
     3    23    18    1
     4    18    19   am
     5    19    20    2
     6    19     1    1
     7     1     2   ar
     8     2    12    1
     9    12    13   ar
    10    13    14   ar
    11    14    15   ar
    12    15    16   ar
    13    16    17   ar
    14     2     3   ar
    15     3    25    1
    16    25    26    1
    17    25    27    1
    18    27    29    1
    19    29    30   ar
    20    30    31   ar
    21    31    32   ar
    22    32    33   ar
    23    33    34    1
    24    33    35   ar
    25    35    38    1
    26    38    39    3
    27     3     4   ar
    28     4     5   ar
    29     5     6   ar
    30     6     7   ar
    31     7     8   ar
    32     8     9    1
    33     8    10   ar
    34    10    11   ar
    35    11     1   ar
    36    17    12   ar
    37    35    29   ar
    38    11     5   ar
    39    18    21    1
    40    27    28    1
    41    34    36    1
    42    34    37    1
@<TRIPOS>MOLECULE
*****
 39 42 0 0 0
SMALL
GASTEIGER

@<TRIPOS>ATOM
      1 C           2.5609    3.8614   36.3681 C.ar    1  UNL1        0.0561
      2 C           3.6516    3.3514   35.4736 C.ar    1  UNL1        0.0196
      3 C           3.8495    3.9534   34.1140 C.ar    1  UNL1        0.0768
      4 N           2.9567    5.0654   33.6490 N.ar    1  UNL1       -0.2480
      5 C           1.8659    5.5755   34.5435 C.ar    1  UNL1        0.0812
      6 C           0.9731    6.6875   34.0785 C.ar    1  UNL1        0.0214
      7 C          -0.1176    7.1975   34.9730 C.ar    1  UNL1        0.0312
      8 C          -0.3155    6.5955   36.3326 C.ar    1  UNL1        0.1402
      9 F          -1.4063    7.1056   37.2271 F       1  UNL1       -0.2042
     10 C           0.5773    5.4835   36.7976 C.ar    1  UNL1        0.0313
     11 C           1.6680    4.9735   35.9031 C.ar    1  UNL1        0.0243
     12 C           4.5445    2.2394   35.9386 C.ar    1  UNL1        0.0013
     13 C           5.8186    2.5544   36.6648 C.ar    1  UNL1        0.0000
     14 C           6.7115    1.4425   37.1298 C.ar    1  UNL1        0.0000
     15 C           6.3302    0.0155   36.8687 C.ar    1  UNL1        0.0000
     16 C           5.0560   -0.2996   36.1426 C.ar    1  UNL1        0.0000
     17 C           4.1632    0.8124   35.6775 C.ar    1  UNL1        0.0000
     18 N           1.3234    2.1979   37.9338 N.am    1  UNL1       -0.3025
     19 C           2.3630    3.2594   37.7277 C.2     1  UNL1        0.2459
     20 O           3.2046    3.7189   38.8811 O.2     1  UNL1       -0.2701
     21 H           0.7710    1.8963   37.1767 H       1  UNL1        0.1497
     22 C           0.4923    2.4044   40.3867 C.3     1  UNL1        0.0213
     23 C           1.1255    1.5959   39.2934 C.3     1  UNL1        0.0720
     24 C           1.5608    0.1853   39.5596 C.3     1  UNL1        0.0213
     25 C           4.9403    3.4434   33.2195 C.3     1  UNL1        0.1109
     26 C           6.2170    4.2178   33.0771 C.3     1  UNL1        0.0278
     27 N           4.7543    2.1590   32.4674 N.pl3   1  UNL1       -0.3142
     28 H           5.2774    1.3628   32.7160 H       1  UNL1        0.1485
     29 C           3.7713    2.0876   31.3367 C.ar    1  UNL1        0.1429
     30 N           3.4619    3.3159   30.5332 N.ar    1  UNL1       -0.2084
     31 C           2.4789    3.2445   29.4024 C.ar    1  UNL1        0.2012
     32 N           1.8054    1.9448   29.0751 N.ar    1  UNL1       -0.2087
     33 C           2.1148    0.7165   29.8785 C.ar    1  UNL1        0.1396
     34 N           1.4412   -0.5832   29.5512 N.pl3   1  UNL1       -0.3420
     35 C           3.0978    0.7879   31.0094 C.ar    1  UNL1        0.1308
     36 H           0.7961   -0.6300   28.8091 H       1  UNL1        0.1437
     37 H           1.6443   -1.3893   30.0785 H       1  UNL1        0.1437
     38 C           3.4072   -0.4404   31.8128 C.1     1  UNL1        0.1061
     39 N           3.7166   -1.6687   32.6162 N.1     1  UNL1       -0.1906
@<TRIPOS>BOND
     1    22    23    1
     2    23    24    1
     3    23    18    1
     4    18    19   am
     5    19    20    2
     6    19     1    1
     7     1     2   ar
     8     2    12    1
     9    12    13   ar
    10    13    14   ar
    11    14    15   ar
    12    15    16   ar
    13    16    17   ar
    14     2     3   ar
    15     3    25    1
    16    25    26    1
    17    25    27    1
    18    27    29    1
    19    29    30   ar
    20    30    31   ar
    21    31    32   ar
    22    32    33   ar
    23    33    34    1
    24    33    35   ar
    25    35    38    1
    26    38    39    3
    27     3     4   ar
    28     4     5   ar
    29     5     6   ar
    30     6     7   ar
    31     7     8   ar
    32     8     9    1
    33     8    10   ar
    34    10    11   ar
    35    11     1   ar
    36    17    12   ar
    37    35    29   ar
    38    11     5   ar
    39    18    21    1
    40    27    28    1
    41    34    36    1
    42    34    37    1
