@<TRIPOS>MOLECULE
*****
 29 32 0 0 0
SMALL
GASTEIGER

@<TRIPOS>ATOM
      1 C          -8.4707  -17.7422   22.1643 C.3     1  UNL1        0.1753
      2 C          -7.4542  -17.0840   23.0496 C.3     1  UNL1        0.1147
      3 C          -6.1096  -17.6619   22.7206 C.2     1  UNL1        0.0419
      4 C          -6.2951  -18.6772   21.6320 C.2     1  UNL1        0.0827
      5 C          -5.1114  -19.4253   21.0945 C.2     1  UNL1        0.1442
      6 O          -5.2969  -20.4405   20.0060 O.2     1  UNL1       -0.5045
      7 C          -3.7421  -19.1582   21.6455 C.2     1  UNL1        0.0331
      8 C          -2.5582  -19.9063   21.1080 C.3     1  UNL1        0.0359
      9 C          -3.5566  -18.1429   22.7341 C.2     1  UNL1        0.1094
     10 N          -2.1872  -17.8758   23.2851 N.2     1  UNL1       -0.2956
     11 C          -4.7403  -17.3948   23.2716 C.2     1  UNL1        0.2097
     12 O          -4.5548  -16.3796   24.3601 O.2     1  UNL1       -0.2853
     13 N          -7.7544  -18.7268   21.2883 N.pl3   1  UNL1       -0.2842
     14 C          -8.7709  -19.3849   20.4031 C.3     1  UNL1        0.1103
     15 C         -10.1155  -18.8070   20.7320 C.3     1  UNL1        0.0963
     16 C          -9.9300  -17.7918   21.8206 C.3     1  UNL1        0.1175
     17 N         -11.2993  -18.0589   21.2696 N.3     1  UNL1       -0.2666
     18 C         -12.7733  -17.7812   21.2618 C.3     1  UNL1        0.0898
     19 H          -6.1523  -20.6074   19.6618 H       1  UNL1        0.2922
     20 H          -1.4102  -18.3669   22.9323 H       1  UNL1        0.1869
     21 C         -10.3274  -17.2118   23.9026 C.3     1  UNL1        0.1760
     22 O          -9.1871  -16.7576   23.0404 O.3     1  UNL1       -0.3372
     23 C          -7.7334  -16.0327   24.0823 C.3     1  UNL1        0.2186
     24 O          -7.6948  -16.3843   25.5400 O.3     1  UNL1       -0.4343
     25 C          -7.3718  -15.3304   26.5574 C.2     1  UNL1        0.3985
     26 N          -6.0291  -14.6619   26.5445 N.am    1  UNL1       -0.2950
     27 O          -8.3916  -14.9449   27.5877 O.2     1  UNL1       -0.2267
     28 H          -5.3597  -14.9149   25.8683 H       1  UNL1        0.1482
     29 H          -5.8171  -13.9702   27.2123 H       1  UNL1        0.1482
@<TRIPOS>BOND
     1    21    22    1
     2    22     1    1
     3     1     2    1
     4     2    23    1
     5    23    24    1
     6    24    25    1
     7    25    26   am
     8    25    27    2
     9     2     3    1
    10     3     4    2
    11     4     5    1
    12     5     6    1
    13     5     7    2
    14     7     8    1
    15     7     9    1
    16     9    10    2
    17     9    11    1
    18    11    12    2
    19     4    13    1
    20    13    14    1
    21    15    14    1
    22    15    16    1
    23    16    17    1
    24    17    18    1
    25    13     1    1
    26    17    15    1
    27    16     1    1
    28    11     3    1
    29    26    28    1
    30    26    29    1
    31     6    19    1
    32    10    20    1
@<TRIPOS>MOLECULE
*****
 29 32 0 0 0
SMALL
GASTEIGER

@<TRIPOS>ATOM
      1 C          -7.6216  -18.9768   20.7055 C.3     1  UNL1        0.1753
      2 C          -6.3815  -18.5284   21.4207 C.3     1  UNL1        0.1147
      3 C          -6.7952  -17.6197   22.5403 C.2     1  UNL1        0.0419
      4 C          -8.2907  -17.5065   22.5170 C.2     1  UNL1        0.0827
      5 C          -8.9942  -16.6544   23.5313 C.2     1  UNL1        0.1442
      6 O         -10.4898  -16.5413   23.5081 O.2     1  UNL1       -0.5045
      7 C          -8.2022  -15.9155   24.5689 C.2     1  UNL1        0.0331
      8 C          -8.9057  -15.0633   25.5833 C.3     1  UNL1        0.0359
      9 C          -6.7067  -16.0287   24.5922 C.2     1  UNL1        0.1094
     10 N          -5.9147  -15.2897   25.6298 N.2     1  UNL1       -0.2956
     11 C          -6.0032  -16.8808   23.5779 C.2     1  UNL1        0.2097
     12 O          -4.5076  -16.9940   23.6011 O.2     1  UNL1       -0.2853
     13 N          -8.8014  -18.3452   21.3831 N.pl3   1  UNL1       -0.2842
     14 C         -10.0413  -18.7937   20.6679 C.3     1  UNL1        0.1103
     15 C          -9.6278  -19.7023   19.5484 C.3     1  UNL1        0.0963
     16 C          -8.1323  -19.8155   19.5716 C.3     1  UNL1        0.1175
     17 N          -8.9243  -20.5544   18.5340 N.3     1  UNL1       -0.2666
     18 C          -8.9754  -21.4730   17.3493 C.3     1  UNL1        0.0898
     19 H         -10.9845  -17.0029   22.8599 H       1  UNL1        0.2922
     20 H          -6.3764  -14.7304   26.2956 H       1  UNL1        0.1869
     21 C          -6.2396  -21.0928   20.1029 C.3     1  UNL1        0.1760
     22 O          -6.4416  -19.6083   20.0280 O.3     1  UNL1       -0.3372
     23 C          -4.9751  -18.9199   21.0767 C.3     1  UNL1        0.2186
     24 O          -4.0704  -19.4751   22.1366 O.3     1  UNL1       -0.4343
     25 C          -2.5831  -19.3345   22.0022 C.2     1  UNL1        0.3985
     26 N          -1.8919  -18.1212   22.5500 N.am    1  UNL1       -0.2950
     27 O          -1.7869  -20.4072   21.3200 O.2     1  UNL1       -0.2267
     28 H          -2.4145  -17.4171   22.9978 H       1  UNL1        0.1482
     29 H          -0.9157  -18.0289   22.4618 H       1  UNL1        0.1482
@<TRIPOS>BOND
     1    21    22    1
     2    22     1    1
     3     1     2    1
     4     2    23    1
     5    23    24    1
     6    24    25    1
     7    25    26   am
     8    25    27    2
     9     2     3    1
    10     3     4    2
    11     4     5    1
    12     5     6    1
    13     5     7    2
    14     7     8    1
    15     7     9    1
    16     9    10    2
    17     9    11    1
    18    11    12    2
    19     4    13    1
    20    13    14    1
    21    15    14    1
    22    15    16    1
    23    16    17    1
    24    17    18    1
    25    13     1    1
    26    17    15    1
    27    16     1    1
    28    11     3    1
    29    26    28    1
    30    26    29    1
    31     6    19    1
    32    10    20    1
@<TRIPOS>MOLECULE
*****
 29 32 0 0 0
SMALL
GASTEIGER

@<TRIPOS>ATOM
      1 C         -14.1184   -6.6008   19.0018 C.3     1  UNL1        0.1753
      2 C         -15.4390   -7.3003   18.8716 C.3     1  UNL1        0.1147
      3 C         -16.5188   -6.3218   19.2272 C.2     1  UNL1        0.0419
      4 C         -15.8657   -5.0176   19.5772 C.2     1  UNL1        0.0827
      5 C         -16.7063   -3.8415   19.9775 C.2     1  UNL1        0.1442
      6 O         -16.0531   -2.5373   20.3275 O.2     1  UNL1       -0.5045
      7 C         -18.1999   -3.9696   20.0277 C.2     1  UNL1        0.0331
      8 C         -19.0405   -2.7935   20.4280 C.3     1  UNL1        0.0359
      9 C         -18.8530   -5.2738   19.6777 C.2     1  UNL1        0.1094
     10 N         -20.3467   -5.4019   19.7280 N.2     1  UNL1       -0.2956
     11 C         -18.0125   -6.4499   19.2774 C.2     1  UNL1        0.2097
     12 O         -18.6656   -7.7541   18.9274 O.2     1  UNL1       -0.2853
     13 N         -14.3822   -5.1901   19.4379 N.pl3   1  UNL1       -0.2842
     14 C         -13.0617   -4.4906   19.5681 C.3     1  UNL1        0.1103
     15 C         -11.9817   -5.4691   19.2126 C.3     1  UNL1        0.0963
     16 C         -12.6349   -6.7733   18.8626 C.3     1  UNL1        0.1175
     17 N         -11.1412   -6.6452   18.8123 N.3     1  UNL1       -0.2666
     18 C          -9.7935   -7.2502   18.5522 C.3     1  UNL1        0.0898
     19 H         -15.1201   -2.4573   20.2960 H       1  UNL1        0.2922
     20 H         -20.8984   -4.6300   19.9908 H       1  UNL1        0.1869
     21 C         -13.2953   -8.2825   17.2005 C.3     1  UNL1        0.1760
     22 O         -13.8546   -8.0117   18.5658 O.3     1  UNL1       -0.3372
     23 C         -15.6436   -8.7276   18.4583 C.3     1  UNL1        0.2186
     24 O         -16.2778   -9.7000   19.4082 O.3     1  UNL1       -0.4343
     25 C         -17.0034  -10.9012   18.8784 C.2     1  UNL1        0.3985
     26 N         -18.3678  -10.7472   18.2744 N.am    1  UNL1       -0.2950
     27 O         -16.3647  -12.2564   18.9526 O.2     1  UNL1       -0.2267
     28 H         -18.7870   -9.8577   18.2257 H       1  UNL1        0.1482
     29 H         -18.8440  -11.5355   17.9267 H       1  UNL1        0.1482
@<TRIPOS>BOND
     1    21    22    1
     2    22     1    1
     3     1     2    1
     4     2    23    1
     5    23    24    1
     6    24    25    1
     7    25    26   am
     8    25    27    2
     9     2     3    1
    10     3     4    2
    11     4     5    1
    12     5     6    1
    13     5     7    2
    14     7     8    1
    15     7     9    1
    16     9    10    2
    17     9    11    1
    18    11    12    2
    19     4    13    1
    20    13    14    1
    21    15    14    1
    22    15    16    1
    23    16    17    1
    24    17    18    1
    25    13     1    1
    26    17    15    1
    27    16     1    1
    28    11     3    1
    29    26    28    1
    30    26    29    1
    31     6    19    1
    32    10    20    1
@<TRIPOS>MOLECULE
*****
 29 32 0 0 0
SMALL
GASTEIGER

@<TRIPOS>ATOM
      1 C         -15.5515   -6.6552   19.3108 C.3     1  UNL1        0.1753
      2 C         -15.1060   -5.2492   19.5849 C.3     1  UNL1        0.1147
      3 C         -13.6413   -5.1584   19.2745 C.2     1  UNL1        0.0419
      4 C         -13.1815   -6.5080   18.8087 C.2     1  UNL1        0.0827
      5 C         -11.7472   -6.7203   18.4244 C.2     1  UNL1        0.1442
      6 O         -11.2874   -8.0699   17.9585 O.2     1  UNL1       -0.5045
      7 C         -10.7727   -5.5829   18.5058 C.2     1  UNL1        0.0331
      8 C          -9.3384   -5.7951   18.1214 C.3     1  UNL1        0.0359
      9 C         -11.2325   -4.2332   18.9716 C.2     1  UNL1        0.1094
     10 N         -10.2580   -3.0958   19.0530 N.2     1  UNL1       -0.2956
     11 C         -12.6668   -4.0209   19.3560 C.2     1  UNL1        0.2097
     12 O         -13.1266   -2.6713   19.8218 O.2     1  UNL1       -0.2853
     13 N         -14.3620   -7.4331   18.8312 N.pl3   1  UNL1       -0.2842
     14 C         -14.8075   -8.8389   18.5571 C.3     1  UNL1        0.1103
     15 C         -16.2723   -8.9299   18.8674 C.3     1  UNL1        0.0963
     16 C         -16.7321   -7.5802   19.3332 C.3     1  UNL1        0.1175
     17 N         -17.7065   -8.7176   19.2518 N.3     1  UNL1       -0.2666
     18 C         -19.0972   -9.2518   19.4267 C.3     1  UNL1        0.0898
     19 H         -11.8961   -8.7805   17.9077 H       1  UNL1        0.2922
     20 H          -9.3166   -3.2351   18.8007 H       1  UNL1        0.1869
     21 C         -17.9437   -5.7254   18.9071 C.3     1  UNL1        0.1760
     22 O         -16.7410   -5.8772   19.7905 O.3     1  UNL1       -0.3372
     23 C         -15.9731   -4.1308   20.0819 C.3     1  UNL1        0.2186
     24 O         -16.1312   -2.8837   19.2635 O.3     1  UNL1       -0.4343
     25 C         -16.7294   -1.6535   19.8790 C.2     1  UNL1        0.3985
     26 N         -18.0969   -1.7110   20.4927 N.am    1  UNL1       -0.2950
     27 O         -15.9601   -0.3658   19.8809 O.2     1  UNL1       -0.2267
     28 H         -18.6019   -2.5562   20.4915 H       1  UNL1        0.1482
     29 H         -18.4896   -0.9036   20.8966 H       1  UNL1        0.1482
@<TRIPOS>BOND
     1    21    22    1
     2    22     1    1
     3     1     2    1
     4     2    23    1
     5    23    24    1
     6    24    25    1
     7    25    26   am
     8    25    27    2
     9     2     3    1
    10     3     4    2
    11     4     5    1
    12     5     6    1
    13     5     7    2
    14     7     8    1
    15     7     9    1
    16     9    10    2
    17     9    11    1
    18    11    12    2
    19     4    13    1
    20    13    14    1
    21    15    14    1
    22    15    16    1
    23    16    17    1
    24    17    18    1
    25    13     1    1
    26    17    15    1
    27    16     1    1
    28    11     3    1
    29    26    28    1
    30    26    29    1
    31     6    19    1
    32    10    20    1
@<TRIPOS>MOLECULE
*****
 29 32 0 0 0
SMALL
GASTEIGER

@<TRIPOS>ATOM
      1 C          -6.2517  -18.2053   21.9884 C.3     1  UNL1        0.1753
      2 C          -6.9339  -17.1750   22.8389 C.3     1  UNL1        0.1147
      3 C          -8.4092  -17.2659   22.5831 C.2     1  UNL1        0.0419
      4 C          -8.6387  -18.3523   21.5746 C.2     1  UNL1        0.0827
      5 C         -10.0322  -18.6726   21.1213 C.2     1  UNL1        0.1442
      6 O         -10.2618  -19.7590   20.1128 O.2     1  UNL1       -0.5045
      7 C         -11.1962  -17.9064   21.6765 C.2     1  UNL1        0.0331
      8 C         -12.5897  -18.2267   21.2232 C.3     1  UNL1        0.0359
      9 C         -10.9666  -16.8201   22.6850 C.2     1  UNL1        0.1094
     10 N         -12.1306  -16.0539   23.2402 N.2     1  UNL1       -0.2956
     11 C          -9.5731  -16.4998   23.1383 C.2     1  UNL1        0.2097
     12 O          -9.3435  -15.4134   24.1468 O.2     1  UNL1       -0.2853
     13 N          -7.3053  -18.9329   21.2071 N.pl3   1  UNL1       -0.2842
     14 C          -6.6231  -19.9631   20.3566 C.3     1  UNL1        0.1103
     15 C          -5.1479  -19.8722   20.6123 C.3     1  UNL1        0.0963
     16 C          -4.9183  -18.7858   21.6208 C.3     1  UNL1        0.1175
     17 N          -3.7544  -19.5520   21.0657 N.3     1  UNL1       -0.2666
     18 C          -2.2778  -19.8094   21.0068 C.3     1  UNL1        0.0898
     19 H          -9.5347  -20.2375   19.7660 H       1  UNL1        0.2922
     20 H         -13.0452  -16.2641   22.9426 H       1  UNL1        0.1869
     21 C          -4.1594  -18.2499   23.5281 C.3     1  UNL1        0.1760
     22 O          -5.1980  -17.4777   22.7698 O.3     1  UNL1       -0.3372
     23 C          -6.2592  -16.2214   23.7798 C.3     1  UNL1        0.2186
     24 O          -6.5891  -16.2516   25.2427 O.3     1  UNL1       -0.4343
     25 C          -6.1509  -15.1273   26.1338 C.2     1  UNL1        0.3985
     26 N          -6.9496  -14.7842   27.3562 N.am    1  UNL1       -0.2950
     27 O          -4.9141  -14.3461   25.8023 O.2     1  UNL1       -0.2267
     28 H          -7.7614  -15.2969   27.5737 H       1  UNL1        0.1482
     29 H          -6.6620  -14.0462   27.9410 H       1  UNL1        0.1482
@<TRIPOS>BOND
     1    21    22    1
     2    22     1    1
     3     1     2    1
     4     2    23    1
     5    23    24    1
     6    24    25    1
     7    25    26   am
     8    25    27    2
     9     2     3    1
    10     3     4    2
    11     4     5    1
    12     5     6    1
    13     5     7    2
    14     7     8    1
    15     7     9    1
    16     9    10    2
    17     9    11    1
    18    11    12    2
    19     4    13    1
    20    13    14    1
    21    15    14    1
    22    15    16    1
    23    16    17    1
    24    17    18    1
    25    13     1    1
    26    17    15    1
    27    16     1    1
    28    11     3    1
    29    26    28    1
    30    26    29    1
    31     6    19    1
    32    10    20    1
@<TRIPOS>MOLECULE
*****
 29 32 0 0 0
SMALL
GASTEIGER

@<TRIPOS>ATOM
      1 C         -15.9830   -4.4549   19.3750 C.3     1  UNL1        0.1753
      2 C         -15.5631   -5.8617   19.0671 C.3     1  UNL1        0.1147
      3 C         -14.0650   -5.8938   18.9987 C.2     1  UNL1        0.0419
      4 C         -13.5590   -4.5069   19.2643 C.2     1  UNL1        0.0827
      5 C         -12.0843   -4.2329   19.2601 C.2     1  UNL1        0.1442
      6 O         -11.5783   -2.8460   19.5256 O.2     1  UNL1       -0.5045
      7 C         -11.1155   -5.3459   18.9903 C.2     1  UNL1        0.0331
      8 C          -9.6407   -5.0719   18.9860 C.3     1  UNL1        0.0359
      9 C         -11.6215   -6.7328   18.7247 C.2     1  UNL1        0.1094
     10 N         -10.6526   -7.8457   18.4549 N.2     1  UNL1       -0.2956
     11 C         -13.0962   -7.0067   18.7290 C.2     1  UNL1        0.2097
     12 O         -13.6022   -8.3936   18.4634 O.2     1  UNL1       -0.2853
     13 N         -14.7444   -3.6176   19.4968 N.pl3   1  UNL1       -0.2842
     14 C         -15.1643   -2.2109   19.8046 C.3     1  UNL1        0.1103
     15 C         -16.6624   -2.1788   19.8731 C.3     1  UNL1        0.0963
     16 C         -17.1684   -3.5657   19.6075 C.3     1  UNL1        0.1175
     17 N         -18.1372   -2.4527   19.8773 N.3     1  UNL1       -0.2666
     18 C         -19.5480   -1.9683   20.0355 C.3     1  UNL1        0.0898
     19 H         -12.1835   -2.1508   19.6941 H       1  UNL1        0.2922
     20 H          -9.6847   -7.6659   18.4521 H       1  UNL1        0.1869
     21 C         -18.2075   -5.0179   18.1564 C.3     1  UNL1        0.1760
     22 O         -17.2216   -5.2923   19.2531 O.3     1  UNL1       -0.3372
     23 C         -16.4803   -7.0310   18.8635 C.3     1  UNL1        0.2186
     24 O         -16.4749   -8.1679   19.8419 O.3     1  UNL1       -0.4343
     25 C         -17.0318   -9.5026   19.4439 C.2     1  UNL1        0.3985
     26 N         -18.4747   -9.8205   19.7024 N.am    1  UNL1       -0.2950
     27 O         -16.1457  -10.5194   18.7874 O.2     1  UNL1       -0.2267
     28 H         -19.0563   -9.1531   20.1333 H       1  UNL1        0.1482
     29 H         -18.8402  -10.6965   19.4411 H       1  UNL1        0.1482
@<TRIPOS>BOND
     1    21    22    1
     2    22     1    1
     3     1     2    1
     4     2    23    1
     5    23    24    1
     6    24    25    1
     7    25    26   am
     8    25    27    2
     9     2     3    1
    10     3     4    2
    11     4     5    1
    12     5     6    1
    13     5     7    2
    14     7     8    1
    15     7     9    1
    16     9    10    2
    17     9    11    1
    18    11    12    2
    19     4    13    1
    20    13    14    1
    21    15    14    1
    22    15    16    1
    23    16    17    1
    24    17    18    1
    25    13     1    1
    26    17    15    1
    27    16     1    1
    28    11     3    1
    29    26    28    1
    30    26    29    1
    31     6    19    1
    32    10    20    1
@<TRIPOS>MOLECULE
*****
 29 32 0 0 0
SMALL
GASTEIGER

@<TRIPOS>ATOM
      1 C          -4.6890  -18.2729   21.4879 C.3     1  UNL1        0.1753
      2 C          -5.5806  -17.7547   22.5773 C.3     1  UNL1        0.1147
      3 C          -6.9876  -18.1665   22.2598 C.2     1  UNL1        0.0419
      4 C          -6.9657  -18.9392   20.9743 C.2     1  UNL1        0.0827
      5 C          -8.2421  -19.4831   20.4043 C.2     1  UNL1        0.1442
      6 O          -8.2201  -20.2557   19.1188 O.2     1  UNL1       -0.5045
      7 C          -9.5404  -19.2543   21.1197 C.2     1  UNL1        0.0331
      8 C         -10.8169  -19.7982   20.5497 C.3     1  UNL1        0.0359
      9 C          -9.5623  -18.4816   22.4053 C.2     1  UNL1        0.1094
     10 N         -10.8608  -18.2529   23.1207 N.2     1  UNL1       -0.2956
     11 C          -8.2860  -17.9378   22.9753 C.2     1  UNL1        0.2097
     12 O          -8.3079  -17.1651   24.2608 O.2     1  UNL1       -0.2853
     13 N          -5.5451  -19.0049   20.4973 N.pl3   1  UNL1       -0.2842
     14 C          -4.6535  -19.5230   19.4079 C.3     1  UNL1        0.1103
     15 C          -3.2465  -19.1113   19.7253 C.3     1  UNL1        0.0963
     16 C          -3.2684  -18.3386   21.0108 C.3     1  UNL1        0.1175
     17 N          -1.9701  -18.5674   20.2953 N.3     1  UNL1       -0.2666
     18 C          -0.4835  -18.3855   20.2114 C.3     1  UNL1        0.0898
     19 H          -7.4091  -20.3986   18.6718 H       1  UNL1        0.2922
     20 H         -11.6985  -18.6099   22.7466 H       1  UNL1        0.1869
     21 C          -2.7120  -18.2553   23.1735 C.3     1  UNL1        0.1760
     22 O          -3.8330  -17.5408   22.4786 O.3     1  UNL1       -0.3372
     23 C          -5.1420  -16.9637   23.7739 C.3     1  UNL1        0.2186
     24 O          -5.4159  -15.4904   23.8406 O.3     1  UNL1       -0.4343
     25 C          -6.4619  -14.9637   24.7778 C.2     1  UNL1        0.3985
     26 N          -7.6820  -14.2819   24.2333 N.am    1  UNL1       -0.2950
     27 O          -6.2878  -15.1188   26.2596 O.2     1  UNL1       -0.2267
     28 H          -7.7962  -14.1801   23.2608 H       1  UNL1        0.1482
     29 H          -8.3685  -13.9362   24.8484 H       1  UNL1        0.1482
@<TRIPOS>BOND
     1    21    22    1
     2    22     1    1
     3     1     2    1
     4     2    23    1
     5    23    24    1
     6    24    25    1
     7    25    26   am
     8    25    27    2
     9     2     3    1
    10     3     4    2
    11     4     5    1
    12     5     6    1
    13     5     7    2
    14     7     8    1
    15     7     9    1
    16     9    10    2
    17     9    11    1
    18    11    12    2
    19     4    13    1
    20    13    14    1
    21    15    14    1
    22    15    16    1
    23    16    17    1
    24    17    18    1
    25    13     1    1
    26    17    15    1
    27    16     1    1
    28    11     3    1
    29    26    28    1
    30    26    29    1
    31     6    19    1
    32    10    20    1
@<TRIPOS>MOLECULE
*****
 29 32 0 0 0
SMALL
GASTEIGER

@<TRIPOS>ATOM
      1 C          -8.3133  -18.0920   22.2696 C.3     1  UNL1        0.1753
      2 C          -7.5505  -19.1810   21.5752 C.3     1  UNL1        0.1147
      3 C          -6.0912  -18.9760   21.8556 C.2     1  UNL1        0.0419
      4 C          -5.9522  -17.7603   22.7233 C.2     1  UNL1        0.0827
      5 C          -4.5931  -17.3080   23.1683 C.2     1  UNL1        0.1442
      6 O          -4.4540  -16.0923   24.0360 O.2     1  UNL1       -0.5045
      7 C          -3.3729  -18.0712   22.7456 C.2     1  UNL1        0.0331
      8 C          -2.0137  -17.6188   23.1907 C.3     1  UNL1        0.0359
      9 C          -3.5120  -19.2869   21.8780 C.2     1  UNL1        0.1094
     10 N          -2.2917  -20.0502   21.4553 N.2     1  UNL1       -0.2956
     11 C          -4.8711  -19.7393   21.4330 C.2     1  UNL1        0.2097
     12 O          -5.0101  -20.9549   20.5653 O.2     1  UNL1       -0.2853
     13 N          -7.3255  -17.2140   22.9792 N.pl3   1  UNL1       -0.2842
     14 C          -8.0884  -16.1250   23.6735 C.3     1  UNL1        0.1103
     15 C          -9.5476  -16.3299   23.3931 C.3     1  UNL1        0.0963
     16 C          -9.6867  -17.5456   22.5255 C.3     1  UNL1        0.1175
     17 N         -10.9068  -16.7823   22.9481 N.3     1  UNL1       -0.2666
     18 C         -12.3959  -16.6028   22.9352 C.3     1  UNL1        0.0898
     19 H          -5.2162  -15.6155   24.3000 H       1  UNL1        0.2922
     20 H          -1.3997  -19.7532   21.7474 H       1  UNL1        0.1869
     21 C         -10.3188  -19.7419   22.3465 C.3     1  UNL1        0.1760
     22 O          -9.3011  -18.9700   21.5601 O.3     1  UNL1       -0.3372
     23 C          -8.1429  -20.2816   20.7461 C.3     1  UNL1        0.2186
     24 O          -7.9769  -20.2703   19.2554 O.3     1  UNL1       -0.4343
     25 C          -9.1799  -20.3778   18.3659 C.2     1  UNL1        0.3985
     26 N         -10.4407  -19.6455   18.7178 N.am    1  UNL1       -0.2950
     27 O          -9.1220  -21.2178   17.1244 O.2     1  UNL1       -0.2267
     28 H         -10.4787  -19.0942   19.5326 H       1  UNL1        0.1482
     29 H         -11.2303  -19.7161   18.1340 H       1  UNL1        0.1482
@<TRIPOS>BOND
     1    21    22    1
     2    22     1    1
     3     1     2    1
     4     2    23    1
     5    23    24    1
     6    24    25    1
     7    25    26   am
     8    25    27    2
     9     2     3    1
    10     3     4    2
    11     4     5    1
    12     5     6    1
    13     5     7    2
    14     7     8    1
    15     7     9    1
    16     9    10    2
    17     9    11    1
    18    11    12    2
    19     4    13    1
    20    13    14    1
    21    15    14    1
    22    15    16    1
    23    16    17    1
    24    17    18    1
    25    13     1    1
    26    17    15    1
    27    16     1    1
    28    11     3    1
    29    26    28    1
    30    26    29    1
    31     6    19    1
    32    10    20    1
@<TRIPOS>MOLECULE
*****
 29 32 0 0 0
SMALL
GASTEIGER

@<TRIPOS>ATOM
      1 C           2.4166   -0.2181   22.2057 C.3     1  UNL1        0.1753
      2 C           3.1581   -1.1654   21.3096 C.3     1  UNL1        0.1147
      3 C           4.0968   -1.9690   22.1599 C.2     1  UNL1        0.0419
      4 C           3.9355   -1.5184   23.5815 C.2     1  UNL1        0.0827
      5 C           4.7551   -2.1516   24.6666 C.2     1  UNL1        0.1442
      6 O           4.5938   -1.7009   26.0882 O.2     1  UNL1       -0.5045
      7 C           5.7359   -3.2354   24.3300 C.2     1  UNL1        0.0331
      8 C           6.5555   -3.8686   25.4151 C.3     1  UNL1        0.0359
      9 C           5.8972   -3.6860   22.9085 C.2     1  UNL1        0.1094
     10 N           6.8780   -4.7699   22.5719 N.2     1  UNL1       -0.2956
     11 C           5.0776   -3.0528   21.8234 C.2     1  UNL1        0.2097
     12 O           5.2389   -3.5034   20.4018 O.2     1  UNL1       -0.2853
     13 N           2.8971   -0.4363   23.6098 N.pl3   1  UNL1       -0.2842
     14 C           2.1556    0.5110   24.5058 C.3     1  UNL1        0.1103
     15 C           1.2169    1.3146   23.6555 C.3     1  UNL1        0.0963
     16 C           1.3782    0.8639   22.2340 C.3     1  UNL1        0.1175
     17 N           0.3973    1.9477   22.5705 N.3     1  UNL1       -0.2666
     18 C          -0.6421    2.9391   22.1383 C.3     1  UNL1        0.0898
     19 H           3.9811   -1.0239   26.2984 H       1  UNL1        0.2922
     20 H           7.4159   -5.1855   23.2841 H       1  UNL1        0.1869
     21 C           0.4948   -0.2331   20.4573 C.3     1  UNL1        0.1760
     22 O           1.9361   -0.0000   20.8015 O.3     1  UNL1       -0.3372
     23 C           2.9902   -1.2876   19.8241 C.3     1  UNL1        0.2186
     24 O           4.0740   -0.8080   18.9047 O.3     1  UNL1       -0.4343
     25 C           4.3633   -1.5512   17.6343 C.2     1  UNL1        0.3985
     26 N           5.0729   -2.8718   17.6829 N.am    1  UNL1       -0.2950
     27 O           3.9429   -0.9739   16.3153 O.2     1  UNL1       -0.2267
     28 H           5.3489   -3.2508   18.5487 H       1  UNL1        0.1482
     29 H           5.2628   -3.3596   16.8491 H       1  UNL1        0.1482
@<TRIPOS>BOND
     1    21    22    1
     2    22     1    1
     3     1     2    1
     4     2    23    1
     5    23    24    1
     6    24    25    1
     7    25    26   am
     8    25    27    2
     9     2     3    1
    10     3     4    2
    11     4     5    1
    12     5     6    1
    13     5     7    2
    14     7     8    1
    15     7     9    1
    16     9    10    2
    17     9    11    1
    18    11    12    2
    19     4    13    1
    20    13    14    1
    21    15    14    1
    22    15    16    1
    23    16    17    1
    24    17    18    1
    25    13     1    1
    26    17    15    1
    27    16     1    1
    28    11     3    1
    29    26    28    1
    30    26    29    1
    31     6    19    1
    32    10    20    1
