@<TRIPOS>MOLECULE
*****
 36 39 0 0 0
SMALL
GASTEIGER

@<TRIPOS>ATOM
      1 S          -9.4100  -19.6848   22.6722 S.3     1  UNL1       -0.1124
      2 C          -8.0875  -19.6099   21.9685 C.ar    1  UNL1        0.0381
      3 C          -6.8242  -19.4491   22.7610 C.ar    1  UNL1        0.0380
      4 C          -5.5016  -19.3743   22.0572 C.ar    1  UNL1        0.1594
      5 F          -4.2383  -19.2135   22.8498 F       1  UNL1       -0.2027
      6 C          -5.4425  -19.4603   20.5609 C.ar    1  UNL1        0.1534
      7 C          -6.7058  -19.6211   19.7683 C.ar    1  UNL1        0.0344
      8 C          -8.0283  -19.6960   20.4721 C.ar    1  UNL1        0.0648
      9 CL         -9.2916  -19.8568   19.6795 Cl      1  UNL1       -0.0817
     10 S          -4.1200  -19.3855   19.8571 S.O2    1  UNL1        0.0772
     11 O          -3.6501  -20.5937   20.6116 O.2     1  UNL1       -0.1498
     12 O          -4.5898  -18.1772   19.1026 O.2     1  UNL1       -0.1498
     13 N          -2.7974  -19.3107   19.1533 N.pl3   1  UNL1       -0.1936
     14 H          -2.6329  -19.8622   18.3545 H       1  UNL1        0.1758
     15 C          -1.7254  -18.3956   19.6666 C.ar    1  UNL1        0.1786
     16 N          -0.2478  -18.5795   19.4851 N.ar    1  UNL1       -0.2214
     17 C           0.4481  -17.4336   20.1579 C.ar    1  UNL1        0.1079
     18 C          -0.5995  -16.5414   20.7552 C.ar    1  UNL1        0.0588
     19 S          -1.9428  -17.1360   20.4516 S.2     1  UNL1       -0.0497
     20 C         -10.1391  -18.4250   23.0346 C.3     1  UNL1        0.0678
     21 N         -12.1339  -18.7240   20.8138 N.3     1  UNL1       -0.3219
     22 C         -11.2974  -17.4825   20.9085 C.3     1  UNL1        0.0560
     23 C         -11.4583  -16.3905   19.8928 C.3     1  UNL1        0.0205
     24 C         -10.6218  -15.1490   19.9875 C.3     1  UNL1        0.0271
     25 C          -9.6245  -14.9994   21.0978 C.2     1  UNL1       -0.0303
     26 C          -9.4636  -16.0914   22.1135 C.2     1  UNL1       -0.0246
     27 C         -10.3001  -17.3329   22.0188 C.3     1  UNL1        0.0473
     28 H         -12.7522  -18.6565   20.0054 H       1  UNL1        0.1188
     29 H         -12.6923  -18.8232   21.6616 H       1  UNL1        0.1188
     30 C          -8.4662  -15.9419   23.2239 C.ar    1  UNL1       -0.0041
     31 C          -8.9373  -15.7113   24.6292 C.ar    1  UNL1        0.0020
     32 C          -7.9399  -15.5618   25.7396 C.ar    1  UNL1        0.0296
     33 C          -6.4714  -15.6430   25.4447 C.ar    1  UNL1        0.1401
     34 F          -5.4741  -15.4935   26.5550 F       1  UNL1       -0.2042
     35 C          -6.0004  -15.8736   24.0393 C.ar    1  UNL1        0.0296
     36 C          -6.9977  -16.0231   22.9290 C.ar    1  UNL1        0.0020
@<TRIPOS>BOND
     1    22    21    1
     2    22    23    1
     3    23    24    1
     4    24    25    1
     5    25    26    2
     6    26    30    1
     7    30    31   ar
     8    31    32   ar
     9    32    33   ar
    10    33    34    1
    11    33    35   ar
    12    35    36   ar
    13    26    27    1
    14    27    20    1
    15    20     1    1
    16     1     2    1
    17     2     3   ar
    18     3     4   ar
    19     4     5    1
    20     4     6   ar
    21     6    10    1
    22    10    11    2
    23    10    12    2
    24    10    13    1
    25    13    15    1
    26    15    16   ar
    27    16    17   ar
    28    17    18   ar
    29    18    19   ar
    30     6     7   ar
    31     7     8   ar
    32     8     9    1
    33    27    22    1
    34     8     2   ar
    35    36    30   ar
    36    19    15   ar
    37    21    28    1
    38    21    29    1
    39    13    14    1
@<TRIPOS>MOLECULE
*****
 36 39 0 0 0
SMALL
GASTEIGER

@<TRIPOS>ATOM
      1 S          -8.7576  -15.6478   24.7129 S.3     1  UNL1       -0.1124
      2 C          -7.4632  -16.2304   24.2281 C.ar    1  UNL1        0.0381
      3 C          -7.4443  -17.1058   23.0102 C.ar    1  UNL1        0.0380
      4 C          -6.1498  -17.6885   22.5254 C.ar    1  UNL1        0.1594
      5 F          -6.1309  -18.5639   21.3075 F       1  UNL1       -0.2027
      6 C          -4.8744  -17.3956   23.2585 C.ar    1  UNL1        0.1534
      7 C          -4.8933  -16.5202   24.4764 C.ar    1  UNL1        0.0344
      8 C          -6.1877  -15.9376   24.9612 C.ar    1  UNL1        0.0648
      9 CL         -6.2066  -15.0621   26.1791 Cl      1  UNL1       -0.0817
     10 S          -3.5800  -17.9783   22.7736 S.O2    1  UNL1        0.0772
     11 O          -4.0953  -19.3583   23.0562 O.2     1  UNL1       -0.1498
     12 O          -3.0646  -16.5982   22.4911 O.2     1  UNL1       -0.1498
     13 N          -2.2856  -18.5610   22.2888 N.pl3   1  UNL1       -0.1936
     14 H          -1.7344  -19.1076   22.8943 H       1  UNL1        0.1758
     15 C          -1.8310  -18.3108   20.8814 C.ar    1  UNL1        0.1786
     16 N          -0.4193  -18.0563   20.4429 N.ar    1  UNL1       -0.2214
     17 C          -0.4241  -17.8594   18.9559 C.ar    1  UNL1        0.1079
     18 C          -1.8388  -17.9922   18.4753 C.ar    1  UNL1        0.0588
     19 S          -2.7084  -18.2711   19.6653 S.2     1  UNL1       -0.0497
     20 C         -10.0580  -16.2960   24.3405 C.3     1  UNL1        0.0678
     21 N          -9.2257  -17.9857   26.6754 N.3     1  UNL1       -0.3219
     22 C          -9.7380  -18.6355   25.4242 C.3     1  UNL1        0.0560
     23 C          -9.8341  -20.1300   25.3405 C.3     1  UNL1        0.0205
     24 C         -10.3464  -20.7797   24.0894 C.3     1  UNL1        0.0271
     25 C         -10.7626  -19.9349   22.9219 C.2     1  UNL1       -0.0303
     26 C         -10.6665  -18.4403   23.0056 C.2     1  UNL1       -0.0246
     27 C         -10.1541  -17.7906   24.2568 C.3     1  UNL1        0.0473
     28 H          -8.9911  -18.7044   27.3602 H       1  UNL1        0.1188
     29 H          -9.9448  -17.3724   27.0590 H       1  UNL1        0.1188
     30 C         -11.0826  -17.5954   21.8381 C.ar    1  UNL1       -0.0041
     31 C         -12.3620  -16.8144   21.8957 C.ar    1  UNL1        0.0020
     32 C         -12.7781  -15.9695   20.7282 C.ar    1  UNL1        0.0296
     33 C         -11.9149  -15.9056   19.5032 C.ar    1  UNL1        0.1401
     34 F         -12.3311  -15.0608   18.3357 F       1  UNL1       -0.2042
     35 C         -10.6355  -16.6866   19.4456 C.ar    1  UNL1        0.0296
     36 C         -10.2194  -17.5315   20.6131 C.ar    1  UNL1        0.0020
@<TRIPOS>BOND
     1    22    21    1
     2    22    23    1
     3    23    24    1
     4    24    25    1
     5    25    26    2
     6    26    30    1
     7    30    31   ar
     8    31    32   ar
     9    32    33   ar
    10    33    34    1
    11    33    35   ar
    12    35    36   ar
    13    26    27    1
    14    27    20    1
    15    20     1    1
    16     1     2    1
    17     2     3   ar
    18     3     4   ar
    19     4     5    1
    20     4     6   ar
    21     6    10    1
    22    10    11    2
    23    10    12    2
    24    10    13    1
    25    13    15    1
    26    15    16   ar
    27    16    17   ar
    28    17    18   ar
    29    18    19   ar
    30     6     7   ar
    31     7     8   ar
    32     8     9    1
    33    27    22    1
    34     8     2   ar
    35    36    30   ar
    36    19    15   ar
    37    21    28    1
    38    21    29    1
    39    13    14    1
@<TRIPOS>MOLECULE
*****
 36 39 0 0 0
SMALL
GASTEIGER

@<TRIPOS>ATOM
      1 S           5.3785    0.5371   19.2282 S.3     1  UNL1       -0.1124
      2 C           3.9850    1.0706   19.3818 C.ar    1  UNL1        0.0381
      3 C           3.6808    2.0766   20.4521 C.ar    1  UNL1        0.0380
      4 C           2.2872    2.6100   20.6056 C.ar    1  UNL1        0.1594
      5 F           1.9829    3.6160   21.6759 F       1  UNL1       -0.2027
      6 C           1.1980    2.1376   19.6889 C.ar    1  UNL1        0.1534
      7 C           1.5023    1.1316   18.6186 C.ar    1  UNL1        0.0344
      8 C           2.8958    0.5982   18.4650 C.ar    1  UNL1        0.0648
      9 CL          3.2000   -0.4078   17.3948 Cl      1  UNL1       -0.0817
     10 S          -0.1954    2.6710   19.8425 S.O2    1  UNL1        0.0772
     11 O          -0.6037    1.4050   20.5356 O.2     1  UNL1       -0.1498
     12 O           0.2129    3.9370   19.1494 O.2     1  UNL1       -0.1498
     13 N          -1.5890    3.2045   19.9961 N.pl3   1  UNL1       -0.1936
     14 H          -2.1479    3.3578   19.2003 H       1  UNL1        0.1758
     15 C          -2.1309    3.5044   21.3623 C.ar    1  UNL1        0.1786
     16 N          -3.5184    3.2031   21.8461 N.ar    1  UNL1       -0.2214
     17 C          -3.6255    3.6707   23.2673 C.ar    1  UNL1        0.1079
     18 C          -2.3042    4.2610   23.6619 C.ar    1  UNL1        0.0588
     19 S          -1.3804    4.1582   22.4845 S.2     1  UNL1       -0.0497
     20 C           5.8263   -0.6376   20.0464 C.3     1  UNL1        0.0678
     21 N           6.6368   -2.1025   17.5570 N.3     1  UNL1       -0.3219
     22 C           5.6768   -2.7350   18.5205 C.3     1  UNL1        0.0560
     23 C           5.1220   -4.1000   18.2393 C.3     1  UNL1        0.0205
     24 C           4.1620   -4.7325   19.2028 C.3     1  UNL1        0.0271
     25 C           3.7567   -4.0001   20.4474 C.2     1  UNL1       -0.0303
     26 C           4.3115   -2.6351   20.7286 C.2     1  UNL1       -0.0246
     27 C           5.2715   -2.0026   19.7652 C.3     1  UNL1        0.0473
     28 H           6.7991   -2.7355   16.7738 H       1  UNL1        0.1188
     29 H           7.5202   -1.9148   18.0311 H       1  UNL1        0.1188
     30 C           3.9062   -1.9026   21.9734 C.ar    1  UNL1       -0.0041
     31 C           2.7811   -0.9117   21.9277 C.ar    1  UNL1        0.0020
     32 C           2.3758   -0.1792   23.1725 C.ar    1  UNL1        0.0296
     33 C           3.0958   -0.4377   24.4628 C.ar    1  UNL1        0.1401
     34 F           2.6906    0.2948   25.7075 F       1  UNL1       -0.2042
     35 C           4.2210   -1.4287   24.5084 C.ar    1  UNL1        0.0296
     36 C           4.6262   -2.1611   23.2637 C.ar    1  UNL1        0.0020
@<TRIPOS>BOND
     1    22    21    1
     2    22    23    1
     3    23    24    1
     4    24    25    1
     5    25    26    2
     6    26    30    1
     7    30    31   ar
     8    31    32   ar
     9    32    33   ar
    10    33    34    1
    11    33    35   ar
    12    35    36   ar
    13    26    27    1
    14    27    20    1
    15    20     1    1
    16     1     2    1
    17     2     3   ar
    18     3     4   ar
    19     4     5    1
    20     4     6   ar
    21     6    10    1
    22    10    11    2
    23    10    12    2
    24    10    13    1
    25    13    15    1
    26    15    16   ar
    27    16    17   ar
    28    17    18   ar
    29    18    19   ar
    30     6     7   ar
    31     7     8   ar
    32     8     9    1
    33    27    22    1
    34     8     2   ar
    35    36    30   ar
    36    19    15   ar
    37    21    28    1
    38    21    29    1
    39    13    14    1
@<TRIPOS>MOLECULE
*****
 36 39 0 0 0
SMALL
GASTEIGER

@<TRIPOS>ATOM
      1 S           5.4376    0.5717   19.3298 S.3     1  UNL1       -0.1124
      2 C           4.0705    1.1501   19.5449 C.ar    1  UNL1        0.0381
      3 C           3.8358    2.1254   20.6602 C.ar    1  UNL1        0.0380
      4 C           2.4685    2.7039   20.8753 C.ar    1  UNL1        0.1594
      5 F           2.2338    3.6791   21.9906 F       1  UNL1       -0.2027
      6 C           1.3362    2.3070   19.9753 C.ar    1  UNL1        0.1534
      7 C           1.5709    1.3318   18.8600 C.ar    1  UNL1        0.0344
      8 C           2.9380    0.7533   18.6449 C.ar    1  UNL1        0.0648
      9 CL          3.1727   -0.2219   17.5296 Cl      1  UNL1       -0.0817
     10 S          -0.0310    2.8855   20.1905 S.O2    1  UNL1        0.0772
     11 O          -0.5252    1.5462   20.6509 O.2     1  UNL1       -0.1498
     12 O           0.4632    4.2247   19.7300 O.2     1  UNL1       -0.1498
     13 N          -1.3982    3.4639   20.4057 N.pl3   1  UNL1       -0.1936
     14 H          -1.7125    3.6579   21.3182 H       1  UNL1        0.1758
     15 C          -2.2864    3.7467   19.2304 C.ar    1  UNL1        0.1786
     16 N          -1.8809    3.6987   17.7871 N.ar    1  UNL1       -0.2214
     17 C          -3.0799    4.0495   16.9568 C.ar    1  UNL1        0.1079
     18 C          -4.2264    4.3144   17.8870 C.ar    1  UNL1        0.0588
     19 S          -3.7361    4.1272   19.2923 S.2     1  UNL1       -0.0497
     20 C           5.8747   -0.6311   20.1122 C.3     1  UNL1        0.0678
     21 N           6.6484   -2.0362   17.5770 N.3     1  UNL1       -0.3219
     22 C           5.6868   -2.6829   18.5295 C.3     1  UNL1        0.0560
     23 C           5.1120   -4.0320   18.2144 C.3     1  UNL1        0.0205
     24 C           4.1504   -4.6787   19.1668 C.3     1  UNL1        0.0271
     25 C           3.7636   -3.9761   20.4344 C.2     1  UNL1       -0.0303
     26 C           4.3384   -2.6270   20.7495 C.2     1  UNL1       -0.0246
     27 C           5.3000   -1.9803   19.7970 C.3     1  UNL1        0.0473
     28 H           6.7967   -2.6491   16.7753 H       1  UNL1        0.1188
     29 H           7.5374   -1.8734   18.0497 H       1  UNL1        0.1188
     30 C           3.9516   -1.9244   22.0171 C.ar    1  UNL1       -0.0041
     31 C           2.8275   -0.9312   22.0112 C.ar    1  UNL1        0.0020
     32 C           2.4407   -0.2286   23.2788 C.ar    1  UNL1        0.0296
     33 C           3.1780   -0.5192   24.5524 C.ar    1  UNL1        0.1401
     34 F           2.7913    0.1833   25.8199 F       1  UNL1       -0.2042
     35 C           4.3021   -1.5124   24.5583 C.ar    1  UNL1        0.0296
     36 C           4.6889   -2.2150   23.2907 C.ar    1  UNL1        0.0020
@<TRIPOS>BOND
     1    22    21    1
     2    22    23    1
     3    23    24    1
     4    24    25    1
     5    25    26    2
     6    26    30    1
     7    30    31   ar
     8    31    32   ar
     9    32    33   ar
    10    33    34    1
    11    33    35   ar
    12    35    36   ar
    13    26    27    1
    14    27    20    1
    15    20     1    1
    16     1     2    1
    17     2     3   ar
    18     3     4   ar
    19     4     5    1
    20     4     6   ar
    21     6    10    1
    22    10    11    2
    23    10    12    2
    24    10    13    1
    25    13    15    1
    26    15    16   ar
    27    16    17   ar
    28    17    18   ar
    29    18    19   ar
    30     6     7   ar
    31     7     8   ar
    32     8     9    1
    33    27    22    1
    34     8     2   ar
    35    36    30   ar
    36    19    15   ar
    37    21    28    1
    38    21    29    1
    39    13    14    1
@<TRIPOS>MOLECULE
*****
 36 39 0 0 0
SMALL
GASTEIGER

@<TRIPOS>ATOM
      1 S           5.7270    0.9036   20.7716 S.3     1  UNL1       -0.1124
      2 C           4.6855    1.1722   21.8171 C.ar    1  UNL1        0.0381
      3 C           4.5440    0.2476   22.9897 C.ar    1  UNL1        0.0380
      4 C           3.5025    0.5162   24.0353 C.ar    1  UNL1        0.1594
      5 F           3.3610   -0.4084   25.2079 F       1  UNL1       -0.2027
      6 C           2.6025    1.7094   23.9082 C.ar    1  UNL1        0.1534
      7 C           2.7440    2.6341   22.7356 C.ar    1  UNL1        0.0344
      8 C           3.7854    2.3655   21.6900 C.ar    1  UNL1        0.0648
      9 CL          3.9269    3.2901   20.5174 Cl      1  UNL1       -0.0817
     10 S           1.5610    1.9780   24.9537 S.O2    1  UNL1        0.0772
     11 O           0.6685    0.9467   24.3295 O.2     1  UNL1       -0.1498
     12 O           2.4536    3.0094   25.5779 O.2     1  UNL1       -0.1498
     13 N           0.5195    2.2466   25.9993 N.pl3   1  UNL1       -0.1936
     14 H          -0.0834    3.0193   25.9064 H       1  UNL1        0.1758
     15 C           0.3966    1.3379   27.1863 C.ar    1  UNL1        0.1786
     16 N           1.5102    0.5549   27.8163 N.ar    1  UNL1       -0.2214
     17 C           0.9404   -0.2144   28.9711 C.ar    1  UNL1        0.1079
     18 C          -0.5253    0.0932   29.0549 C.ar    1  UNL1        0.0588
     19 S          -0.8615    1.0525   27.9518 S.2     1  UNL1       -0.0497
     20 C           5.3311    0.3018   19.4558 C.3     1  UNL1        0.0678
     21 N           7.5373   -1.7174   19.2207 N.3     1  UNL1       -0.3219
     22 C           6.1072   -2.1691   19.2499 C.3     1  UNL1        0.0560
     23 C           5.7802   -3.6303   19.1616 C.3     1  UNL1        0.0205
     24 C           4.3501   -4.0819   19.1908 C.3     1  UNL1        0.0271
     25 C           3.2470   -3.0723   19.3084 C.2     1  UNL1       -0.0303
     26 C           3.5740   -1.6111   19.3967 C.2     1  UNL1       -0.0246
     27 C           5.0041   -1.1595   19.3675 C.3     1  UNL1        0.0473
     28 H           8.1487   -2.5297   19.1379 H       1  UNL1        0.1188
     29 H           7.7531   -1.2159   20.0823 H       1  UNL1        0.1188
     30 C           2.4709   -0.6014   19.5143 C.ar    1  UNL1       -0.0041
     31 C           1.6281   -0.5523   20.7541 C.ar    1  UNL1        0.0020
     32 C           0.5250    0.4574   20.8717 C.ar    1  UNL1        0.0296
     33 C           0.2647    1.4179   19.7493 C.ar    1  UNL1        0.1401
     34 F          -0.8383    2.4276   19.8668 F       1  UNL1       -0.2042
     35 C           1.1076    1.3688   18.5094 C.ar    1  UNL1        0.0296
     36 C           2.2106    0.3591   18.3919 C.ar    1  UNL1        0.0020
@<TRIPOS>BOND
     1    22    21    1
     2    22    23    1
     3    23    24    1
     4    24    25    1
     5    25    26    2
     6    26    30    1
     7    30    31   ar
     8    31    32   ar
     9    32    33   ar
    10    33    34    1
    11    33    35   ar
    12    35    36   ar
    13    26    27    1
    14    27    20    1
    15    20     1    1
    16     1     2    1
    17     2     3   ar
    18     3     4   ar
    19     4     5    1
    20     4     6   ar
    21     6    10    1
    22    10    11    2
    23    10    12    2
    24    10    13    1
    25    13    15    1
    26    15    16   ar
    27    16    17   ar
    28    17    18   ar
    29    18    19   ar
    30     6     7   ar
    31     7     8   ar
    32     8     9    1
    33    27    22    1
    34     8     2   ar
    35    36    30   ar
    36    19    15   ar
    37    21    28    1
    38    21    29    1
    39    13    14    1
@<TRIPOS>MOLECULE
*****
 36 39 0 0 0
SMALL
GASTEIGER

@<TRIPOS>ATOM
      1 S          -9.3658  -16.4943   24.3235 S.3     1  UNL1       -0.1124
      2 C          -8.1498  -17.1009   23.6883 C.ar    1  UNL1        0.0381
      3 C          -8.2501  -18.4239   22.9886 C.ar    1  UNL1        0.0380
      4 C          -7.0341  -19.0304   22.3534 C.ar    1  UNL1        0.1594
      5 F          -7.1344  -20.3535   21.6537 F       1  UNL1       -0.2027
      6 C          -5.7179  -18.3140   22.4179 C.ar    1  UNL1        0.1534
      7 C          -5.6176  -16.9910   23.1176 C.ar    1  UNL1        0.0344
      8 C          -6.8335  -16.3844   23.7528 C.ar    1  UNL1        0.0648
      9 CL         -6.7332  -15.0614   24.4525 Cl      1  UNL1       -0.0817
     10 S          -4.5019  -18.9205   21.7827 S.O2    1  UNL1        0.0772
     11 O          -3.9760  -19.2866   23.1390 O.2     1  UNL1       -0.1498
     12 O          -5.0278  -18.5545   20.4265 O.2     1  UNL1       -0.1498
     13 N          -3.2859  -19.5272   21.1475 N.pl3   1  UNL1       -0.1936
     14 H          -3.2409  -20.4994   20.9996 H       1  UNL1        0.1758
     15 C          -2.1384  -18.6523   20.7378 C.ar    1  UNL1        0.1786
     16 N          -0.9367  -19.0852   19.9512 N.ar    1  UNL1       -0.2214
     17 C          -0.0467  -17.8914   19.7699 C.ar    1  UNL1        0.1079
     18 C          -0.6983  -16.7208   20.4444 C.ar    1  UNL1        0.0588
     19 S          -1.9911  -17.1910   21.0426 S.2     1  UNL1       -0.0497
     20 C         -10.3464  -15.7282   23.4859 C.3     1  UNL1        0.0678
     21 N          -8.8725  -14.7530   21.0617 N.3     1  UNL1       -0.3219
     22 C          -9.9879  -15.7447   20.9127 C.3     1  UNL1        0.0560
     23 C         -10.3664  -16.2489   19.5517 C.3     1  UNL1        0.0205
     24 C         -11.4819  -17.2406   19.4027 C.3     1  UNL1        0.0271
     25 C         -12.2188  -17.7282   20.6147 C.2     1  UNL1       -0.0303
     26 C         -11.8403  -17.2241   21.9758 C.2     1  UNL1       -0.0246
     27 C         -10.7249  -16.2323   22.1248 C.3     1  UNL1        0.0473
     28 H          -8.4870  -14.5343   20.1431 H       1  UNL1        0.1188
     29 H          -8.1411  -15.1499   21.6516 H       1  UNL1        0.1188
     30 C         -12.5772  -17.7117   23.1879 C.ar    1  UNL1       -0.0041
     31 C         -11.8352  -18.4199   24.2823 C.ar    1  UNL1        0.0020
     32 C         -12.5721  -18.9075   25.4944 C.ar    1  UNL1        0.0296
     33 C         -14.0512  -18.6869   25.6121 C.ar    1  UNL1        0.1401
     34 F         -14.7881  -19.1745   26.8242 F       1  UNL1       -0.2042
     35 C         -14.7932  -17.9786   24.5176 C.ar    1  UNL1        0.0296
     36 C         -14.0563  -17.4911   23.3056 C.ar    1  UNL1        0.0020
@<TRIPOS>BOND
     1    22    21    1
     2    22    23    1
     3    23    24    1
     4    24    25    1
     5    25    26    2
     6    26    30    1
     7    30    31   ar
     8    31    32   ar
     9    32    33   ar
    10    33    34    1
    11    33    35   ar
    12    35    36   ar
    13    26    27    1
    14    27    20    1
    15    20     1    1
    16     1     2    1
    17     2     3   ar
    18     3     4   ar
    19     4     5    1
    20     4     6   ar
    21     6    10    1
    22    10    11    2
    23    10    12    2
    24    10    13    1
    25    13    15    1
    26    15    16   ar
    27    16    17   ar
    28    17    18   ar
    29    18    19   ar
    30     6     7   ar
    31     7     8   ar
    32     8     9    1
    33    27    22    1
    34     8     2   ar
    35    36    30   ar
    36    19    15   ar
    37    21    28    1
    38    21    29    1
    39    13    14    1
@<TRIPOS>MOLECULE
*****
 36 39 0 0 0
SMALL
GASTEIGER

@<TRIPOS>ATOM
      1 S           5.7964   -0.0575   21.4050 S.3     1  UNL1       -0.1124
      2 C           4.6102    0.2544   22.2684 C.ar    1  UNL1        0.0381
      3 C           4.0015    1.6250   22.2401 C.ar    1  UNL1        0.0380
      4 C           2.8153    1.9369   23.1036 C.ar    1  UNL1        0.1594
      5 F           2.2066    3.3076   23.0752 F       1  UNL1       -0.2027
      6 C           2.2377    0.8781   23.9955 C.ar    1  UNL1        0.1534
      7 C           2.8464   -0.4925   24.0238 C.ar    1  UNL1        0.0344
      8 C           4.0326   -0.8044   23.1603 C.ar    1  UNL1        0.0648
      9 CL          4.6413   -2.1751   23.1887 Cl      1  UNL1       -0.0817
     10 S           1.0516    1.1900   24.8589 S.O2    1  UNL1        0.0772
     11 O           0.1691    1.1920   23.6460 O.2     1  UNL1       -0.1498
     12 O           1.9340    1.1880   26.0719 O.2     1  UNL1       -0.1498
     13 N          -0.1347    1.5019   25.7224 N.pl3   1  UNL1       -0.1936
     14 H          -0.6228    0.7735   26.1701 H       1  UNL1        0.1758
     15 C          -0.5773    2.9236   25.9037 C.ar    1  UNL1        0.1786
     16 N           0.1764    4.1444   25.4657 N.ar    1  UNL1       -0.2214
     17 C          -0.6318    5.3494   25.8461 C.ar    1  UNL1        0.1079
     18 C          -1.8850    4.8735   26.5192 C.ar    1  UNL1        0.0588
     19 S          -1.8514    3.3743   26.5548 S.2     1  UNL1       -0.0497
     20 C           5.5950   -0.5128   19.9900 C.3     1  UNL1        0.0678
     21 N           7.5246   -2.8099   20.0139 N.3     1  UNL1       -0.3219
     22 C           6.0730   -3.0527   19.7239 C.3     1  UNL1        0.0560
     23 C           5.5863   -4.4439   19.4458 C.3     1  UNL1        0.0205
     24 C           4.1347   -4.6867   19.1558 C.3     1  UNL1        0.0271
     25 C           3.1700   -3.5382   19.1438 C.2     1  UNL1       -0.0303
     26 C           3.6568   -2.1470   19.4218 C.2     1  UNL1       -0.0246
     27 C           5.1083   -1.9042   19.7119 C.3     1  UNL1        0.0473
     28 H           8.0305   -3.6950   19.9812 H       1  UNL1        0.1188
     29 H           7.6215   -2.3970   20.9416 H       1  UNL1        0.1188
     30 C           2.6920   -0.9984   19.4099 C.ar    1  UNL1       -0.0041
     31 C           1.6106   -0.9164   20.4461 C.ar    1  UNL1        0.0020
     32 C           0.6459    0.2322   20.4341 C.ar    1  UNL1        0.0296
     33 C           0.7625    1.2987   19.3859 C.ar    1  UNL1        0.1401
     34 F          -0.2022    2.4472   19.3739 F       1  UNL1       -0.2042
     35 C           1.8440    1.2167   18.3496 C.ar    1  UNL1        0.0296
     36 C           2.8087    0.0682   18.3616 C.ar    1  UNL1        0.0020
@<TRIPOS>BOND
     1    22    21    1
     2    22    23    1
     3    23    24    1
     4    24    25    1
     5    25    26    2
     6    26    30    1
     7    30    31   ar
     8    31    32   ar
     9    32    33   ar
    10    33    34    1
    11    33    35   ar
    12    35    36   ar
    13    26    27    1
    14    27    20    1
    15    20     1    1
    16     1     2    1
    17     2     3   ar
    18     3     4   ar
    19     4     5    1
    20     4     6   ar
    21     6    10    1
    22    10    11    2
    23    10    12    2
    24    10    13    1
    25    13    15    1
    26    15    16   ar
    27    16    17   ar
    28    17    18   ar
    29    18    19   ar
    30     6     7   ar
    31     7     8   ar
    32     8     9    1
    33    27    22    1
    34     8     2   ar
    35    36    30   ar
    36    19    15   ar
    37    21    28    1
    38    21    29    1
    39    13    14    1
@<TRIPOS>MOLECULE
*****
 36 39 0 0 0
SMALL
GASTEIGER

@<TRIPOS>ATOM
      1 S           4.2354   -0.8702   23.2097 S.3     1  UNL1       -0.1124
      2 C           3.7255   -0.5113   24.5740 C.ar    1  UNL1        0.0381
      3 C           4.2571   -1.2209   25.7839 C.ar    1  UNL1        0.0380
      4 C           3.7472   -0.8620   27.1482 C.ar    1  UNL1        0.1594
      5 F           4.2788   -1.5715   28.3582 F       1  UNL1       -0.2027
      6 C           2.7058    0.2064   27.3025 C.ar    1  UNL1        0.1534
      7 C           2.1742    0.9160   26.0926 C.ar    1  UNL1        0.0344
      8 C           2.6840    0.5571   24.7283 C.ar    1  UNL1        0.0648
      9 CL          2.1525    1.2667   23.5184 Cl      1  UNL1       -0.0817
     10 S           2.1959    0.5653   28.6668 S.O2    1  UNL1        0.0772
     11 O           1.1826   -0.5370   28.5780 O.2     1  UNL1       -0.1498
     12 O           3.2092    1.6676   28.7555 O.2     1  UNL1       -0.1498
     13 N           1.6860    0.9241   30.0311 N.pl3   1  UNL1       -0.1936
     14 H           0.8178    1.3782   30.1284 H       1  UNL1        0.1758
     15 C           2.4988    0.5912   31.2470 C.ar    1  UNL1        0.1786
     16 N           2.6337    1.4395   32.4768 N.ar    1  UNL1       -0.2214
     17 C           3.5377    0.7241   33.4365 C.ar    1  UNL1        0.1079
     18 C           3.9615   -0.5663   32.7999 C.ar    1  UNL1        0.0588
     19 S           3.3194   -0.6485   31.4467 S.2     1  UNL1       -0.0497
     20 C           3.5326   -1.9177   22.3980 C.3     1  UNL1        0.0678
     21 N           5.4946   -4.1786   22.2005 N.3     1  UNL1       -0.3219
     22 C           5.0600   -3.4524   20.9621 C.3     1  UNL1        0.0560
     23 C           5.6063   -3.8567   19.6249 C.3     1  UNL1        0.0205
     24 C           5.1717   -3.1305   18.3865 C.3     1  UNL1        0.0271
     25 C           4.1908   -2.0001   18.4852 C.2     1  UNL1       -0.0303
     26 C           3.6444   -1.5958   19.8223 C.2     1  UNL1       -0.0246
     27 C           4.0790   -2.3220   21.0608 C.3     1  UNL1        0.0473
     28 H           6.1584   -4.9113   21.9497 H       1  UNL1        0.1188
     29 H           4.6814   -4.5968   22.6525 H       1  UNL1        0.1188
     30 C           2.6634   -0.4653   19.9211 C.ar    1  UNL1       -0.0041
     31 C           1.2145   -0.7504   20.1842 C.ar    1  UNL1        0.0020
     32 C           0.2335    0.3801   20.2830 C.ar    1  UNL1        0.0296
     33 C           0.7015    1.7957   20.1186 C.ar    1  UNL1        0.1401
     34 F          -0.2794    2.9261   20.2174 F       1  UNL1       -0.2042
     35 C           2.1505    2.0808   19.8555 C.ar    1  UNL1        0.0296
     36 C           3.1314    0.9503   19.7568 C.ar    1  UNL1        0.0020
@<TRIPOS>BOND
     1    22    21    1
     2    22    23    1
     3    23    24    1
     4    24    25    1
     5    25    26    2
     6    26    30    1
     7    30    31   ar
     8    31    32   ar
     9    32    33   ar
    10    33    34    1
    11    33    35   ar
    12    35    36   ar
    13    26    27    1
    14    27    20    1
    15    20     1    1
    16     1     2    1
    17     2     3   ar
    18     3     4   ar
    19     4     5    1
    20     4     6   ar
    21     6    10    1
    22    10    11    2
    23    10    12    2
    24    10    13    1
    25    13    15    1
    26    15    16   ar
    27    16    17   ar
    28    17    18   ar
    29    18    19   ar
    30     6     7   ar
    31     7     8   ar
    32     8     9    1
    33    27    22    1
    34     8     2   ar
    35    36    30   ar
    36    19    15   ar
    37    21    28    1
    38    21    29    1
    39    13    14    1
@<TRIPOS>MOLECULE
*****
 36 39 0 0 0
SMALL
GASTEIGER

@<TRIPOS>ATOM
      1 S           0.8828    0.1574   20.0518 S.3     1  UNL1       -0.1124
      2 C           1.9949   -0.5517   20.7661 C.ar    1  UNL1        0.0381
      3 C           2.6824   -1.7153   20.1155 C.ar    1  UNL1        0.0380
      4 C           3.7946   -2.4245   20.8299 C.ar    1  UNL1        0.1594
      5 F           4.4821   -3.5880   20.1793 F       1  UNL1       -0.2027
      6 C           4.2191   -1.9700   22.1949 C.ar    1  UNL1        0.1534
      7 C           3.5315   -0.8064   22.8456 C.ar    1  UNL1        0.0344
      8 C           2.4194   -0.0973   22.1312 C.ar    1  UNL1        0.0648
      9 CL          1.7318    1.0663   22.7818 Cl      1  UNL1       -0.0817
     10 S           5.3311   -2.6792   22.9093 S.O2    1  UNL1        0.0772
     11 O           4.4982   -3.9252   22.9691 O.2     1  UNL1       -0.1498
     12 O           6.1641   -1.4332   22.8495 O.2     1  UNL1       -0.1498
     13 N           6.4432   -3.3884   23.6237 N.pl3   1  UNL1       -0.1936
     14 H           6.5758   -3.2491   24.5892 H       1  UNL1        0.1758
     15 C           7.3533   -4.3099   22.8670 C.ar    1  UNL1        0.1786
     16 N           7.8841   -5.6241   23.3580 N.ar    1  UNL1       -0.2214
     17 C           8.7512   -6.2055   22.2808 C.ar    1  UNL1        0.1079
     18 C           8.7562   -5.2505   21.1241 C.ar    1  UNL1        0.0588
     19 S           7.8923   -4.0790   21.4863 S.2     1  UNL1       -0.0497
     20 C           1.1165    0.7363   18.6878 C.3     1  UNL1        0.0678
     21 N          -0.7189    3.1078   18.7757 N.3     1  UNL1       -0.3219
     22 C           0.7562    3.3074   18.5904 C.3     1  UNL1        0.0560
     23 C           1.3136    4.6928   18.4491 C.3     1  UNL1        0.0205
     24 C           2.7887    4.8924   18.2638 C.3     1  UNL1        0.0271
     25 C           3.7063    3.7067   18.2199 C.2     1  UNL1       -0.0303
     26 C           3.1489    2.3214   18.3612 C.2     1  UNL1       -0.0246
     27 C           1.6739    2.1217   18.5465 C.3     1  UNL1        0.0473
     28 H          -1.1866    4.0142   18.7816 H       1  UNL1        0.1188
     29 H          -0.8889    2.6316   19.6615 H       1  UNL1        0.1188
     30 C           4.0666    1.1356   18.3173 C.ar    1  UNL1       -0.0041
     31 C           3.9129    0.1079   17.2356 C.ar    1  UNL1        0.0020
     32 C           4.8305   -1.0779   17.1917 C.ar    1  UNL1        0.0296
     33 C           5.9019   -1.2359   18.2295 C.ar    1  UNL1        0.1401
     34 F           6.8195   -2.4216   18.1857 F       1  UNL1       -0.2042
     35 C           6.0556   -0.2082   19.3113 C.ar    1  UNL1        0.0296
     36 C           5.1379    0.9775   19.3552 C.ar    1  UNL1        0.0020
@<TRIPOS>BOND
     1    22    21    1
     2    22    23    1
     3    23    24    1
     4    24    25    1
     5    25    26    2
     6    26    30    1
     7    30    31   ar
     8    31    32   ar
     9    32    33   ar
    10    33    34    1
    11    33    35   ar
    12    35    36   ar
    13    26    27    1
    14    27    20    1
    15    20     1    1
    16     1     2    1
    17     2     3   ar
    18     3     4   ar
    19     4     5    1
    20     4     6   ar
    21     6    10    1
    22    10    11    2
    23    10    12    2
    24    10    13    1
    25    13    15    1
    26    15    16   ar
    27    16    17   ar
    28    17    18   ar
    29    18    19   ar
    30     6     7   ar
    31     7     8   ar
    32     8     9    1
    33    27    22    1
    34     8     2   ar
    35    36    30   ar
    36    19    15   ar
    37    21    28    1
    38    21    29    1
    39    13    14    1
