@<TRIPOS>MOLECULE
*****
 18 19 0 0 0
SMALL
GASTEIGER

@<TRIPOS>ATOM
      1 C         -10.4169  -18.4222   24.4946 C.3     1  UNL1        0.0244
      2 C          -9.5250  -17.4070   25.1458 C.ar    1  UNL1       -0.0224
      3 C          -9.1884  -17.5290   26.6024 C.ar    1  UNL1       -0.0043
      4 C          -8.2965  -16.5138   27.2536 C.ar    1  UNL1       -0.0003
      5 C          -7.7413  -15.3768   26.4481 C.ar    1  UNL1       -0.0000
      6 C          -8.0779  -15.2548   24.9915 C.ar    1  UNL1       -0.0003
      7 C          -8.9697  -16.2700   24.3404 C.ar    1  UNL1       -0.0043
      8 C          -9.1126  -20.5378   23.7375 C.3     1  UNL1        0.0003
      9 C         -10.1185  -19.8851   24.6388 C.3     1  UNL1        0.0044
     10 C         -11.6072  -17.9744   23.6992 C.3     1  UNL1        0.0326
     11 C         -11.4371  -17.5444   22.2723 C.3     1  UNL1        0.1516
     12 C         -10.3392  -17.9767   21.3461 C.3     1  UNL1        0.2326
     13 O         -10.5586  -17.3061   20.0224 O.2     1  UNL1       -0.4481
     14 C         -11.7920  -16.4593   20.1305 C.2     1  UNL1        0.2767
     15 N         -12.3794  -15.6137   19.0397 N.pl3   1  UNL1       -0.3133
     16 N         -12.3349  -16.6066   21.5211 N.2     1  UNL1       -0.2228
     17 H         -11.9481  -15.5820   18.1552 H       1  UNL1        0.1466
     18 H         -13.1962  -15.0905   19.2081 H       1  UNL1        0.1466
@<TRIPOS>BOND
     1     8     9    1
     2     1     9    1
     3     1    10    1
     4    11    10    1
     5    11    12    1
     6    12    13    1
     7    13    14    1
     8    14    15    1
     9    14    16    2
    10     1     2    1
    11     2     3   ar
    12     3     4   ar
    13     4     5   ar
    14     5     6   ar
    15     6     7   ar
    16    16    11    1
    17     7     2   ar
    18    15    17    1
    19    15    18    1
@<TRIPOS>MOLECULE
*****
 18 19 0 0 0
SMALL
GASTEIGER

@<TRIPOS>ATOM
      1 C          -8.7225  -16.6940   23.5754 C.3     1  UNL1        0.0244
      2 C          -7.9089  -16.1918   24.7312 C.ar    1  UNL1       -0.0224
      3 C          -8.5036  -16.1561   26.1077 C.ar    1  UNL1       -0.0043
      4 C          -7.6900  -15.6539   27.2634 C.ar    1  UNL1       -0.0003
      5 C          -6.2816  -15.1874   27.0426 C.ar    1  UNL1       -0.0000
      6 C          -5.6868  -15.2231   25.6660 C.ar    1  UNL1       -0.0003
      7 C          -6.5005  -15.7253   24.5103 C.ar    1  UNL1       -0.0043
      8 C          -7.5529  -18.5283   22.1550 C.3     1  UNL1        0.0003
      9 C          -8.0424  -17.1186   22.3077 C.3     1  UNL1        0.0044
     10 C         -10.2163  -16.7716   23.6874 C.3     1  UNL1        0.0326
     11 C         -11.0580  -16.8545   22.4486 C.3     1  UNL1        0.1516
     12 C         -11.9985  -17.9681   22.0945 C.3     1  UNL1        0.2326
     13 O         -12.6288  -17.6402   20.7734 O.2     1  UNL1       -0.4481
     14 C         -12.0777  -16.3239   20.3110 C.2     1  UNL1        0.2767
     15 N         -12.4348  -15.6173   19.0369 N.pl3   1  UNL1       -0.3133
     16 N         -11.1070  -15.8384   21.3463 N.2     1  UNL1       -0.2228
     17 H         -13.0865  -16.0184   18.4176 H       1  UNL1        0.1466
     18 H         -12.0174  -14.7524   18.8201 H       1  UNL1        0.1466
@<TRIPOS>BOND
     1     8     9    1
     2     1     9    1
     3     1    10    1
     4    11    10    1
     5    11    12    1
     6    12    13    1
     7    13    14    1
     8    14    15    1
     9    14    16    2
    10     1     2    1
    11     2     3   ar
    12     3     4   ar
    13     4     5   ar
    14     5     6   ar
    15     6     7   ar
    16    16    11    1
    17     7     2   ar
    18    15    17    1
    19    15    18    1
@<TRIPOS>MOLECULE
*****
 18 19 0 0 0
SMALL
GASTEIGER

@<TRIPOS>ATOM
      1 C         -10.4000  -18.5800   24.1931 C.3     1  UNL1        0.0244
      2 C          -9.6152  -17.5309   24.9236 C.ar    1  UNL1       -0.0224
      3 C          -9.1759  -16.2884   24.2073 C.ar    1  UNL1       -0.0043
      4 C          -8.3911  -15.2393   24.9377 C.ar    1  UNL1       -0.0003
      5 C          -8.0456  -15.4328   26.3845 C.ar    1  UNL1       -0.0000
      6 C          -8.4849  -16.6753   27.1008 C.ar    1  UNL1       -0.0003
      7 C          -9.2696  -17.7244   26.3704 C.ar    1  UNL1       -0.0043
      8 C         -12.6369  -17.8097   23.1194 C.3     1  UNL1        0.0003
      9 C         -11.8993  -18.5381   24.2037 C.3     1  UNL1        0.0044
     10 C          -9.6854  -19.6710   23.4522 C.3     1  UNL1        0.0326
     11 C          -9.0177  -19.3750   22.1420 C.3     1  UNL1        0.1516
     12 C          -9.6994  -19.2619   20.8107 C.3     1  UNL1        0.2326
     13 O          -8.6540  -18.9572   19.7790 O.2     1  UNL1       -0.4481
     14 C          -7.3262  -18.8820   20.4728 C.2     1  UNL1        0.2767
     15 N          -6.0055  -18.5983   19.8207 N.pl3   1  UNL1       -0.3133
     16 N          -7.5510  -19.1402   21.9332 N.2     1  UNL1       -0.2228
     17 H          -5.9596  -18.4409   18.8499 H       1  UNL1        0.1466
     18 H          -5.1846  -18.5695   20.3634 H       1  UNL1        0.1466
@<TRIPOS>BOND
     1     8     9    1
     2     1     9    1
     3     1    10    1
     4    11    10    1
     5    11    12    1
     6    12    13    1
     7    13    14    1
     8    14    15    1
     9    14    16    2
    10     1     2    1
    11     2     3   ar
    12     3     4   ar
    13     4     5   ar
    14     5     6   ar
    15     6     7   ar
    16    16    11    1
    17     7     2   ar
    18    15    17    1
    19    15    18    1
@<TRIPOS>MOLECULE
*****
 18 19 0 0 0
SMALL
GASTEIGER

@<TRIPOS>ATOM
      1 C          -6.1675  -19.0339   21.6588 C.3     1  UNL1        0.0244
      2 C          -7.4540  -18.7557   22.3784 C.ar    1  UNL1       -0.0224
      3 C          -7.8334  -17.3449   22.7182 C.ar    1  UNL1       -0.0043
      4 C          -9.1197  -17.0668   23.4378 C.ar    1  UNL1       -0.0003
      5 C         -10.0268  -18.1996   23.8175 C.ar    1  UNL1       -0.0000
      6 C          -9.6474  -19.6104   23.4776 C.ar    1  UNL1       -0.0003
      7 C          -8.3610  -19.8885   22.7581 C.ar    1  UNL1       -0.0043
      8 C          -5.9425  -21.2146   20.2645 C.3     1  UNL1        0.0003
      9 C          -6.1862  -19.7361   20.3334 C.3     1  UNL1        0.0044
     10 C          -4.8625  -18.6099   22.2646 C.3     1  UNL1        0.0326
     11 C          -3.5948  -18.7244   21.4710 C.3     1  UNL1        0.1516
     12 C          -2.4932  -19.7147   21.7071 C.3     1  UNL1        0.2326
     13 O          -1.4237  -19.4711   20.6840 O.2     1  UNL1       -0.4481
     14 C          -1.8644  -18.3303   19.8154 C.2     1  UNL1        0.2767
     15 N          -1.0979  -17.7524   18.6628 N.pl3   1  UNL1       -0.3133
     16 N          -3.2062  -17.8688   20.3018 N.2     1  UNL1       -0.2228
     17 H          -0.2201  -18.1256   18.4188 H       1  UNL1        0.1466
     18 H          -1.4725  -16.9999   18.1503 H       1  UNL1        0.1466
@<TRIPOS>BOND
     1     8     9    1
     2     1     9    1
     3     1    10    1
     4    11    10    1
     5    11    12    1
     6    12    13    1
     7    13    14    1
     8    14    15    1
     9    14    16    2
    10     1     2    1
    11     2     3   ar
    12     3     4   ar
    13     4     5   ar
    14     5     6   ar
    15     6     7   ar
    16    16    11    1
    17     7     2   ar
    18    15    17    1
    19    15    18    1
@<TRIPOS>MOLECULE
*****
 18 19 0 0 0
SMALL
GASTEIGER

@<TRIPOS>ATOM
      1 C          -7.8684  -18.9498   22.3848 C.3     1  UNL1        0.0244
      2 C          -6.5168  -19.3117   21.8443 C.ar    1  UNL1       -0.0224
      3 C          -6.3968  -20.3102   20.7315 C.ar    1  UNL1       -0.0043
      4 C          -5.0452  -20.6720   20.1910 C.ar    1  UNL1       -0.0003
      5 C          -3.8135  -20.0353   20.7634 C.ar    1  UNL1       -0.0000
      6 C          -3.9335  -19.0368   21.8762 C.ar    1  UNL1       -0.0003
      7 C          -5.2851  -18.6750   22.4167 C.ar    1  UNL1       -0.0043
      8 C          -9.4171  -20.1800   24.0695 C.3     1  UNL1        0.0003
      9 C          -8.8704  -20.0260   22.6811 C.3     1  UNL1        0.0044
     10 C          -8.2181  -17.5117   22.6290 C.3     1  UNL1        0.0326
     11 C          -9.5427  -16.9743   22.1746 C.3     1  UNL1        0.1516
     12 C         -10.6418  -16.4713   23.0630 C.3     1  UNL1        0.2326
     13 O         -11.7793  -16.0317   22.1896 O.2     1  UNL1       -0.4481
     14 C         -11.3832  -16.2631   20.7614 C.2     1  UNL1        0.2767
     15 N         -12.2222  -15.9644   19.5543 N.pl3   1  UNL1       -0.3133
     16 N         -10.0010  -16.8457   20.7522 N.2     1  UNL1       -0.2228
     17 H         -13.1222  -15.5804   19.6631 H       1  UNL1        0.1466
     18 H         -11.8728  -16.1523   18.6533 H       1  UNL1        0.1466
@<TRIPOS>BOND
     1     8     9    1
     2     1     9    1
     3     1    10    1
     4    11    10    1
     5    11    12    1
     6    12    13    1
     7    13    14    1
     8    14    15    1
     9    14    16    2
    10     1     2    1
    11     2     3   ar
    12     3     4   ar
    13     4     5   ar
    14     5     6   ar
    15     6     7   ar
    16    16    11    1
    17     7     2   ar
    18    15    17    1
    19    15    18    1
@<TRIPOS>MOLECULE
*****
 18 19 0 0 0
SMALL
GASTEIGER

@<TRIPOS>ATOM
      1 C          -6.9491  -19.4010   20.9691 C.3     1  UNL1        0.0244
      2 C          -5.4500  -19.3479   20.9673 C.ar    1  UNL1       -0.0224
      3 C          -4.7068  -19.1848   19.6746 C.ar    1  UNL1       -0.0043
      4 C          -3.2078  -19.1317   19.6729 C.ar    1  UNL1       -0.0003
      5 C          -2.4519  -19.2416   20.9639 C.ar    1  UNL1       -0.0000
      6 C          -3.1951  -19.4046   22.2565 C.ar    1  UNL1       -0.0003
      7 C          -4.6941  -19.4578   22.2583 C.ar    1  UNL1       -0.0043
      8 C          -9.1974  -19.5047   19.6712 C.3     1  UNL1        0.0003
      9 C          -7.6973  -19.5071   19.6734 C.3     1  UNL1        0.0044
     10 C          -7.6999  -19.3481   22.2666 C.3     1  UNL1        0.0326
     11 C          -8.1251  -18.0262   22.8337 C.3     1  UNL1        0.1516
     12 C          -9.4947  -17.6838   23.3406 C.3     1  UNL1        0.2326
     13 O          -9.4715  -16.2606   23.8137 O.2     1  UNL1       -0.4481
     14 C          -8.0875  -15.7233   23.5990 C.2     1  UNL1        0.2767
     15 N          -7.6181  -14.3380   23.9317 N.pl3   1  UNL1       -0.3133
     16 N          -7.2555  -16.8146   22.9934 N.2     1  UNL1       -0.2228
     17 H          -8.2425  -13.6888   24.3290 H       1  UNL1        0.1466
     18 H          -6.6856  -14.0780   23.7527 H       1  UNL1        0.1466
@<TRIPOS>BOND
     1     8     9    1
     2     1     9    1
     3     1    10    1
     4    11    10    1
     5    11    12    1
     6    12    13    1
     7    13    14    1
     8    14    15    1
     9    14    16    2
    10     1     2    1
    11     2     3   ar
    12     3     4   ar
    13     4     5   ar
    14     5     6   ar
    15     6     7   ar
    16    16    11    1
    17     7     2   ar
    18    15    17    1
    19    15    18    1
@<TRIPOS>MOLECULE
*****
 18 19 0 0 0
SMALL
GASTEIGER

@<TRIPOS>ATOM
      1 C          -8.5703  -15.9371   24.6413 C.3     1  UNL1        0.0244
      2 C          -9.6836  -16.8593   24.2410 C.ar    1  UNL1       -0.0224
      3 C          -9.8071  -18.2090   24.8835 C.ar    1  UNL1       -0.0043
      4 C         -10.9205  -19.1311   24.4831 C.ar    1  UNL1       -0.0003
      5 C         -11.9102  -18.7034   23.4404 C.ar    1  UNL1       -0.0000
      6 C         -11.7867  -17.3536   22.7979 C.ar    1  UNL1       -0.0003
      7 C         -10.6734  -16.4315   23.1982 C.ar    1  UNL1       -0.0043
      8 C          -7.8756  -16.1870   27.1323 C.3     1  UNL1        0.0003
      9 C          -8.5161  -15.3880   26.0361 C.3     1  UNL1        0.0044
     10 C          -7.5111  -15.5641   23.6468 C.3     1  UNL1        0.0326
     11 C          -6.3055  -16.4391   23.4713 C.3     1  UNL1        0.1516
     12 C          -4.9647  -16.2314   24.1108 C.3     1  UNL1        0.2326
     13 O          -4.0596  -17.3394   23.6603 O.2     1  UNL1       -0.4481
     14 C          -4.8410  -18.2319   22.7422 C.2     1  UNL1        0.2767
     15 N          -4.3250  -19.4645   22.0606 N.pl3   1  UNL1       -0.3133
     16 N          -6.2291  -17.6755   22.6254 N.2     1  UNL1       -0.2228
     17 H          -3.3935  -19.7509   22.2005 H       1  UNL1        0.1466
     18 H          -4.9178  -19.9870   21.4735 H       1  UNL1        0.1466
@<TRIPOS>BOND
     1     8     9    1
     2     1     9    1
     3     1    10    1
     4    11    10    1
     5    11    12    1
     6    12    13    1
     7    13    14    1
     8    14    15    1
     9    14    16    2
    10     1     2    1
    11     2     3   ar
    12     3     4   ar
    13     4     5   ar
    14     5     6   ar
    15     6     7   ar
    16    16    11    1
    17     7     2   ar
    18    15    17    1
    19    15    18    1
@<TRIPOS>MOLECULE
*****
 18 19 0 0 0
SMALL
GASTEIGER

@<TRIPOS>ATOM
      1 C          -7.6983  -19.6899   21.4779 C.3     1  UNL1        0.0244
      2 C          -8.4945  -19.3003   22.6881 C.ar    1  UNL1       -0.0224
      3 C          -9.1727  -20.3550   23.5112 C.ar    1  UNL1       -0.0043
      4 C          -9.9688  -19.9653   24.7213 C.ar    1  UNL1       -0.0003
      5 C         -10.0867  -18.5208   25.1082 C.ar    1  UNL1       -0.0000
      6 C          -9.4086  -17.4661   24.2850 C.ar    1  UNL1       -0.0003
      7 C          -8.6125  -17.8558   23.0750 C.ar    1  UNL1       -0.0043
      8 C          -9.7142  -19.4731   19.8533 C.3     1  UNL1        0.0003
      9 C          -8.2367  -19.4142   20.1053 C.3     1  UNL1        0.0044
     10 C          -6.3639  -20.3553   21.6405 C.3     1  UNL1        0.0326
     11 C          -5.1041  -19.5520   21.5080 C.3     1  UNL1        0.1516
     12 C          -4.5396  -19.0014   20.2320 C.3     1  UNL1        0.2326
     13 O          -3.2743  -18.2673   20.5636 O.2     1  UNL1       -0.4481
     14 C          -3.0568  -18.3641   22.0447 C.2     1  UNL1        0.2767
     15 N          -1.9098  -17.7710   22.8081 N.pl3   1  UNL1       -0.3133
     16 N          -4.1878  -19.1580   22.6283 N.2     1  UNL1       -0.2228
     17 H          -1.2125  -17.2635   22.3333 H       1  UNL1        0.1466
     18 H          -1.8543  -17.8893   23.7838 H       1  UNL1        0.1466
@<TRIPOS>BOND
     1     8     9    1
     2     1     9    1
     3     1    10    1
     4    11    10    1
     5    11    12    1
     6    12    13    1
     7    13    14    1
     8    14    15    1
     9    14    16    2
    10     1     2    1
    11     2     3   ar
    12     3     4   ar
    13     4     5   ar
    14     5     6   ar
    15     6     7   ar
    16    16    11    1
    17     7     2   ar
    18    15    17    1
    19    15    18    1
@<TRIPOS>MOLECULE
*****
 18 19 0 0 0
SMALL
GASTEIGER

@<TRIPOS>ATOM
      1 C          -9.7320  -19.2509   20.7615 C.3     1  UNL1        0.0244
      2 C         -10.7697  -18.8959   21.7848 C.ar    1  UNL1       -0.0224
      3 C         -11.9277  -18.0207   21.4064 C.ar    1  UNL1       -0.0043
      4 C         -12.9654  -17.6658   22.4296 C.ar    1  UNL1       -0.0003
      5 C         -12.8451  -18.1860   23.8314 C.ar    1  UNL1       -0.0000
      6 C         -11.6872  -19.0611   24.2099 C.ar    1  UNL1       -0.0003
      7 C         -10.6495  -19.4161   23.1866 C.ar    1  UNL1       -0.0043
      8 C          -9.1986  -20.3898   18.4881 C.3     1  UNL1        0.0003
      9 C         -10.1490  -19.6405   19.3744 C.3     1  UNL1        0.0044
     10 C          -8.2772  -19.2161   21.1255 C.3     1  UNL1        0.0326
     11 C          -7.7204  -18.0449   21.8792 C.3     1  UNL1        0.1516
     12 C          -6.3989  -17.9998   22.5875 C.3     1  UNL1        0.2326
     13 O          -6.2490  -16.6402   23.2030 O.2     1  UNL1       -0.4481
     14 C          -7.4780  -15.8450   22.8751 C.2     1  UNL1        0.2767
     15 N          -7.7498  -14.4300   23.2922 N.pl3   1  UNL1       -0.3133
     16 N          -8.3873  -16.7132   22.0570 N.2     1  UNL1       -0.2228
     17 H          -7.0879  -13.9400   23.8317 H       1  UNL1        0.1466
     18 H          -8.5902  -13.9913   23.0265 H       1  UNL1        0.1466
@<TRIPOS>BOND
     1     8     9    1
     2     1     9    1
     3     1    10    1
     4    11    10    1
     5    11    12    1
     6    12    13    1
     7    13    14    1
     8    14    15    1
     9    14    16    2
    10     1     2    1
    11     2     3   ar
    12     3     4   ar
    13     4     5   ar
    14     5     6   ar
    15     6     7   ar
    16    16    11    1
    17     7     2   ar
    18    15    17    1
    19    15    18    1
