@<TRIPOS>MOLECULE
*****
 26 28 0 0 0
SMALL
GASTEIGER

@<TRIPOS>ATOM
      1 N          -0.3761    2.9976   20.1632 N.am    1  UNL1       -0.2969
      2 C           0.2321    2.3412   18.9592 C.2     1  UNL1        0.2461
      3 O          -0.0704    2.8649   17.5866 O.2     1  UNL1       -0.2701
      4 H          -0.1775    2.6539   21.0642 H       1  UNL1        0.1501
      5 C           1.1427    1.1613   19.1280 C.ar    1  UNL1        0.0534
      6 C           2.3791    1.0418   18.2871 C.ar    1  UNL1        0.0045
      7 C           3.2897   -0.1381   18.4558 C.ar    1  UNL1        0.0001
      8 C           2.9640   -1.1985   19.4655 C.ar    1  UNL1        0.0001
      9 C           1.7277   -1.0790   20.3065 C.ar    1  UNL1        0.0001
     10 C           0.8170    0.1010   20.1377 C.ar    1  UNL1        0.0045
     11 C           3.8746   -2.3785   19.6343 C.ar    1  UNL1        0.0031
     12 C           3.4955   -3.7078   19.0521 C.ar    1  UNL1        0.0207
     13 C           4.4061   -4.8877   19.2208 C.ar    1  UNL1        0.0989
     14 N           5.6960   -4.7383   19.9719 N.ar    1  UNL1       -0.2423
     15 C           6.0752   -3.4089   20.5541 C.ar    1  UNL1        0.0989
     16 C           5.1645   -2.2290   20.3853 C.ar    1  UNL1        0.0207
     17 C          -1.2867    4.1775   19.9945 C.3     1  UNL1        0.1167
     18 C          -4.9786    3.6112   21.3357 C.ar    1  UNL1        0.1383
     19 C          -5.7493    3.6014   20.0489 C.ar    1  UNL1        0.0369
     20 C          -5.0325    3.7837   18.7439 C.ar    1  UNL1        0.0028
     21 C          -3.5450    3.9757   18.7258 C.ar    1  UNL1       -0.0024
     22 C          -2.7743    3.9854   20.0126 C.ar    1  UNL1        0.0005
     23 C          -3.4911    3.8032   21.3175 C.ar    1  UNL1        0.0343
     24 O          -5.6955    3.4289   22.6407 O.3     1  UNL1       -0.4755
     25 C          -5.2425    3.8668   25.1612 C.3     1  UNL1        0.0512
     26 C          -4.9172    3.1400   23.8899 C.3     1  UNL1        0.2055
@<TRIPOS>BOND
     1    25    26    1
     2    26    24    1
     3    24    18    1
     4    18    19   ar
     5    19    20   ar
     6    20    21   ar
     7    21    22   ar
     8    22    17    1
     9    17     1    1
    10     1     2   am
    11     2     3    2
    12     2     5    1
    13     5     6   ar
    14     6     7   ar
    15     7     8   ar
    16     8    11    1
    17    11    12   ar
    18    12    13   ar
    19    13    14   ar
    20    14    15   ar
    21    15    16   ar
    22     8     9   ar
    23     9    10   ar
    24    22    23   ar
    25    23    18   ar
    26    10     5   ar
    27    16    11   ar
    28     1     4    1
@<TRIPOS>MOLECULE
*****
 26 28 0 0 0
SMALL
GASTEIGER

@<TRIPOS>ATOM
      1 N         -11.2519   -3.0592   19.2577 N.am    1  UNL1       -0.2969
      2 C         -11.8591   -2.0936   18.2835 C.2     1  UNL1        0.2461
      3 O         -11.2296   -1.8910   16.9372 O.2     1  UNL1       -0.2701
      4 H         -11.6650   -3.1922   20.1414 H       1  UNL1        0.1501
      5 C         -13.0957   -1.3306   18.6557 C.ar    1  UNL1        0.0534
      6 C         -13.2176    0.1209   18.2978 C.ar    1  UNL1        0.0045
      7 C         -14.4543    0.8839   18.6701 C.ar    1  UNL1        0.0001
      8 C         -15.5691    0.1952   19.4002 C.ar    1  UNL1        0.0001
      9 C         -15.4472   -1.2563   19.7581 C.ar    1  UNL1        0.0001
     10 C         -14.2105   -2.0193   19.3858 C.ar    1  UNL1        0.0045
     11 C         -16.8058    0.9582   19.7724 C.ar    1  UNL1        0.0031
     12 C         -17.1320    1.1995   21.2165 C.ar    1  UNL1        0.0207
     13 C         -18.3686    1.9624   21.5887 C.ar    1  UNL1        0.0989
     14 N         -19.2791    2.4841   20.5168 N.ar    1  UNL1       -0.2423
     15 C         -18.9529    2.2428   19.0727 C.ar    1  UNL1        0.0989
     16 C         -17.7162    1.4798   18.7005 C.ar    1  UNL1        0.0207
     17 C         -10.0152   -3.8221   18.8855 C.3     1  UNL1        0.1167
     18 C         -11.1495   -7.1610   17.0647 C.ar    1  UNL1        0.1383
     19 C         -10.3044   -8.1742   17.7783 C.ar    1  UNL1        0.0369
     20 C          -9.3629   -7.7367   18.8609 C.ar    1  UNL1        0.0028
     21 C          -9.2665   -6.2860   19.2300 C.ar    1  UNL1       -0.0024
     22 C         -10.1116   -5.2729   18.5164 C.ar    1  UNL1        0.0005
     23 C         -11.0531   -5.7104   17.4338 C.ar    1  UNL1        0.0343
     24 O         -12.0910   -7.5985   15.9821 O.3     1  UNL1       -0.4755
     25 C         -14.1598   -8.3023   17.3873 C.3     1  UNL1        0.0512
     26 C         -13.5719   -7.5684   16.2186 C.3     1  UNL1        0.2055
@<TRIPOS>BOND
     1    25    26    1
     2    26    24    1
     3    24    18    1
     4    18    19   ar
     5    19    20   ar
     6    20    21   ar
     7    21    22   ar
     8    22    17    1
     9    17     1    1
    10     1     2   am
    11     2     3    2
    12     2     5    1
    13     5     6   ar
    14     6     7   ar
    15     7     8   ar
    16     8    11    1
    17    11    12   ar
    18    12    13   ar
    19    13    14   ar
    20    14    15   ar
    21    15    16   ar
    22     8     9   ar
    23     9    10   ar
    24    22    23   ar
    25    23    18   ar
    26    10     5   ar
    27    16    11   ar
    28     1     4    1
@<TRIPOS>MOLECULE
*****
 26 28 0 0 0
SMALL
GASTEIGER

@<TRIPOS>ATOM
      1 N          -1.8951    2.6426   20.7891 N.am    1  UNL1       -0.2969
      2 C          -0.4129    2.8306   20.6561 C.2     1  UNL1        0.2461
      3 O           0.1512    4.2002   20.4196 O.2     1  UNL1       -0.2701
      4 H          -2.2654    1.7437   20.9444 H       1  UNL1        0.1501
      5 C           0.5052    1.6489   20.7597 C.ar    1  UNL1        0.0534
      6 C           1.1532    1.3152   22.0707 C.ar    1  UNL1        0.0045
      7 C           2.0713    0.1336   22.1742 C.ar    1  UNL1        0.0001
      8 C           2.3415   -0.7144   20.9667 C.ar    1  UNL1        0.0001
      9 C           1.6935   -0.3807   19.6557 C.ar    1  UNL1        0.0001
     10 C           0.7754    0.8010   19.5522 C.ar    1  UNL1        0.0045
     11 C           3.2596   -1.8961   21.0702 C.ar    1  UNL1        0.0031
     12 C           3.9202   -2.2203   22.3773 C.ar    1  UNL1        0.0207
     13 C           4.8383   -3.4020   22.4809 C.ar    1  UNL1        0.0989
     14 N           5.0958   -4.2594   21.2773 N.ar    1  UNL1       -0.2423
     15 C           4.4352   -3.9351   19.9702 C.ar    1  UNL1        0.0989
     16 C           3.5171   -2.7534   19.8667 C.ar    1  UNL1        0.0207
     17 C          -2.8132    3.8243   20.6856 C.3     1  UNL1        0.1167
     18 C          -5.2065    3.6277   23.8453 C.ar    1  UNL1        0.1383
     19 C          -6.5168    4.0261   23.2337 C.ar    1  UNL1        0.0369
     20 C          -6.5927    4.3572   21.7726 C.ar    1  UNL1        0.0028
     21 C          -5.3582    4.2899   20.9233 C.ar    1  UNL1       -0.0024
     22 C          -4.0478    3.8915   21.5349 C.ar    1  UNL1        0.0005
     23 C          -3.9720    3.5604   22.9960 C.ar    1  UNL1        0.0343
     24 O          -5.1306    3.2965   25.3064 O.3     1  UNL1       -0.4755
     25 C          -2.8501    3.7664   26.4590 C.3     1  UNL1        0.0512
     26 C          -4.2855    4.1318   26.2218 C.3     1  UNL1        0.2055
@<TRIPOS>BOND
     1    25    26    1
     2    26    24    1
     3    24    18    1
     4    18    19   ar
     5    19    20   ar
     6    20    21   ar
     7    21    22   ar
     8    22    17    1
     9    17     1    1
    10     1     2   am
    11     2     3    2
    12     2     5    1
    13     5     6   ar
    14     6     7   ar
    15     7     8   ar
    16     8    11    1
    17    11    12   ar
    18    12    13   ar
    19    13    14   ar
    20    14    15   ar
    21    15    16   ar
    22     8     9   ar
    23     9    10   ar
    24    22    23   ar
    25    23    18   ar
    26    10     5   ar
    27    16    11   ar
    28     1     4    1
@<TRIPOS>MOLECULE
*****
 26 28 0 0 0
SMALL
GASTEIGER

@<TRIPOS>ATOM
      1 N          -1.5974    2.4744   21.0413 N.am    1  UNL1       -0.2969
      2 C          -0.1880    2.5315   21.5516 C.2     1  UNL1        0.2461
      3 O           0.3033    3.7579   22.2620 O.2     1  UNL1       -0.2701
      4 H          -1.9199    1.6695   20.5750 H       1  UNL1        0.1501
      5 C           0.7300    1.3623   21.3515 C.ar    1  UNL1        0.0534
      6 C           1.8378    1.1026   22.3290 C.ar    1  UNL1        0.0045
      7 C           2.7558   -0.0666   22.1289 C.ar    1  UNL1        0.0001
      8 C           2.5662   -0.9762   20.9512 C.ar    1  UNL1        0.0001
      9 C           1.4584   -0.7165   19.9738 C.ar    1  UNL1        0.0001
     10 C           0.5403    0.4528   20.1739 C.ar    1  UNL1        0.0045
     11 C           3.4842   -2.1454   20.7512 C.ar    1  UNL1        0.0031
     12 C           4.3258   -2.6416   21.8894 C.ar    1  UNL1        0.0207
     13 C           5.2439   -3.8108   21.6893 C.ar    1  UNL1        0.0989
     14 N           5.3203   -4.4839   20.3509 N.ar    1  UNL1       -0.2423
     15 C           4.4788   -3.9877   19.2127 C.ar    1  UNL1        0.0989
     16 C           3.5607   -2.8184   19.4129 C.ar    1  UNL1        0.0207
     17 C          -2.5155    3.6436   21.2413 C.3     1  UNL1        0.1167
     18 C          -3.7515    3.7170   25.0119 C.ar    1  UNL1        0.1383
     19 C          -5.2380    3.7797   24.8217 C.ar    1  UNL1        0.0369
     20 C          -5.8171    3.7970   23.4381 C.ar    1  UNL1        0.0028
     21 C          -4.9096    3.7517   22.2447 C.ar    1  UNL1       -0.0024
     22 C          -3.4231    3.6890   22.4348 C.ar    1  UNL1        0.0005
     23 C          -2.8440    3.6717   23.8184 C.ar    1  UNL1        0.0343
     24 O          -3.1724    3.6997   26.3955 O.3     1  UNL1       -0.4755
     25 C          -1.0735    2.2417   26.8631 C.3     1  UNL1        0.0512
     26 C          -1.6894    3.5812   26.5864 C.3     1  UNL1        0.2055
@<TRIPOS>BOND
     1    25    26    1
     2    26    24    1
     3    24    18    1
     4    18    19   ar
     5    19    20   ar
     6    20    21   ar
     7    21    22   ar
     8    22    17    1
     9    17     1    1
    10     1     2   am
    11     2     3    2
    12     2     5    1
    13     5     6   ar
    14     6     7   ar
    15     7     8   ar
    16     8    11    1
    17    11    12   ar
    18    12    13   ar
    19    13    14   ar
    20    14    15   ar
    21    15    16   ar
    22     8     9   ar
    23     9    10   ar
    24    22    23   ar
    25    23    18   ar
    26    10     5   ar
    27    16    11   ar
    28     1     4    1
@<TRIPOS>MOLECULE
*****
 26 28 0 0 0
SMALL
GASTEIGER

@<TRIPOS>ATOM
      1 N          -0.0562    3.1420   22.7565 N.am    1  UNL1       -0.2969
      2 C          -0.2408    2.2266   21.5826 C.2     1  UNL1        0.2461
      3 O          -1.3821    2.4444   20.6339 O.2     1  UNL1       -0.2701
      4 H           0.6928    2.9991   23.3792 H       1  UNL1        0.1501
      5 C           0.7158    1.0934   21.3574 C.ar    1  UNL1        0.0534
      6 C           1.8307    0.8485   22.3306 C.ar    1  UNL1        0.0045
      7 C           2.7873   -0.2847   22.1054 C.ar    1  UNL1        0.0001
      8 C           2.6291   -1.1730   20.9071 C.ar    1  UNL1        0.0001
      9 C           1.5143   -0.9280   19.9339 C.ar    1  UNL1        0.0001
     10 C           0.5576    0.2052   20.1591 C.ar    1  UNL1        0.0045
     11 C           3.5858   -2.3061   20.6819 C.ar    1  UNL1        0.0031
     12 C           3.5699   -3.0540   19.3817 C.ar    1  UNL1        0.0207
     13 C           4.5266   -4.1871   19.1566 C.ar    1  UNL1        0.0989
     14 N           5.4992   -4.5725   20.2316 N.ar    1  UNL1       -0.2423
     15 C           5.5151   -3.8246   21.5318 C.ar    1  UNL1        0.0989
     16 C           4.5583   -2.6914   21.7569 C.ar    1  UNL1        0.0207
     17 C          -1.0129    4.2751   22.9817 C.3     1  UNL1        0.1167
     18 C          -4.8917    3.6605   23.5537 C.ar    1  UNL1        0.1383
     19 C          -4.9404    3.5274   25.0469 C.ar    1  UNL1        0.0369
     20 C          -3.6800    3.6435   25.8518 C.ar    1  UNL1        0.0028
     21 C          -2.3708    3.8928   25.1634 C.ar    1  UNL1       -0.0024
     22 C          -2.3221    4.0259   23.6701 C.ar    1  UNL1        0.0005
     23 C          -3.5826    3.9098   22.8653 C.ar    1  UNL1        0.0343
     24 O          -6.1522    3.5444   22.7488 O.3     1  UNL1       -0.4755
     25 C          -7.2056    5.8541   23.3015 C.3     1  UNL1        0.0512
     26 C          -7.3496    4.3738   23.1067 C.3     1  UNL1        0.2055
@<TRIPOS>BOND
     1    25    26    1
     2    26    24    1
     3    24    18    1
     4    18    19   ar
     5    19    20   ar
     6    20    21   ar
     7    21    22   ar
     8    22    17    1
     9    17     1    1
    10     1     2   am
    11     2     3    2
    12     2     5    1
    13     5     6   ar
    14     6     7   ar
    15     7     8   ar
    16     8    11    1
    17    11    12   ar
    18    12    13   ar
    19    13    14   ar
    20    14    15   ar
    21    15    16   ar
    22     8     9   ar
    23     9    10   ar
    24    22    23   ar
    25    23    18   ar
    26    10     5   ar
    27    16    11   ar
    28     1     4    1
@<TRIPOS>MOLECULE
*****
 26 28 0 0 0
SMALL
GASTEIGER

@<TRIPOS>ATOM
      1 N           6.2950   -4.1447   25.1747 N.am    1  UNL1       -0.2969
      2 C           6.3405   -4.2935   23.6827 C.2     1  UNL1        0.2461
      3 O           7.2807   -5.2798   23.0557 O.2     1  UNL1       -0.2701
      4 H           5.6779   -3.4973   25.5862 H       1  UNL1        0.1501
      5 C           5.4458   -3.4559   22.8179 C.ar    1  UNL1        0.0534
      6 C           4.5547   -2.4221   23.4401 C.ar    1  UNL1        0.0045
      7 C           3.6601   -1.5846   22.5752 C.ar    1  UNL1        0.0001
      8 C           3.6564   -1.7809   21.0880 C.ar    1  UNL1        0.0001
      9 C           4.5475   -2.8147   20.4659 C.ar    1  UNL1        0.0001
     10 C           5.4422   -3.6523   21.3308 C.ar    1  UNL1        0.0045
     11 C           2.7617   -0.9433   20.2232 C.ar    1  UNL1        0.0031
     12 C           3.2197   -0.5194   18.8592 C.ar    1  UNL1        0.0207
     13 C           2.3251    0.3181   17.9943 C.ar    1  UNL1        0.0989
     14 N           0.9723    0.7318   18.4934 N.ar    1  UNL1       -0.2423
     15 C           0.5143    0.3078   19.8574 C.ar    1  UNL1        0.0989
     16 C           1.4091   -0.5298   20.7223 C.ar    1  UNL1        0.0207
     17 C           7.1897   -4.9822   26.0396 C.3     1  UNL1        0.1167
     18 C           6.4872   -3.5477   29.6726 C.ar    1  UNL1        0.1383
     19 C           6.8722   -4.7233   30.5209 C.ar    1  UNL1        0.0369
     20 C           7.3630   -5.9853   29.8754 C.ar    1  UNL1        0.0028
     21 C           7.4688   -6.0716   28.3817 C.ar    1  UNL1       -0.0024
     22 C           7.0839   -4.8959   27.5334 C.ar    1  UNL1        0.0005
     23 C           6.5931   -3.6340   28.1788 C.ar    1  UNL1        0.0343
     24 O           5.9965   -2.2857   30.3180 O.3     1  UNL1       -0.4755
     25 C           7.0073   -1.6457   32.6242 C.3     1  UNL1        0.0512
     26 C           5.8774   -2.2042   31.8110 C.3     1  UNL1        0.2055
@<TRIPOS>BOND
     1    25    26    1
     2    26    24    1
     3    24    18    1
     4    18    19   ar
     5    19    20   ar
     6    20    21   ar
     7    21    22   ar
     8    22    17    1
     9    17     1    1
    10     1     2   am
    11     2     3    2
    12     2     5    1
    13     5     6   ar
    14     6     7   ar
    15     7     8   ar
    16     8    11    1
    17    11    12   ar
    18    12    13   ar
    19    13    14   ar
    20    14    15   ar
    21    15    16   ar
    22     8     9   ar
    23     9    10   ar
    24    22    23   ar
    25    23    18   ar
    26    10     5   ar
    27    16    11   ar
    28     1     4    1
@<TRIPOS>MOLECULE
*****
 26 28 0 0 0
SMALL
GASTEIGER

@<TRIPOS>ATOM
      1 N          -5.9268  -18.6446   19.6123 N.am    1  UNL1       -0.2969
      2 C          -6.5501  -19.6989   20.4784 C.2     1  UNL1        0.2461
      3 O          -5.8603  -21.0172   20.6691 O.2     1  UNL1       -0.2701
      4 H          -6.3796  -17.7794   19.4871 H       1  UNL1        0.1501
      5 C          -7.8632  -19.4350   21.1538 C.ar    1  UNL1        0.0534
      6 C          -9.0944  -19.1942   20.3316 C.ar    1  UNL1        0.0045
      7 C         -10.4075  -18.9302   21.0069 C.ar    1  UNL1        0.0001
      8 C         -10.4893  -18.9070   22.5045 C.ar    1  UNL1        0.0001
      9 C          -9.2581  -19.1478   23.3268 C.ar    1  UNL1        0.0001
     10 C          -7.9450  -19.4118   22.6513 C.ar    1  UNL1        0.0045
     11 C         -11.8024  -18.6430   23.1799 C.ar    1  UNL1        0.0031
     12 C         -12.9370  -18.0416   22.4047 C.ar    1  UNL1        0.0207
     13 C         -14.2501  -17.7777   23.0800 C.ar    1  UNL1        0.0989
     14 N         -14.4286  -18.1151   24.5307 N.ar    1  UNL1       -0.2423
     15 C         -13.2940  -18.7166   25.3059 C.ar    1  UNL1        0.0989
     16 C         -11.9809  -18.9805   24.6305 C.ar    1  UNL1        0.0207
     17 C          -4.6138  -18.9086   18.9369 C.3     1  UNL1        0.1167
     18 C          -2.0070  -18.0033   21.7892 C.ar    1  UNL1        0.1383
     19 C          -0.7663  -17.7759   20.9775 C.ar    1  UNL1        0.0369
     20 C          -0.8081  -17.9261   19.4856 C.ar    1  UNL1        0.0028
     21 C          -2.0905  -18.3036   18.8054 C.ar    1  UNL1       -0.0024
     22 C          -3.3312  -18.5310   19.6171 C.ar    1  UNL1        0.0005
     23 C          -3.2895  -18.3808   21.1090 C.ar    1  UNL1        0.0343
     24 O          -1.9653  -17.8531   23.2811 O.3     1  UNL1       -0.4755
     25 C          -4.2746  -16.8003   23.8366 C.3     1  UNL1        0.0512
     26 C          -3.2400  -17.8607   24.0716 C.3     1  UNL1        0.2055
@<TRIPOS>BOND
     1    25    26    1
     2    26    24    1
     3    24    18    1
     4    18    19   ar
     5    19    20   ar
     6    20    21   ar
     7    21    22   ar
     8    22    17    1
     9    17     1    1
    10     1     2   am
    11     2     3    2
    12     2     5    1
    13     5     6   ar
    14     6     7   ar
    15     7     8   ar
    16     8    11    1
    17    11    12   ar
    18    12    13   ar
    19    13    14   ar
    20    14    15   ar
    21    15    16   ar
    22     8     9   ar
    23     9    10   ar
    24    22    23   ar
    25    23    18   ar
    26    10     5   ar
    27    16    11   ar
    28     1     4    1
@<TRIPOS>MOLECULE
*****
 26 28 0 0 0
SMALL
GASTEIGER

@<TRIPOS>ATOM
      1 N           5.8171    1.6572   35.3403 N.am    1  UNL1       -0.2969
      2 C           5.6947    0.1757   35.5412 C.2     1  UNL1        0.2461
      3 O           5.3494   -0.3717   36.8944 O.2     1  UNL1       -0.2701
      4 H           6.0437    2.0165   34.4522 H       1  UNL1        0.1501
      5 C           5.9177   -0.7583   34.3889 C.ar    1  UNL1        0.0534
      6 C           4.8056   -1.6484   33.9189 C.ar    1  UNL1        0.0045
      7 C           5.0286   -2.5825   32.7666 C.ar    1  UNL1        0.0001
      8 C           6.3638   -2.6264   32.0843 C.ar    1  UNL1        0.0001
      9 C           7.4759   -1.7363   32.5543 C.ar    1  UNL1        0.0001
     10 C           7.2528   -0.8022   33.7066 C.ar    1  UNL1        0.0045
     11 C           6.5868   -3.5604   30.9320 C.ar    1  UNL1        0.0031
     12 C           7.0064   -4.9780   31.1859 C.ar    1  UNL1        0.0207
     13 C           7.2294   -5.9120   30.0336 C.ar    1  UNL1        0.0989
     14 N           7.0327   -5.4285   28.6273 N.ar    1  UNL1       -0.2423
     15 C           6.6131   -4.0110   28.3734 C.ar    1  UNL1        0.0989
     16 C           6.3901   -3.0769   29.5258 C.ar    1  UNL1        0.0207
     17 C           5.5941    2.5912   36.4926 C.3     1  UNL1        0.1167
     18 C           2.2411    3.0132   38.5734 C.ar    1  UNL1        0.1383
     19 C           1.4135    3.8195   37.6169 C.ar    1  UNL1        0.0369
     20 C           1.9794    4.2164   36.2857 C.ar    1  UNL1        0.0028
     21 C           3.3729    3.8070   35.9109 C.ar    1  UNL1       -0.0024
     22 C           4.2005    3.0007   36.8674 C.ar    1  UNL1        0.0005
     23 C           3.6346    2.6038   38.1986 C.ar    1  UNL1        0.0343
     24 O           1.6752    2.6163   39.9047 O.3     1  UNL1       -0.4755
     25 C           1.1699    0.1156   39.4141 C.3     1  UNL1        0.0512
     26 C           0.7618    1.4311   40.0081 C.3     1  UNL1        0.2055
@<TRIPOS>BOND
     1    25    26    1
     2    26    24    1
     3    24    18    1
     4    18    19   ar
     5    19    20   ar
     6    20    21   ar
     7    21    22   ar
     8    22    17    1
     9    17     1    1
    10     1     2   am
    11     2     3    2
    12     2     5    1
    13     5     6   ar
    14     6     7   ar
    15     7     8   ar
    16     8    11    1
    17    11    12   ar
    18    12    13   ar
    19    13    14   ar
    20    14    15   ar
    21    15    16   ar
    22     8     9   ar
    23     9    10   ar
    24    22    23   ar
    25    23    18   ar
    26    10     5   ar
    27    16    11   ar
    28     1     4    1
@<TRIPOS>MOLECULE
*****
 26 28 0 0 0
SMALL
GASTEIGER

@<TRIPOS>ATOM
      1 N          -0.4796    3.0314   22.7174 N.am    1  UNL1       -0.2969
      2 C          -0.1861    2.4783   21.3542 C.2     1  UNL1        0.2461
      3 O          -0.8134    3.0999   20.1417 O.2     1  UNL1       -0.2701
      4 H          -0.0680    2.6234   23.5132 H       1  UNL1        0.1501
      5 C           0.7346    1.3038   21.2037 C.ar    1  UNL1        0.0534
      6 C           1.8422    1.0876   22.1918 C.ar    1  UNL1        0.0045
      7 C           2.7629   -0.0870   22.0412 C.ar    1  UNL1        0.0001
      8 C           2.5759   -1.0454   20.9025 C.ar    1  UNL1        0.0001
      9 C           1.4683   -0.8292   19.9144 C.ar    1  UNL1        0.0001
     10 C           0.5476    0.3454   20.0650 C.ar    1  UNL1        0.0045
     11 C           3.4966   -2.2200   20.7520 C.ar    1  UNL1        0.0031
     12 C           3.5532   -2.9668   19.4524 C.ar    1  UNL1        0.0207
     13 C           4.4739   -4.1414   19.3018 C.ar    1  UNL1        0.0989
     14 N           5.3381   -4.5691   20.4509 N.ar    1  UNL1       -0.2423
     15 C           5.2815   -3.8223   21.7505 C.ar    1  UNL1        0.0989
     16 C           4.3607   -2.6477   21.9010 C.ar    1  UNL1        0.0207
     17 C          -1.4003    4.2059   22.8679 C.3     1  UNL1        0.1167
     18 C          -5.1820    4.0088   21.6804 C.ar    1  UNL1        0.1383
     19 C          -5.8554    3.5768   22.9492 C.ar    1  UNL1        0.0369
     20 C          -5.0437    3.3545   24.1909 C.ar    1  UNL1        0.0028
     21 C          -3.5587    3.5642   24.1638 C.ar    1  UNL1       -0.0024
     22 C          -2.8854    3.9962   22.8951 C.ar    1  UNL1        0.0005
     23 C          -3.6970    4.2185   21.6534 C.ar    1  UNL1        0.0343
     24 O          -5.9936    4.2312   20.4387 O.3     1  UNL1       -0.4755
     25 C          -5.0778    3.7150   18.0629 C.3     1  UNL1        0.0512
     26 C          -5.8555    3.2951   19.2748 C.3     1  UNL1        0.2055
@<TRIPOS>BOND
     1    25    26    1
     2    26    24    1
     3    24    18    1
     4    18    19   ar
     5    19    20   ar
     6    20    21   ar
     7    21    22   ar
     8    22    17    1
     9    17     1    1
    10     1     2   am
    11     2     3    2
    12     2     5    1
    13     5     6   ar
    14     6     7   ar
    15     7     8   ar
    16     8    11    1
    17    11    12   ar
    18    12    13   ar
    19    13    14   ar
    20    14    15   ar
    21    15    16   ar
    22     8     9   ar
    23     9    10   ar
    24    22    23   ar
    25    23    18   ar
    26    10     5   ar
    27    16    11   ar
    28     1     4    1
