@<TRIPOS>MOLECULE
*****
 30 33 0 0 0
SMALL
GASTEIGER

@<TRIPOS>ATOM
      1 N          -8.0316  -19.5489   21.4479 N.3     1  UNL1       -0.2679
      2 C          -8.6626  -19.1521   22.7496 C.3     1  UNL1        0.0978
      3 C          -9.5258  -20.1279   23.4929 C.3     1  UNL1        0.0224
      4 C         -10.1568  -19.7311   24.7946 C.3     1  UNL1        0.0065
      5 C          -9.9245  -18.3585   25.3530 C.3     1  UNL1        0.0277
      6 C          -9.0613  -17.3827   24.6097 C.ar    1  UNL1       -0.0073
      7 C          -8.8290  -16.0099   25.1681 C.ar    1  UNL1       -0.0015
      8 C          -7.9657  -15.0341   24.4248 C.ar    1  UNL1        0.0203
      9 C          -7.3347  -15.4309   23.1231 C.ar    1  UNL1        0.0985
     10 N          -7.5670  -16.8036   22.5647 N.ar    1  UNL1       -0.2471
     11 C          -8.4303  -17.7795   23.3080 C.ar    1  UNL1        0.0695
     12 C          -8.7213  -19.2347   20.1535 C.3     1  UNL1        0.0725
     13 C         -10.2193  -19.1823   20.0953 C.3     1  UNL1        0.0187
     14 C         -10.9149  -17.8773   19.8441 C.3     1  UNL1        0.0183
     15 N         -10.1859  -15.6559   20.9773 N.3     1  UNL1       -0.3211
     16 C         -11.0564  -16.8773   20.9531 C.3     1  UNL1        0.0652
     17 H         -10.4156  -15.0908   21.7948 H       1  UNL1        0.1189
     18 H         -10.3437  -15.1091   20.1308 H       1  UNL1        0.1189
     19 C          -6.7109  -20.2600   21.4406 C.3     1  UNL1        0.0886
     20 C          -5.4347  -19.4717   21.4452 C.3     1  UNL1        0.0765
     21 C          -4.5671  -19.4420   20.2219 C.3     1  UNL1        0.0642
     22 C          -3.2909  -18.6537   20.2265 C.ar    1  UNL1        0.0753
     23 N          -2.4233  -18.6240   19.0032 N.ar    1  UNL1       -0.2452
     24 C          -1.1471  -17.8358   19.0079 C.ar    1  UNL1        0.1191
     25 C          -0.7385  -17.0773   20.2358 C.ar    1  UNL1        0.1191
     26 N          -1.6061  -17.1071   21.4590 N.ar    1  UNL1       -0.2440
     27 C          -2.8822  -17.8953   21.4544 C.ar    1  UNL1        0.0885
     28 C          -3.7499  -17.9250   22.6777 C.3     1  UNL1        0.1164
     29 N          -5.0260  -18.7133   22.6731 N.3     1  UNL1       -0.2921
     30 H          -5.7788  -18.0560   22.8773 H       1  UNL1        0.1236
@<TRIPOS>BOND
     1    15    16    1
     2    16    14    1
     3    14    13    1
     4    13    12    1
     5    12     1    1
     6     1    19    1
     7    20    19    1
     8    20    21    1
     9    21    22    1
    10    22    23   ar
    11    23    24   ar
    12    24    25   ar
    13    25    26   ar
    14    26    27   ar
    15    27    28    1
    16    28    29    1
    17     2     1    1
    18     2     3    1
    19     3     4    1
    20     4     5    1
    21     5     6    1
    22     6     7   ar
    23     7     8   ar
    24     8     9   ar
    25     9    10   ar
    26    10    11   ar
    27    29    20    1
    28    11     2    1
    29    27    22   ar
    30    11     6   ar
    31    15    17    1
    32    15    18    1
    33    29    30    1
@<TRIPOS>MOLECULE
*****
 30 33 0 0 0
SMALL
GASTEIGER

@<TRIPOS>ATOM
      1 N          -7.8420  -19.6414   21.6241 N.3     1  UNL1       -0.2679
      2 C          -8.6087  -19.1856   22.8302 C.3     1  UNL1        0.0978
      3 C          -9.5738  -20.1171   23.5015 C.3     1  UNL1        0.0224
      4 C         -10.3404  -19.6613   24.7076 C.3     1  UNL1        0.0065
      5 C         -10.1419  -18.2741   25.2423 C.3     1  UNL1        0.0277
      6 C          -9.1767  -17.3426   24.5710 C.ar    1  UNL1       -0.0073
      7 C          -8.9781  -15.9552   25.1057 C.ar    1  UNL1       -0.0015
      8 C          -8.0130  -15.0237   24.4344 C.ar    1  UNL1        0.0203
      9 C          -7.2463  -15.4795   23.2283 C.ar    1  UNL1        0.0985
     10 N          -7.4449  -16.8668   22.6936 N.ar    1  UNL1       -0.2471
     11 C          -8.4101  -17.7984   23.3649 C.ar    1  UNL1        0.0695
     12 C          -8.3343  -19.2993   20.2492 C.3     1  UNL1        0.0725
     13 C          -9.7497  -19.6089   19.8607 C.3     1  UNL1        0.0187
     14 C         -10.7410  -18.4963   19.6897 C.3     1  UNL1        0.0183
     15 N         -12.6301  -17.0493   20.7326 N.3     1  UNL1       -0.3211
     16 C         -11.3912  -17.8798   20.8927 C.3     1  UNL1        0.0652
     17 H         -12.9337  -16.7120   21.6461 H       1  UNL1        0.1189
     18 H         -13.3687  -17.6170   20.3171 H       1  UNL1        0.1189
     19 C          -6.5832  -20.4393   21.7931 C.3     1  UNL1        0.0886
     20 C          -5.2968  -19.9451   21.2004 C.3     1  UNL1        0.0765
     21 C          -4.6254  -18.7313   21.7714 C.3     1  UNL1        0.0642
     22 C          -3.3391  -18.2371   21.1788 C.ar    1  UNL1        0.0753
     23 N          -2.6677  -17.0234   21.7497 N.ar    1  UNL1       -0.2452
     24 C          -1.3814  -16.5293   21.1571 C.ar    1  UNL1        0.1191
     25 C          -0.7665  -17.2489   19.9935 C.ar    1  UNL1        0.1191
     26 N          -1.4378  -18.4627   19.4226 N.ar    1  UNL1       -0.2440
     27 C          -2.7241  -18.9568   20.0152 C.ar    1  UNL1        0.0885
     28 C          -3.3955  -20.1706   19.4442 C.3     1  UNL1        0.1164
     29 N          -4.6818  -20.6647   20.0369 N.3     1  UNL1       -0.2921
     30 H          -4.5174  -21.6252   20.3382 H       1  UNL1        0.1236
@<TRIPOS>BOND
     1    15    16    1
     2    16    14    1
     3    14    13    1
     4    13    12    1
     5    12     1    1
     6     1    19    1
     7    20    19    1
     8    20    21    1
     9    21    22    1
    10    22    23   ar
    11    23    24   ar
    12    24    25   ar
    13    25    26   ar
    14    26    27   ar
    15    27    28    1
    16    28    29    1
    17     2     1    1
    18     2     3    1
    19     3     4    1
    20     4     5    1
    21     5     6    1
    22     6     7   ar
    23     7     8   ar
    24     8     9   ar
    25     9    10   ar
    26    10    11   ar
    27    29    20    1
    28    11     2    1
    29    27    22   ar
    30    11     6   ar
    31    15    17    1
    32    15    18    1
    33    29    30    1
@<TRIPOS>MOLECULE
*****
 30 33 0 0 0
SMALL
GASTEIGER

@<TRIPOS>ATOM
      1 N          -7.8497  -18.1127   22.7494 N.3     1  UNL1       -0.2679
      2 C          -9.2952  -18.2606   23.1216 C.3     1  UNL1        0.0978
      3 C          -9.6781  -19.0264   24.3532 C.3     1  UNL1        0.0224
      4 C         -11.1236  -19.1744   24.7253 C.3     1  UNL1        0.0065
      5 C         -12.1863  -18.5564   23.8658 C.3     1  UNL1        0.0277
      6 C         -11.8035  -17.7906   22.6342 C.ar    1  UNL1       -0.0073
      7 C         -12.8663  -17.1727   21.7747 C.ar    1  UNL1       -0.0015
      8 C         -12.4834  -16.4068   20.5431 C.ar    1  UNL1        0.0203
      9 C         -11.0379  -16.2589   20.1709 C.ar    1  UNL1        0.0985
     10 N          -9.9752  -16.8768   21.0304 N.ar    1  UNL1       -0.2471
     11 C         -10.3580  -17.6427   22.2621 C.ar    1  UNL1        0.0695
     12 C          -7.0907  -16.8864   23.1620 C.3     1  UNL1        0.0725
     13 C          -7.8189  -15.7199   23.7613 C.3     1  UNL1        0.0187
     14 C          -7.9873  -15.6249   25.2488 C.3     1  UNL1        0.0183
     15 N          -5.6871  -14.5737   25.8441 N.3     1  UNL1       -0.3211
     16 C          -6.7807  -15.5577   26.1374 C.3     1  UNL1        0.0652
     17 H          -4.9508  -14.6652   26.5441 H       1  UNL1        0.1189
     18 H          -6.0656  -13.6269   25.8705 H       1  UNL1        0.1189
     19 C          -7.1631  -19.1910   21.9648 C.3     1  UNL1        0.0886
     20 C          -5.6883  -19.1058   21.7043 C.3     1  UNL1        0.0765
     21 C          -5.1867  -18.5291   20.4137 C.3     1  UNL1        0.0642
     22 C          -3.7119  -18.4439   20.1533 C.ar    1  UNL1        0.0753
     23 N          -3.2102  -17.8672   18.8626 N.ar    1  UNL1       -0.2452
     24 C          -1.7355  -17.7820   18.6023 C.ar    1  UNL1        0.1191
     25 C          -0.7624  -18.2735   19.6326 C.ar    1  UNL1        0.1191
     26 N          -1.2640  -18.8501   20.9232 N.ar    1  UNL1       -0.2440
     27 C          -2.7387  -18.9353   21.1836 C.ar    1  UNL1        0.0885
     28 C          -3.2404  -19.5120   22.4743 C.3     1  UNL1        0.1164
     29 N          -4.7151  -19.5972   22.7346 N.3     1  UNL1       -0.2921
     30 H          -4.8949  -19.0659   23.5866 H       1  UNL1        0.1236
@<TRIPOS>BOND
     1    15    16    1
     2    16    14    1
     3    14    13    1
     4    13    12    1
     5    12     1    1
     6     1    19    1
     7    20    19    1
     8    20    21    1
     9    21    22    1
    10    22    23   ar
    11    23    24   ar
    12    24    25   ar
    13    25    26   ar
    14    26    27   ar
    15    27    28    1
    16    28    29    1
    17     2     1    1
    18     2     3    1
    19     3     4    1
    20     4     5    1
    21     5     6    1
    22     6     7   ar
    23     7     8   ar
    24     8     9   ar
    25     9    10   ar
    26    10    11   ar
    27    29    20    1
    28    11     2    1
    29    27    22   ar
    30    11     6   ar
    31    15    17    1
    32    15    18    1
    33    29    30    1
@<TRIPOS>MOLECULE
*****
 30 33 0 0 0
SMALL
GASTEIGER

@<TRIPOS>ATOM
      1 N          -8.6424  -17.0245   24.4037 N.3     1  UNL1       -0.2679
      2 C          -9.4578  -18.0378   23.6565 C.3     1  UNL1        0.0978
      3 C          -9.5485  -19.4473   24.1615 C.3     1  UNL1        0.0224
      4 C         -10.3639  -20.4607   23.4143 C.3     1  UNL1        0.0065
      5 C         -11.0886  -20.0645   22.1622 C.3     1  UNL1        0.0277
      6 C         -10.9978  -18.6550   21.6572 C.ar    1  UNL1       -0.0073
      7 C         -11.7226  -18.2587   20.4051 C.ar    1  UNL1       -0.0015
      8 C         -11.6319  -16.8492   19.9001 C.ar    1  UNL1        0.0203
      9 C         -10.8165  -15.8359   20.6473 C.ar    1  UNL1        0.0985
     10 N         -10.0918  -16.2321   21.8994 N.ar    1  UNL1       -0.2471
     11 C         -10.1824  -17.6416   22.4044 C.ar    1  UNL1        0.0695
     12 C          -8.9050  -16.7763   25.8595 C.3     1  UNL1        0.0725
     13 C          -8.5519  -15.4526   26.4704 C.3     1  UNL1        0.0187
     14 C          -7.3523  -15.3346   27.3631 C.3     1  UNL1        0.0183
     15 N          -5.4062  -14.4766   25.8710 N.3     1  UNL1       -0.3211
     16 C          -5.9751  -15.5116   26.7958 C.3     1  UNL1        0.0652
     17 H          -4.4682  -14.7561   25.5838 H       1  UNL1        0.1189
     18 H          -5.3608  -13.5785   26.3524 H       1  UNL1        0.1189
     19 C          -7.5643  -16.2593   23.6951 C.3     1  UNL1        0.0886
     20 C          -6.3499  -16.9750   23.1821 C.3     1  UNL1        0.0765
     21 C          -6.5003  -18.0955   22.1963 C.3     1  UNL1        0.0642
     22 C          -5.2859  -18.8112   21.6833 C.ar    1  UNL1        0.0753
     23 N          -5.4363  -19.9317   20.6975 N.ar    1  UNL1       -0.2452
     24 C          -4.2220  -20.6474   20.1845 C.ar    1  UNL1        0.1191
     25 C          -2.8573  -20.2425   20.6574 C.ar    1  UNL1        0.1191
     26 N          -2.7069  -19.1220   21.6431 N.ar    1  UNL1       -0.2440
     27 C          -3.9212  -18.4064   22.1561 C.ar    1  UNL1        0.0885
     28 C          -3.7708  -17.2858   23.1419 C.3     1  UNL1        0.1164
     29 N          -4.9852  -16.5701   23.6549 N.3     1  UNL1       -0.2921
     30 H          -4.8703  -15.5856   23.4143 H       1  UNL1        0.1236
@<TRIPOS>BOND
     1    15    16    1
     2    16    14    1
     3    14    13    1
     4    13    12    1
     5    12     1    1
     6     1    19    1
     7    20    19    1
     8    20    21    1
     9    21    22    1
    10    22    23   ar
    11    23    24   ar
    12    24    25   ar
    13    25    26   ar
    14    26    27   ar
    15    27    28    1
    16    28    29    1
    17     2     1    1
    18     2     3    1
    19     3     4    1
    20     4     5    1
    21     5     6    1
    22     6     7   ar
    23     7     8   ar
    24     8     9   ar
    25     9    10   ar
    26    10    11   ar
    27    29    20    1
    28    11     2    1
    29    27    22   ar
    30    11     6   ar
    31    15    17    1
    32    15    18    1
    33    29    30    1
@<TRIPOS>MOLECULE
*****
 30 33 0 0 0
SMALL
GASTEIGER

@<TRIPOS>ATOM
      1 N          -8.0855  -19.6070   21.4268 N.3     1  UNL1       -0.2679
      2 C          -8.6941  -19.1978   22.7353 C.3     1  UNL1        0.0978
      3 C          -9.5348  -20.1703   23.5082 C.3     1  UNL1        0.0224
      4 C         -10.1434  -19.7611   24.8167 C.3     1  UNL1        0.0065
      5 C          -9.9112  -18.3794   25.3524 C.3     1  UNL1        0.0277
      6 C          -9.0705  -17.4070   24.5795 C.ar    1  UNL1       -0.0073
      7 C          -8.8382  -16.0252   25.1152 C.ar    1  UNL1       -0.0015
      8 C          -7.9975  -15.0527   24.3423 C.ar    1  UNL1        0.0203
      9 C          -7.3889  -15.4619   23.0338 C.ar    1  UNL1        0.0985
     10 N          -7.6211  -16.8436   22.4981 N.ar    1  UNL1       -0.2471
     11 C          -8.4619  -17.8161   23.2710 C.ar    1  UNL1        0.0695
     12 C          -8.8047  -19.3187   20.1424 C.3     1  UNL1        0.0725
     13 C          -8.2113  -19.7562   18.8360 C.3     1  UNL1        0.0187
     14 C          -8.1833  -21.2118   18.4750 C.3     1  UNL1        0.0183
     15 N          -9.2681  -21.3565   16.1186 N.3     1  UNL1       -0.3211
     16 C          -9.2270  -21.7772   17.5579 C.3     1  UNL1        0.0652
     17 H         -10.0348  -21.8354   15.6462 H       1  UNL1        0.1189
     18 H          -8.3860  -21.5999   15.6679 H       1  UNL1        0.1189
     19 C          -6.7578  -20.3045   21.4027 C.3     1  UNL1        0.0886
     20 C          -5.4895  -19.5038   21.4206 C.3     1  UNL1        0.0765
     21 C          -4.6065  -19.4703   20.2085 C.3     1  UNL1        0.0642
     22 C          -3.3381  -18.6696   20.2264 C.ar    1  UNL1        0.0753
     23 N          -2.4551  -18.6362   19.0144 N.ar    1  UNL1       -0.2452
     24 C          -1.1869  -17.8355   19.0324 C.ar    1  UNL1        0.1191
     25 C          -0.8016  -17.0682   20.2624 C.ar    1  UNL1        0.1191
     26 N          -1.6847  -17.1016   21.4744 N.ar    1  UNL1       -0.2440
     27 C          -2.9529  -17.9023   21.4565 C.ar    1  UNL1        0.0885
     28 C          -3.8360  -17.9358   22.6685 C.3     1  UNL1        0.1164
     29 N          -5.1043  -18.7365   22.6506 N.3     1  UNL1       -0.2921
     30 H          -5.8660  -18.0859   22.8424 H       1  UNL1        0.1236
@<TRIPOS>BOND
     1    15    16    1
     2    16    14    1
     3    14    13    1
     4    13    12    1
     5    12     1    1
     6     1    19    1
     7    20    19    1
     8    20    21    1
     9    21    22    1
    10    22    23   ar
    11    23    24   ar
    12    24    25   ar
    13    25    26   ar
    14    26    27   ar
    15    27    28    1
    16    28    29    1
    17     2     1    1
    18     2     3    1
    19     3     4    1
    20     4     5    1
    21     5     6    1
    22     6     7   ar
    23     7     8   ar
    24     8     9   ar
    25     9    10   ar
    26    10    11   ar
    27    29    20    1
    28    11     2    1
    29    27    22   ar
    30    11     6   ar
    31    15    17    1
    32    15    18    1
    33    29    30    1
@<TRIPOS>MOLECULE
*****
 30 33 0 0 0
SMALL
GASTEIGER

@<TRIPOS>ATOM
      1 N          -7.9041  -19.2725   20.6660 N.3     1  UNL1       -0.2679
      2 C          -8.2280  -18.2784   21.7416 C.3     1  UNL1        0.0978
      3 C          -7.8721  -16.8328   21.5586 C.3     1  UNL1        0.0224
      4 C          -8.1960  -15.8387   22.6341 C.3     1  UNL1        0.0065
      5 C          -8.8758  -16.2902   23.8927 C.3     1  UNL1        0.0277
      6 C          -9.2318  -17.7357   24.0756 C.ar    1  UNL1       -0.0073
      7 C          -9.9117  -18.1873   25.3342 C.ar    1  UNL1       -0.0015
      8 C         -10.2676  -19.6329   25.5172 C.ar    1  UNL1        0.0203
      9 C          -9.9437  -20.6270   24.4416 C.ar    1  UNL1        0.0985
     10 N          -9.2639  -20.1755   23.1831 N.ar    1  UNL1       -0.2471
     11 C          -8.9079  -18.7299   23.0001 C.ar    1  UNL1        0.0695
     12 C          -8.8312  -19.4441   19.4994 C.3     1  UNL1        0.0725
     13 C         -10.3147  -19.3480   19.6998 C.3     1  UNL1        0.0187
     14 C         -11.0057  -18.0236   19.5638 C.3     1  UNL1        0.0183
     15 N         -12.9318  -17.7332   21.2831 N.3     1  UNL1       -0.3211
     16 C         -11.5742  -17.3465   20.7755 C.3     1  UNL1        0.0652
     17 H         -13.1579  -17.1764   22.1072 H       1  UNL1        0.1189
     18 H         -12.9332  -18.7227   21.5304 H       1  UNL1        0.1189
     19 C          -6.6531  -20.0950   20.7571 C.3     1  UNL1        0.0886
     20 C          -5.3232  -19.4216   20.9244 C.3     1  UNL1        0.0765
     21 C          -4.3940  -19.2950   19.7537 C.3     1  UNL1        0.0642
     22 C          -3.0641  -18.6215   19.9211 C.ar    1  UNL1        0.0753
     23 N          -2.1350  -18.4949   18.7504 N.ar    1  UNL1       -0.2452
     24 C          -0.8051  -17.8215   18.9179 C.ar    1  UNL1        0.1191
     25 C          -0.4045  -17.2747   20.2560 C.ar    1  UNL1        0.1191
     26 N          -1.3337  -17.4014   21.4267 N.ar    1  UNL1       -0.2440
     27 C          -2.6635  -18.0748   21.2592 C.ar    1  UNL1        0.0885
     28 C          -3.5927  -18.2015   22.4300 C.3     1  UNL1        0.1164
     29 N          -4.9225  -18.8749   22.2625 N.3     1  UNL1       -0.2921
     30 H          -5.6333  -18.1927   22.5267 H       1  UNL1        0.1236
@<TRIPOS>BOND
     1    15    16    1
     2    16    14    1
     3    14    13    1
     4    13    12    1
     5    12     1    1
     6     1    19    1
     7    20    19    1
     8    20    21    1
     9    21    22    1
    10    22    23   ar
    11    23    24   ar
    12    24    25   ar
    13    25    26   ar
    14    26    27   ar
    15    27    28    1
    16    28    29    1
    17     2     1    1
    18     2     3    1
    19     3     4    1
    20     4     5    1
    21     5     6    1
    22     6     7   ar
    23     7     8   ar
    24     8     9   ar
    25     9    10   ar
    26    10    11   ar
    27    29    20    1
    28    11     2    1
    29    27    22   ar
    30    11     6   ar
    31    15    17    1
    32    15    18    1
    33    29    30    1
@<TRIPOS>MOLECULE
*****
 30 33 0 0 0
SMALL
GASTEIGER

@<TRIPOS>ATOM
      1 N          -7.7828  -18.8751   21.5163 N.3     1  UNL1       -0.2679
      2 C          -9.0423  -19.1023   22.2987 C.3     1  UNL1        0.0978
      3 C          -9.0585  -20.0965   23.4217 C.3     1  UNL1        0.0224
      4 C         -10.3179  -20.3237   24.2041 C.3     1  UNL1        0.0065
      5 C         -11.5611  -19.5566   23.8636 C.3     1  UNL1        0.0277
      6 C         -11.5449  -18.5624   22.7406 C.ar    1  UNL1       -0.0073
      7 C         -12.7881  -17.7952   22.4001 C.ar    1  UNL1       -0.0015
      8 C         -12.7719  -16.8010   21.2771 C.ar    1  UNL1        0.0203
      9 C         -11.5125  -16.5738   20.4946 C.ar    1  UNL1        0.0985
     10 N         -10.2693  -17.3409   20.8351 N.ar    1  UNL1       -0.2471
     11 C         -10.2855  -18.3352   21.9582 C.ar    1  UNL1        0.0695
     12 C          -7.2036  -19.9840   20.6888 C.3     1  UNL1        0.0725
     13 C          -5.9372  -19.7608   19.9165 C.3     1  UNL1        0.0187
     14 C          -4.6461  -20.3451   20.4079 C.3     1  UNL1        0.0183
     15 N          -4.1930  -19.4054   22.7873 N.3     1  UNL1       -0.3211
     16 C          -3.7818  -19.5651   21.3536 C.3     1  UNL1        0.0652
     17 H          -3.4941  -18.8509   23.2818 H       1  UNL1        0.1189
     18 H          -4.2688  -20.3243   23.2237 H       1  UNL1        0.1189
     19 C          -7.1026  -17.5390   21.5612 C.3     1  UNL1        0.0886
     20 C          -6.7860  -16.9026   22.8822 C.3     1  UNL1        0.0765
     21 C          -7.8900  -16.5930   23.8493 C.3     1  UNL1        0.0642
     22 C          -7.5734  -15.9566   25.1703 C.ar    1  UNL1        0.0753
     23 N          -8.6774  -15.6470   26.1374 N.ar    1  UNL1       -0.2452
     24 C          -8.3607  -15.0107   27.4583 C.ar    1  UNL1        0.1191
     25 C          -6.9401  -14.6840   27.8121 C.ar    1  UNL1        0.1191
     26 N          -5.8361  -14.9936   26.8450 N.ar    1  UNL1       -0.2440
     27 C          -6.1528  -15.6300   25.5241 C.ar    1  UNL1        0.0885
     28 C          -5.0488  -15.9396   24.5569 C.3     1  UNL1        0.1164
     29 N          -5.3654  -16.5760   23.2360 N.3     1  UNL1       -0.2921
     30 H          -4.8438  -17.4517   23.1985 H       1  UNL1        0.1236
@<TRIPOS>BOND
     1    15    16    1
     2    16    14    1
     3    14    13    1
     4    13    12    1
     5    12     1    1
     6     1    19    1
     7    20    19    1
     8    20    21    1
     9    21    22    1
    10    22    23   ar
    11    23    24   ar
    12    24    25   ar
    13    25    26   ar
    14    26    27   ar
    15    27    28    1
    16    28    29    1
    17     2     1    1
    18     2     3    1
    19     3     4    1
    20     4     5    1
    21     5     6    1
    22     6     7   ar
    23     7     8   ar
    24     8     9   ar
    25     9    10   ar
    26    10    11   ar
    27    29    20    1
    28    11     2    1
    29    27    22   ar
    30    11     6   ar
    31    15    17    1
    32    15    18    1
    33    29    30    1
@<TRIPOS>MOLECULE
*****
 30 33 0 0 0
SMALL
GASTEIGER

@<TRIPOS>ATOM
      1 N          -8.7586  -18.2594   22.8082 N.3     1  UNL1       -0.2679
      2 C          -8.6355  -17.7074   24.1975 C.3     1  UNL1        0.0978
      3 C          -9.5935  -18.1444   25.2658 C.3     1  UNL1        0.0224
      4 C          -9.4704  -17.5925   26.6551 C.3     1  UNL1        0.0065
      5 C          -8.3892  -16.6036   26.9762 C.3     1  UNL1        0.0277
      6 C          -7.4312  -16.1666   25.9079 C.ar    1  UNL1       -0.0073
      7 C          -6.3500  -15.1776   26.2289 C.ar    1  UNL1       -0.0015
      8 C          -5.3920  -14.7406   25.1607 C.ar    1  UNL1        0.0203
      9 C          -5.5152  -15.2925   23.7714 C.ar    1  UNL1        0.0985
     10 N          -6.5963  -16.2815   23.4503 N.ar    1  UNL1       -0.2471
     11 C          -7.5544  -16.7185   24.5186 C.ar    1  UNL1        0.0695
     12 C          -9.6668  -17.5963   21.8155 C.3     1  UNL1        0.0725
     13 C         -10.6638  -16.5748   22.2767 C.3     1  UNL1        0.0187
     14 C         -11.7312  -16.0923   21.3397 C.3     1  UNL1        0.0183
     15 N         -12.4972  -15.4533   18.9408 N.3     1  UNL1       -0.3211
     16 C         -11.4468  -15.9838   19.8710 C.3     1  UNL1        0.0652
     17 H         -12.1359  -15.4491   17.9869 H       1  UNL1        0.1189
     18 H         -12.7452  -14.5026   19.2147 H       1  UNL1        0.1189
     19 C          -7.9736  -19.4744   22.4116 C.3     1  UNL1        0.0886
     20 C          -6.6974  -19.3233   21.6379 C.3     1  UNL1        0.0765
     21 C          -5.4055  -19.0839   22.3615 C.3     1  UNL1        0.0642
     22 C          -4.1293  -18.9327   21.5877 C.ar    1  UNL1        0.0753
     23 N          -2.8374  -18.6933   22.3113 N.ar    1  UNL1       -0.2452
     24 C          -1.5613  -18.5422   21.5376 C.ar    1  UNL1        0.1191
     25 C          -1.5771  -18.6304   20.0403 C.ar    1  UNL1        0.1191
     26 N          -2.8690  -18.8698   19.3167 N.ar    1  UNL1       -0.2440
     27 C          -4.1451  -19.0209   20.0904 C.ar    1  UNL1        0.0885
     28 C          -5.4371  -19.2603   19.3668 C.3     1  UNL1        0.1164
     29 N          -6.7132  -19.4115   20.1406 N.3     1  UNL1       -0.2921
     30 H          -7.0945  -20.3273   19.9036 H       1  UNL1        0.1236
@<TRIPOS>BOND
     1    15    16    1
     2    16    14    1
     3    14    13    1
     4    13    12    1
     5    12     1    1
     6     1    19    1
     7    20    19    1
     8    20    21    1
     9    21    22    1
    10    22    23   ar
    11    23    24   ar
    12    24    25   ar
    13    25    26   ar
    14    26    27   ar
    15    27    28    1
    16    28    29    1
    17     2     1    1
    18     2     3    1
    19     3     4    1
    20     4     5    1
    21     5     6    1
    22     6     7   ar
    23     7     8   ar
    24     8     9   ar
    25     9    10   ar
    26    10    11   ar
    27    29    20    1
    28    11     2    1
    29    27    22   ar
    30    11     6   ar
    31    15    17    1
    32    15    18    1
    33    29    30    1
@<TRIPOS>MOLECULE
*****
 30 33 0 0 0
SMALL
GASTEIGER

@<TRIPOS>ATOM
      1 N          -8.3862  -18.0616   22.2007 N.3     1  UNL1       -0.2679
      2 C          -8.4638  -17.6504   23.6411 C.3     1  UNL1        0.0978
      3 C          -9.5832  -18.1514   24.5048 C.3     1  UNL1        0.0224
      4 C          -9.6608  -17.7402   25.9453 C.3     1  UNL1        0.0065
      5 C          -8.6191  -16.8279   26.5220 C.3     1  UNL1        0.0277
      6 C          -7.4998  -16.3269   25.6583 C.ar    1  UNL1       -0.0073
      7 C          -6.4581  -15.4146   26.2350 C.ar    1  UNL1       -0.0015
      8 C          -5.3387  -14.9135   25.3713 C.ar    1  UNL1        0.0203
      9 C          -5.2611  -15.3248   23.9308 C.ar    1  UNL1        0.0985
     10 N          -6.3028  -16.2370   23.3541 N.ar    1  UNL1       -0.2471
     11 C          -7.4222  -16.7381   24.2178 C.ar    1  UNL1        0.0695
     12 C          -9.1234  -17.2773   21.1560 C.3     1  UNL1        0.0725
     13 C         -10.6079  -17.0916   21.2660 C.3     1  UNL1        0.0187
     14 C         -11.5367  -18.1346   20.7190 C.3     1  UNL1        0.0183
     15 N         -10.9737  -20.2364   22.1387 N.3     1  UNL1       -0.3211
     16 C         -11.1664  -19.5859   20.8009 C.3     1  UNL1        0.0652
     17 H         -10.7272  -21.2174   22.0074 H       1  UNL1        0.1189
     18 H         -11.8385  -20.1721   22.6758 H       1  UNL1        0.1189
     19 C          -7.5714  -19.2571   21.8049 C.3     1  UNL1        0.0886
     20 C          -6.0838  -19.1348   21.6553 C.3     1  UNL1        0.0765
     21 C          -5.4944  -18.7094   20.3432 C.3     1  UNL1        0.0642
     22 C          -4.0069  -18.5870   20.1937 C.ar    1  UNL1        0.0753
     23 N          -3.4175  -18.1617   18.8816 N.ar    1  UNL1       -0.2452
     24 C          -1.9300  -18.0394   18.7321 C.ar    1  UNL1        0.1191
     25 C          -1.0319  -18.3424   19.8947 C.ar    1  UNL1        0.1191
     26 N          -1.6213  -18.7677   21.2067 N.ar    1  UNL1       -0.2440
     27 C          -3.1088  -18.8901   21.3563 C.ar    1  UNL1        0.0885
     28 C          -3.6982  -19.3154   22.6684 C.3     1  UNL1        0.1164
     29 N          -5.1857  -19.4378   22.8179 N.3     1  UNL1       -0.2921
     30 H          -5.4586  -18.8082   23.5727 H       1  UNL1        0.1236
@<TRIPOS>BOND
     1    15    16    1
     2    16    14    1
     3    14    13    1
     4    13    12    1
     5    12     1    1
     6     1    19    1
     7    20    19    1
     8    20    21    1
     9    21    22    1
    10    22    23   ar
    11    23    24   ar
    12    24    25   ar
    13    25    26   ar
    14    26    27   ar
    15    27    28    1
    16    28    29    1
    17     2     1    1
    18     2     3    1
    19     3     4    1
    20     4     5    1
    21     5     6    1
    22     6     7   ar
    23     7     8   ar
    24     8     9   ar
    25     9    10   ar
    26    10    11   ar
    27    29    20    1
    28    11     2    1
    29    27    22   ar
    30    11     6   ar
    31    15    17    1
    32    15    18    1
    33    29    30    1
