@<TRIPOS>MOLECULE
*****
 56 63 0 0 0
SMALL
GASTEIGER

@<TRIPOS>ATOM
      1 C           7.1901   -4.1134   23.4035 C.ar    1  UNL1        0.1090
      2 C           7.5662   -5.1415   24.4290 C.ar    1  UNL1        0.0405
      3 C           8.3094   -6.3769   24.0150 C.ar    1  UNL1        0.1596
      4 F           8.6855   -7.4050   25.0405 F       1  UNL1       -0.2025
      5 C           8.6765   -6.5843   22.5755 C.ar    1  UNL1        0.1316
      6 N           8.3003   -5.5562   21.5499 N.ar    1  UNL1       -0.2073
      7 C           7.5572   -4.3208   21.9639 C.ar    1  UNL1        0.2341
      8 N           4.9655   -2.9350   24.0457 N.am    1  UNL1       -0.3024
      9 C           6.4470   -2.8780   23.8176 C.2     1  UNL1        0.2504
     10 O           7.1853   -1.5856   24.0035 O.2     1  UNL1       -0.2700
     11 H           4.4809   -3.7833   23.9236 H       1  UNL1        0.1497
     12 C           2.7360    0.7713   25.2878 C.3     1  UNL1        0.0720
     13 C           3.5971    0.0463   26.2793 C.3     1  UNL1        0.0213
     14 C           4.3402   -1.1891   25.8653 C.3     1  UNL1        0.0213
     15 C           4.2223   -1.6996   24.4597 C.3     1  UNL1        0.0720
     16 C           3.3613   -0.9746   23.4682 C.3     1  UNL1        0.0213
     17 C           2.6182    0.2608   23.8823 C.3     1  UNL1        0.0213
     18 C           0.9694    1.9350   26.7960 C.2     1  UNL1        0.2651
     19 O           0.6890    0.6278   27.4761 O.2     1  UNL1       -0.2684
     20 N           1.9929    2.0067   25.7018 N.am    1  UNL1       -0.3012
     21 H           2.1769    2.8647   25.2554 H       1  UNL1        0.1497
     22 C           0.1949    6.3866   30.6258 C.3     1  UNL1        0.0504
     23 C          -0.6830    6.2640   29.4158 C.ar    1  UNL1        0.0432
     24 C          -1.7656    7.2726   29.1693 C.ar    1  UNL1        0.0132
     25 C          -2.6435    7.1501   27.9592 C.ar    1  UNL1        0.0043
     26 C          -2.4389    6.0189   26.9957 C.ar    1  UNL1        0.0374
     27 C          -1.3564    5.0103   27.2421 C.ar    1  UNL1        0.1477
     28 N          -0.9208    3.7974   26.4745 N.ar    1  UNL1       -0.2218
     29 C           0.2262    3.1704   27.2100 C.ar    1  UNL1        0.1535
     30 C           0.4996    3.9958   28.4323 C.ar    1  UNL1        0.1050
     31 N          -0.4784    5.1329   28.4522 N.ar    1  UNL1       -0.2925
     32 O           7.1811   -3.2928   20.9385 O.3     1  UNL1       -0.4360
     33 C           5.8174   -3.3200   20.3144 C.ar    1  UNL1        0.1472
     34 C           5.2702   -4.6033   19.7634 C.ar    1  UNL1        0.0376
     35 C           3.9064   -4.6305   19.1393 C.ar    1  UNL1        0.0031
     36 C           3.0899   -3.3744   19.0661 C.ar    1  UNL1        0.0002
     37 C           3.6371   -2.0910   19.6171 C.ar    1  UNL1        0.0030
     38 C           5.0008   -2.0638   20.2412 C.ar    1  UNL1        0.0376
     39 C           2.8206   -0.8348   19.5439 C.ar    1  UNL1        0.0001
     40 C           3.3699    0.3776   18.8524 C.ar    1  UNL1       -0.0003
     41 C           2.5534    1.6337   18.7793 C.ar    1  UNL1       -0.0029
     42 C           1.1875    1.6774   19.3976 C.ar    1  UNL1       -0.0061
     43 C           0.6381    0.4650   20.0891 C.ar    1  UNL1       -0.0029
     44 C           1.4546   -0.7911   20.1623 C.ar    1  UNL1       -0.0003
     45 C           0.3709    2.9336   19.3244 C.3     1  UNL1        0.0991
     46 N          -0.7496    3.1574   20.2962 N.3     1  UNL1       -0.2689
     47 C          -0.4537    3.3205   21.7576 C.3     1  UNL1        0.0738
     48 C          -1.5742    3.5443   22.7293 C.3     1  UNL1        0.0333
     49 C          -2.9908    3.6050   22.2396 C.3     1  UNL1        0.0603
     50 C          -3.2867    3.4419   20.7782 C.3     1  UNL1        0.0333
     51 C          -2.1661    3.2181   19.8064 C.3     1  UNL1        0.0738
     52 N          -4.1113    3.8289   23.2113 N.3     1  UNL1       -0.2739
     53 C          -5.4940    4.2992   22.8695 C.3     1  UNL1        0.0721
     54 C          -6.2831    4.3827   24.1424 C.3     1  UNL1        0.0188
     55 C          -5.3881    3.9639   25.2710 C.3     1  UNL1        0.0188
     56 C          -4.0459    3.6216   24.6955 C.3     1  UNL1        0.0721
@<TRIPOS>BOND
     1    22    23    1
     2    23    24   ar
     3    24    25   ar
     4    25    26   ar
     5    26    27   ar
     6    27    28   ar
     7    28    29   ar
     8    29    18    1
     9    18    19    2
    10    18    20   am
    11    12    20    1
    12    12    13    1
    13    13    14    1
    14    14    15    1
    15    15     8    1
    16     8     9   am
    17     9    10    2
    18     9     1    1
    19     1     2   ar
    20     2     3   ar
    21     3     4    1
    22     3     5   ar
    23     5     6   ar
    24     6     7   ar
    25     7    32    1
    26    32    33    1
    27    33    34   ar
    28    34    35   ar
    29    35    36   ar
    30    36    37   ar
    31    37    39    1
    32    39    40   ar
    33    40    41   ar
    34    41    42   ar
    35    42    45    1
    36    45    46    1
    37    46    47    1
    38    47    48    1
    39    48    49    1
    40    49    52    1
    41    52    53    1
    42    53    54    1
    43    54    55    1
    44    55    56    1
    45    49    50    1
    46    50    51    1
    47    42    43   ar
    48    43    44   ar
    49    37    38   ar
    50    15    16    1
    51    16    17    1
    52    29    30   ar
    53    30    31   ar
    54    31    23   ar
    55    31    27   ar
    56    17    12    1
    57     7     1   ar
    58    38    33   ar
    59    44    39   ar
    60    51    46    1
    61    56    52    1
    62    20    21    1
    63     8    11    1
@<TRIPOS>MOLECULE
*****
 56 63 0 0 0
SMALL
GASTEIGER

@<TRIPOS>ATOM
      1 C          -6.0790    5.1053   23.3903 C.ar    1  UNL1        0.1090
      2 C          -6.9102    5.9483   22.4692 C.ar    1  UNL1        0.0405
      3 C          -8.1030    6.6868   23.0000 C.ar    1  UNL1        0.1596
      4 F          -8.9341    7.5298   22.0788 F       1  UNL1       -0.2025
      5 C          -8.4646    6.5824   24.4520 C.ar    1  UNL1        0.1316
      6 N          -7.6334    5.7394   25.3732 N.ar    1  UNL1       -0.2073
      7 C          -6.4406    5.0008   24.8424 C.ar    1  UNL1        0.2341
      8 N          -3.5496    5.0449   22.8001 N.am    1  UNL1       -0.3024
      9 C          -4.8862    4.3667   22.8594 C.2     1  UNL1        0.2504
     10 O          -5.0301    2.9501   22.3880 O.2     1  UNL1       -0.2700
     11 H          -3.4552    5.9748   23.1095 H       1  UNL1        0.1497
     12 C           0.0288    2.8293   21.2076 C.3     1  UNL1        0.0720
     13 C          -0.9235    3.4959   20.2595 C.3     1  UNL1        0.0213
     14 C          -2.1163    4.2345   20.7903 C.3     1  UNL1        0.0213
     15 C          -2.3568    4.3064   22.2693 C.3     1  UNL1        0.0720
     16 C          -1.4045    3.6398   23.2172 C.3     1  UNL1        0.0213
     17 C          -0.2117    2.9012   22.6864 C.3     1  UNL1        0.0213
     18 C           1.1232    0.6244   20.3764 C.2     1  UNL1        0.2651
     19 O          -0.1679   -0.1033   20.6070 O.2     1  UNL1       -0.2684
     20 N           1.2216    2.0907   20.6767 N.am    1  UNL1       -0.3012
     21 H           2.0691    2.5684   20.5254 H       1  UNL1        0.1497
     22 C           3.8848   -4.4993   19.2784 C.3     1  UNL1        0.0504
     23 C           4.5347   -3.1948   18.9237 C.ar    1  UNL1        0.0432
     24 C           5.8926   -3.1821   18.2866 C.ar    1  UNL1        0.0132
     25 C           6.5424   -1.8775   17.9319 C.ar    1  UNL1        0.0043
     26 C           5.8344   -0.5857   18.2143 C.ar    1  UNL1        0.0374
     27 C           4.4765   -0.5984   18.8513 C.ar    1  UNL1        0.1477
     28 N           3.5429    0.5071   19.2466 N.ar    1  UNL1       -0.2218
     29 C           2.3160   -0.1141   19.8456 C.ar    1  UNL1        0.1535
     30 C           2.4914   -1.6036   19.8205 C.ar    1  UNL1        0.1050
     31 N           3.8266   -1.9029   19.2061 N.ar    1  UNL1       -0.2925
     32 O          -5.6095    4.1578   25.7635 O.3     1  UNL1       -0.4360
     33 C          -4.2622    4.6414   26.2116 C.ar    1  UNL1        0.1472
     34 C          -4.0079    6.1110   26.3717 C.ar    1  UNL1        0.0376
     35 C          -2.6605    6.5946   26.8198 C.ar    1  UNL1        0.0031
     36 C          -1.5675    5.6086   27.1077 C.ar    1  UNL1        0.0002
     37 C          -1.8217    4.1390   26.9476 C.ar    1  UNL1        0.0030
     38 C          -3.1690    3.6554   26.4995 C.ar    1  UNL1        0.0376
     39 C          -0.7285    3.1530   27.2355 C.ar    1  UNL1        0.0001
     40 C           0.7009    3.6065   27.2688 C.ar    1  UNL1       -0.0003
     41 C           1.7940    2.6205   27.5567 C.ar    1  UNL1       -0.0029
     42 C           1.4577    1.1810   27.8113 C.ar    1  UNL1       -0.0061
     43 C           0.0283    0.7276   27.7780 C.ar    1  UNL1       -0.0029
     44 C          -1.0648    1.7136   27.4901 C.ar    1  UNL1       -0.0003
     45 C           2.5508    0.1950   28.0993 C.3     1  UNL1        0.0991
     46 N           3.3332   -0.4081   26.9706 N.3     1  UNL1       -0.2689
     47 C           2.9502   -0.1131   25.5506 C.3     1  UNL1        0.0738
     48 C           3.7326   -0.7162   24.4220 C.3     1  UNL1        0.0333
     49 C           4.8981   -1.6145   24.7132 C.3     1  UNL1        0.0603
     50 C           5.2812   -1.9095   26.1331 C.3     1  UNL1        0.0333
     51 C           4.4987   -1.3063   27.2618 C.3     1  UNL1        0.0738
     52 N           5.6806   -2.2176   23.5845 N.3     1  UNL1       -0.2739
     53 C           6.3530   -1.4634   22.4759 C.3     1  UNL1        0.0721
     54 C           7.0160   -2.4605   21.5724 C.3     1  UNL1        0.0188
     55 C           6.7532   -3.8310   22.1226 C.3     1  UNL1        0.0188
     56 C           5.9279   -3.6809   23.3661 C.3     1  UNL1        0.0721
@<TRIPOS>BOND
     1    22    23    1
     2    23    24   ar
     3    24    25   ar
     4    25    26   ar
     5    26    27   ar
     6    27    28   ar
     7    28    29   ar
     8    29    18    1
     9    18    19    2
    10    18    20   am
    11    12    20    1
    12    12    13    1
    13    13    14    1
    14    14    15    1
    15    15     8    1
    16     8     9   am
    17     9    10    2
    18     9     1    1
    19     1     2   ar
    20     2     3   ar
    21     3     4    1
    22     3     5   ar
    23     5     6   ar
    24     6     7   ar
    25     7    32    1
    26    32    33    1
    27    33    34   ar
    28    34    35   ar
    29    35    36   ar
    30    36    37   ar
    31    37    39    1
    32    39    40   ar
    33    40    41   ar
    34    41    42   ar
    35    42    45    1
    36    45    46    1
    37    46    47    1
    38    47    48    1
    39    48    49    1
    40    49    52    1
    41    52    53    1
    42    53    54    1
    43    54    55    1
    44    55    56    1
    45    49    50    1
    46    50    51    1
    47    42    43   ar
    48    43    44   ar
    49    37    38   ar
    50    15    16    1
    51    16    17    1
    52    29    30   ar
    53    30    31   ar
    54    31    23   ar
    55    31    27   ar
    56    17    12    1
    57     7     1   ar
    58    38    33   ar
    59    44    39   ar
    60    51    46    1
    61    56    52    1
    62    20    21    1
    63     8    11    1
@<TRIPOS>MOLECULE
*****
 56 63 0 0 0
SMALL
GASTEIGER

@<TRIPOS>ATOM
      1 C           0.7702    2.8900   20.4500 C.ar    1  UNL1        0.1090
      2 C           0.4510    4.3142   20.1041 C.ar    1  UNL1        0.0405
      3 C          -0.0910    4.6531   18.7471 C.ar    1  UNL1        0.1596
      4 F          -0.4103    6.0774   18.4013 F       1  UNL1       -0.2025
      5 C          -0.3138    3.5677   17.7361 C.ar    1  UNL1        0.1316
      6 N           0.0054    2.1434   18.0819 N.ar    1  UNL1       -0.2073
      7 C           0.5475    1.8046   19.4389 C.ar    1  UNL1        0.2341
      8 N           0.7906    1.3543   22.5456 N.am    1  UNL1       -0.3024
      9 C           1.3123    2.5512   21.8070 C.2     1  UNL1        0.2504
     10 O           2.3759    3.4092   22.4254 O.2     1  UNL1       -0.2700
     11 H           0.0925    0.7912   22.1397 H       1  UNL1        0.1497
     12 C           2.4166    0.3378   26.6165 C.3     1  UNL1        0.0720
     13 C           1.1475    1.1276   26.4916 C.3     1  UNL1        0.0213
     14 C           0.6055    1.4664   25.1346 C.3     1  UNL1        0.0213
     15 C           1.3326    1.0155   23.9025 C.3     1  UNL1        0.0720
     16 C           2.6017    0.2257   24.0275 C.3     1  UNL1        0.0213
     17 C           3.1437   -0.1131   25.3845 C.3     1  UNL1        0.0213
     18 C           3.5702    1.0710   28.8260 C.2     1  UNL1        0.2651
     19 O           3.6397    2.4818   28.3214 O.2     1  UNL1       -0.2684
     20 N           2.9587   -0.0011   27.9735 N.am    1  UNL1       -0.3012
     21 H           2.9130   -0.9271   28.3046 H       1  UNL1        0.1497
     22 C           8.0678    1.0919   32.6803 C.3     1  UNL1        0.0504
     23 C           6.7417    0.5046   33.0633 C.ar    1  UNL1        0.0432
     24 C           6.5481   -0.0825   34.4299 C.ar    1  UNL1        0.0132
     25 C           5.2221   -0.6699   34.8129 C.ar    1  UNL1        0.0043
     26 C           4.0897   -0.6701   33.8293 C.ar    1  UNL1        0.0374
     27 C           4.2833   -0.0830   32.4626 C.ar    1  UNL1        0.1477
     28 N           3.3580    0.0578   31.2904 N.ar    1  UNL1       -0.2218
     29 C           4.1122    0.7321   30.1829 C.ar    1  UNL1        0.1535
     30 C           5.5036    1.0081   30.6707 C.ar    1  UNL1        0.1050
     31 N           5.6093    0.5043   32.0796 N.ar    1  UNL1       -0.2925
     32 O           0.8667    0.3804   19.7848 O.3     1  UNL1       -0.4360
     33 C           2.1832   -0.2129   19.3790 C.ar    1  UNL1        0.1472
     34 C           2.7153    0.0178   17.9956 C.ar    1  UNL1        0.0376
     35 C           4.0319   -0.5756   17.5899 C.ar    1  UNL1        0.0031
     36 C           4.8163   -1.3996   18.5674 C.ar    1  UNL1        0.0002
     37 C           4.2843   -1.6302   19.9508 C.ar    1  UNL1        0.0030
     38 C           2.9678   -1.0369   20.3566 C.ar    1  UNL1        0.0376
     39 C           5.0688   -2.4543   20.9283 C.ar    1  UNL1        0.0001
     40 C           4.5078   -2.7380   22.2902 C.ar    1  UNL1       -0.0003
     41 C           5.2923   -3.5620   23.2677 C.ar    1  UNL1       -0.0029
     42 C           6.6378   -4.1023   22.8833 C.ar    1  UNL1       -0.0061
     43 C           7.1988   -3.8185   21.5214 C.ar    1  UNL1       -0.0029
     44 C           6.4143   -2.9945   20.5440 C.ar    1  UNL1       -0.0003
     45 C           7.4224   -4.9263   23.8609 C.3     1  UNL1        0.0991
     46 N           7.2538   -4.7037   25.3346 N.3     1  UNL1       -0.2689
     47 C           7.5939   -3.3722   25.9357 C.3     1  UNL1        0.0738
     48 C           7.4254   -3.1496   27.4095 C.3     1  UNL1        0.0333
     49 C           6.9167   -4.2585   28.2822 C.3     1  UNL1        0.0603
     50 C           6.5766   -5.5900   27.6811 C.3     1  UNL1        0.0333
     51 C           6.7451   -5.8126   26.2072 C.3     1  UNL1        0.0738
     52 N           6.7482   -4.0359   29.7560 N.3     1  UNL1       -0.2739
     53 C           6.3372   -2.7512   30.4122 C.3     1  UNL1        0.0721
     54 C           6.2961   -2.9802   31.8941 C.3     1  UNL1        0.0188
     55 C           6.6815   -4.4064   32.1537 C.3     1  UNL1        0.0188
     56 C           6.9609   -5.0589   30.8322 C.3     1  UNL1        0.0721
@<TRIPOS>BOND
     1    22    23    1
     2    23    24   ar
     3    24    25   ar
     4    25    26   ar
     5    26    27   ar
     6    27    28   ar
     7    28    29   ar
     8    29    18    1
     9    18    19    2
    10    18    20   am
    11    12    20    1
    12    12    13    1
    13    13    14    1
    14    14    15    1
    15    15     8    1
    16     8     9   am
    17     9    10    2
    18     9     1    1
    19     1     2   ar
    20     2     3   ar
    21     3     4    1
    22     3     5   ar
    23     5     6   ar
    24     6     7   ar
    25     7    32    1
    26    32    33    1
    27    33    34   ar
    28    34    35   ar
    29    35    36   ar
    30    36    37   ar
    31    37    39    1
    32    39    40   ar
    33    40    41   ar
    34    41    42   ar
    35    42    45    1
    36    45    46    1
    37    46    47    1
    38    47    48    1
    39    48    49    1
    40    49    52    1
    41    52    53    1
    42    53    54    1
    43    54    55    1
    44    55    56    1
    45    49    50    1
    46    50    51    1
    47    42    43   ar
    48    43    44   ar
    49    37    38   ar
    50    15    16    1
    51    16    17    1
    52    29    30   ar
    53    30    31   ar
    54    31    23   ar
    55    31    27   ar
    56    17    12    1
    57     7     1   ar
    58    38    33   ar
    59    44    39   ar
    60    51    46    1
    61    56    52    1
    62    20    21    1
    63     8    11    1
@<TRIPOS>MOLECULE
*****
 56 63 0 0 0
SMALL
GASTEIGER

@<TRIPOS>ATOM
      1 C           6.9895   -4.1519   23.6967 C.ar    1  UNL1        0.1090
      2 C           7.2695   -5.2081   24.7243 C.ar    1  UNL1        0.0405
      3 C           8.0318   -6.4424   24.3427 C.ar    1  UNL1        0.1596
      4 F           8.3118   -7.4986   25.3704 F       1  UNL1       -0.2025
      5 C           8.5141   -6.6204   22.9336 C.ar    1  UNL1        0.1316
      6 N           8.2341   -5.5642   21.9059 N.ar    1  UNL1       -0.2073
      7 C           7.4718   -4.3299   22.2875 C.ar    1  UNL1        0.2341
      8 N           4.7333   -2.8883   23.9468 N.am    1  UNL1       -0.3024
      9 C           6.2273   -2.9177   24.0782 C.2     1  UNL1        0.2504
     10 O           6.9589   -1.7129   24.5911 O.2     1  UNL1       -0.2700
     11 H           4.2531   -3.6790   23.6102 H       1  UNL1        0.1497
     12 C           2.4465    0.8145   25.0914 C.3     1  UNL1        0.0720
     13 C           3.2509    0.0809   26.1233 C.3     1  UNL1        0.0213
     14 C           4.0132   -1.1534   25.7418 C.3     1  UNL1        0.0213
     15 C           3.9710   -1.6540   24.3284 C.3     1  UNL1        0.0720
     16 C           3.1666   -0.9204   23.2966 C.3     1  UNL1        0.0213
     17 C           2.4043    0.3139   23.6781 C.3     1  UNL1        0.0213
     18 C           0.3304    1.9280   26.1073 C.2     1  UNL1        0.2651
     19 O          -0.2612    0.5730   26.3601 O.2     1  UNL1       -0.2684
     20 N           1.6842    2.0488   25.4730 N.am    1  UNL1       -0.3012
     21 H           2.0725    2.9381   25.3070 H       1  UNL1        0.1497
     22 C          -4.8472    4.7064   26.8545 C.3     1  UNL1        0.0504
     23 C          -3.5561    5.4184   27.1305 C.ar    1  UNL1        0.0432
     24 C          -3.5707    6.8433   27.5988 C.ar    1  UNL1        0.0132
     25 C          -2.2797    7.5554   27.8747 C.ar    1  UNL1        0.0043
     26 C          -0.9740    6.8426   27.6823 C.ar    1  UNL1        0.0374
     27 C          -0.9594    5.4177   27.2139 C.ar    1  UNL1        0.1477
     28 N           0.1645    4.4638   26.9363 N.ar    1  UNL1       -0.2218
     29 C          -0.4319    3.1623   26.4888 C.ar    1  UNL1        0.1535
     30 C          -1.9244    3.3117   26.4899 C.ar    1  UNL1        0.1050
     31 N          -2.2505    4.7056   26.9380 N.ar    1  UNL1       -0.2925
     32 O           7.1918   -3.2737   21.2599 O.3     1  UNL1       -0.4360
     33 C           5.8746   -3.2558   20.5425 C.ar    1  UNL1        0.1472
     34 C           5.2975   -4.5305   20.0021 C.ar    1  UNL1        0.0376
     35 C           3.9802   -4.5125   19.2847 C.ar    1  UNL1        0.0031
     36 C           3.2402   -3.2199   19.1078 C.ar    1  UNL1        0.0002
     37 C           3.8173   -1.9452   19.6482 C.ar    1  UNL1        0.0030
     38 C           5.1345   -1.9631   20.3656 C.ar    1  UNL1        0.0376
     39 C           3.0772   -0.6525   19.4712 C.ar    1  UNL1        0.0001
     40 C           3.7671    0.5286   18.8556 C.ar    1  UNL1       -0.0003
     41 C           3.0270    1.8212   18.6787 C.ar    1  UNL1       -0.0029
     42 C           1.5969    1.9327   19.1174 C.ar    1  UNL1       -0.0061
     43 C           0.9069    0.7516   19.7330 C.ar    1  UNL1       -0.0029
     44 C           1.6471   -0.5409   19.9099 C.ar    1  UNL1       -0.0003
     45 C           0.8568    3.2254   18.9404 C.3     1  UNL1        0.0991
     46 N          -0.3985    3.4837   19.7198 N.3     1  UNL1       -0.2689
     47 C          -1.7354    3.3606   19.0509 C.3     1  UNL1        0.0738
     48 C          -2.9907    3.6189   19.8303 C.3     1  UNL1        0.0333
     49 C          -2.9090    4.0003   21.2788 C.3     1  UNL1        0.0603
     50 C          -1.5721    4.1235   21.9477 C.3     1  UNL1        0.0333
     51 C          -0.3168    3.8651   21.1682 C.3     1  UNL1        0.0738
     52 N          -4.1643    4.2587   22.0582 N.3     1  UNL1       -0.2739
     53 C          -4.5097    5.5287   22.7776 C.3     1  UNL1        0.0721
     54 C          -5.8534    5.3473   23.4191 C.3     1  UNL1        0.0188
     55 C          -6.3385    3.9651   23.0961 C.3     1  UNL1        0.0188
     56 C          -5.2945    3.2923   22.2550 C.3     1  UNL1        0.0721
@<TRIPOS>BOND
     1    22    23    1
     2    23    24   ar
     3    24    25   ar
     4    25    26   ar
     5    26    27   ar
     6    27    28   ar
     7    28    29   ar
     8    29    18    1
     9    18    19    2
    10    18    20   am
    11    12    20    1
    12    12    13    1
    13    13    14    1
    14    14    15    1
    15    15     8    1
    16     8     9   am
    17     9    10    2
    18     9     1    1
    19     1     2   ar
    20     2     3   ar
    21     3     4    1
    22     3     5   ar
    23     5     6   ar
    24     6     7   ar
    25     7    32    1
    26    32    33    1
    27    33    34   ar
    28    34    35   ar
    29    35    36   ar
    30    36    37   ar
    31    37    39    1
    32    39    40   ar
    33    40    41   ar
    34    41    42   ar
    35    42    45    1
    36    45    46    1
    37    46    47    1
    38    47    48    1
    39    48    49    1
    40    49    52    1
    41    52    53    1
    42    53    54    1
    43    54    55    1
    44    55    56    1
    45    49    50    1
    46    50    51    1
    47    42    43   ar
    48    43    44   ar
    49    37    38   ar
    50    15    16    1
    51    16    17    1
    52    29    30   ar
    53    30    31   ar
    54    31    23   ar
    55    31    27   ar
    56    17    12    1
    57     7     1   ar
    58    38    33   ar
    59    44    39   ar
    60    51    46    1
    61    56    52    1
    62    20    21    1
    63     8    11    1
@<TRIPOS>MOLECULE
*****
 56 63 0 0 0
SMALL
GASTEIGER

@<TRIPOS>ATOM
      1 C          -6.0199    4.9104   23.1175 C.ar    1  UNL1        0.1090
      2 C          -6.7166    5.7726   22.1070 C.ar    1  UNL1        0.0405
      3 C          -7.9075    6.5898   22.5119 C.ar    1  UNL1        0.1596
      4 F          -8.6042    7.4520   21.5013 F       1  UNL1       -0.2025
      5 C          -8.4017    6.5448   23.9274 C.ar    1  UNL1        0.1316
      6 N          -7.7050    5.6825   24.9380 N.ar    1  UNL1       -0.2073
      7 C          -6.5142    4.8654   24.5331 C.ar    1  UNL1        0.2341
      8 N          -3.5226    4.7678   22.4152 N.am    1  UNL1       -0.3024
      9 C          -4.8290    4.0932   22.7125 C.2     1  UNL1        0.2504
     10 O          -4.9445    2.6016   22.6049 O.2     1  UNL1       -0.2700
     11 H          -3.4468    5.7468   22.4859 H       1  UNL1        0.1497
     12 C           0.0501    2.3162   21.2004 C.3     1  UNL1        0.0720
     13 C          -0.1309    2.7187   22.6340 C.3     1  UNL1        0.0213
     14 C          -1.3218    3.5359   23.0390 C.3     1  UNL1        0.0213
     15 C          -2.3317    3.9506   22.0103 C.3     1  UNL1        0.0720
     16 C          -2.1507    3.5481   20.5767 C.3     1  UNL1        0.0213
     17 C          -0.9598    2.7309   20.1717 C.3     1  UNL1        0.0213
     18 C           2.5218    2.1790   20.4120 C.2     1  UNL1        0.2651
     19 O           2.6118    3.6761   20.4335 O.2     1  UNL1       -0.2684
     20 N           1.2410    1.4991   20.7954 N.am    1  UNL1       -0.3012
     21 H           1.1819    0.5164   20.7813 H       1  UNL1        0.1497
     22 C           7.7965   -0.1666   21.7390 C.3     1  UNL1        0.0504
     23 C           7.1866   -0.3850   20.3861 C.ar    1  UNL1        0.0432
     24 C           7.9129   -1.2019   19.3589 C.ar    1  UNL1        0.0132
     25 C           7.3030   -1.4202   18.0060 C.ar    1  UNL1        0.0043
     26 C           5.9668   -0.8218   17.6803 C.ar    1  UNL1        0.0374
     27 C           5.2404   -0.0049   18.7074 C.ar    1  UNL1        0.1477
     28 N           3.9193    0.7048   18.6745 N.ar    1  UNL1       -0.2218
     29 C           3.7127    1.3618   20.0070 C.ar    1  UNL1        0.1535
     30 C           4.9061    1.0582   20.8635 C.ar    1  UNL1        0.1050
     31 N           5.8503    0.2135   20.0603 N.ar    1  UNL1       -0.2925
     32 O          -5.8175    4.0032   25.5436 O.3     1  UNL1       -0.4360
     33 C          -4.5535    4.4820   26.1940 C.ar    1  UNL1        0.1472
     34 C          -4.5136    5.8278   26.8553 C.ar    1  UNL1        0.0376
     35 C          -3.2496    6.3067   27.5057 C.ar    1  UNL1        0.0031
     36 C          -2.0255    5.4398   27.4948 C.ar    1  UNL1        0.0002
     37 C          -2.0654    4.0940   26.8335 C.ar    1  UNL1        0.0030
     38 C          -3.3294    3.6151   26.1831 C.ar    1  UNL1        0.0376
     39 C          -0.8413    3.2271   26.8226 C.ar    1  UNL1        0.0001
     40 C           0.4798    3.8002   26.4029 C.ar    1  UNL1       -0.0003
     41 C           1.7039    2.9333   26.3920 C.ar    1  UNL1       -0.0029
     42 C           1.6068    1.4933   26.8009 C.ar    1  UNL1       -0.0061
     43 C           0.2857    0.9203   27.2206 C.ar    1  UNL1       -0.0029
     44 C          -0.9384    1.7872   27.2315 C.ar    1  UNL1       -0.0003
     45 C           2.8309    0.6264   26.7900 C.3     1  UNL1        0.0991
     46 N           3.1905   -0.1481   25.5569 N.3     1  UNL1       -0.2689
     47 C           4.2843   -1.1733   25.6074 C.3     1  UNL1        0.0738
     48 C           4.6439   -1.9478   24.3742 C.3     1  UNL1        0.0333
     49 C           3.9096   -1.6973   23.0904 C.3     1  UNL1        0.0603
     50 C           2.8157   -0.6721   23.0399 C.3     1  UNL1        0.0333
     51 C           2.4562    0.1025   24.2731 C.3     1  UNL1        0.0738
     52 N           4.2691   -2.4718   21.8573 N.3     1  UNL1       -0.2739
     53 C           3.4869   -2.5054   20.5779 C.3     1  UNL1        0.0721
     54 C           4.2083   -3.4031   19.6169 C.3     1  UNL1        0.0188
     55 C           5.4366   -3.9244   20.3023 C.3     1  UNL1        0.0188
     56 C           5.4741   -3.3488   21.6870 C.3     1  UNL1        0.0721
@<TRIPOS>BOND
     1    22    23    1
     2    23    24   ar
     3    24    25   ar
     4    25    26   ar
     5    26    27   ar
     6    27    28   ar
     7    28    29   ar
     8    29    18    1
     9    18    19    2
    10    18    20   am
    11    12    20    1
    12    12    13    1
    13    13    14    1
    14    14    15    1
    15    15     8    1
    16     8     9   am
    17     9    10    2
    18     9     1    1
    19     1     2   ar
    20     2     3   ar
    21     3     4    1
    22     3     5   ar
    23     5     6   ar
    24     6     7   ar
    25     7    32    1
    26    32    33    1
    27    33    34   ar
    28    34    35   ar
    29    35    36   ar
    30    36    37   ar
    31    37    39    1
    32    39    40   ar
    33    40    41   ar
    34    41    42   ar
    35    42    45    1
    36    45    46    1
    37    46    47    1
    38    47    48    1
    39    48    49    1
    40    49    52    1
    41    52    53    1
    42    53    54    1
    43    54    55    1
    44    55    56    1
    45    49    50    1
    46    50    51    1
    47    42    43   ar
    48    43    44   ar
    49    37    38   ar
    50    15    16    1
    51    16    17    1
    52    29    30   ar
    53    30    31   ar
    54    31    23   ar
    55    31    27   ar
    56    17    12    1
    57     7     1   ar
    58    38    33   ar
    59    44    39   ar
    60    51    46    1
    61    56    52    1
    62    20    21    1
    63     8    11    1
@<TRIPOS>MOLECULE
*****
 56 63 0 0 0
SMALL
GASTEIGER

@<TRIPOS>ATOM
      1 C           3.4800    2.3448   34.5543 C.ar    1  UNL1        0.1090
      2 C           2.3423    3.0687   35.2112 C.ar    1  UNL1        0.0405
      3 C           2.3745    3.3339   36.6872 C.ar    1  UNL1        0.1596
      4 F           1.2367    4.0578   37.3441 F       1  UNL1       -0.2025
      5 C           3.5443    2.8751   37.5063 C.ar    1  UNL1        0.1316
      6 N           4.6821    2.1512   36.8494 N.ar    1  UNL1       -0.2073
      7 C           4.6499    1.8860   35.3734 C.ar    1  UNL1        0.2341
      8 N           2.4905    1.0696   32.5184 N.am    1  UNL1       -0.3024
      9 C           3.4478    2.0796   33.0782 C.2     1  UNL1        0.2504
     10 O           4.3729    2.8244   32.1621 O.2     1  UNL1       -0.2700
     11 H           1.8833    0.5807   33.1197 H       1  UNL1        0.1497
     12 C           2.3939    0.2740   28.0903 C.3     1  UNL1        0.0720
     13 C           3.2320   -0.5865   28.9888 C.3     1  UNL1        0.0213
     14 C           3.2641   -0.3213   30.4648 C.3     1  UNL1        0.0213
     15 C           2.4583    0.8044   31.0424 C.3     1  UNL1        0.0720
     16 C           1.6203    1.6649   30.1438 C.3     1  UNL1        0.0213
     17 C           1.5882    1.3997   28.6678 C.3     1  UNL1        0.0213
     18 C           3.5345    0.3866   25.7587 C.2     1  UNL1        0.2651
     19 O           4.7393    1.0295   26.3791 O.2     1  UNL1       -0.2684
     20 N           2.3618    0.0089   26.6143 N.am    1  UNL1       -0.3012
     21 H           1.5710   -0.4131   26.2071 H       1  UNL1        0.1497
     22 C           6.3988   -0.1442   20.6013 C.3     1  UNL1        0.0504
     23 C           4.9119   -0.3302   20.6672 C.ar    1  UNL1        0.0432
     24 C           4.1405   -0.6529   19.4219 C.ar    1  UNL1        0.0132
     25 C           2.6536   -0.8390   19.4877 C.ar    1  UNL1        0.0043
     26 C           1.9380   -0.7024   20.7989 C.ar    1  UNL1        0.0374
     27 C           2.7093   -0.3797   22.0442 C.ar    1  UNL1        0.1477
     28 N           2.2804   -0.1850   23.4683 N.ar    1  UNL1       -0.2218
     29 C           3.5023    0.1214   24.2827 C.ar    1  UNL1        0.1535
     30 C           4.6863    0.1161   23.3618 C.ar    1  UNL1        0.1050
     31 N           4.1963   -0.1936   21.9783 N.ar    1  UNL1       -0.2925
     32 O           5.7876    1.1621   34.7164 O.3     1  UNL1       -0.4360
     33 C           5.5444   -0.1465   34.0249 C.ar    1  UNL1        0.1472
     34 C           4.5603   -1.1246   34.5951 C.ar    1  UNL1        0.0376
     35 C           4.3171   -2.4333   33.9035 C.ar    1  UNL1        0.0031
     36 C           5.0580   -2.7639   32.6419 C.ar    1  UNL1        0.0002
     37 C           6.0420   -1.7859   32.0717 C.ar    1  UNL1        0.0030
     38 C           6.2852   -0.4772   32.7632 C.ar    1  UNL1        0.0376
     39 C           6.7829   -2.1166   30.8100 C.ar    1  UNL1        0.0001
     40 C           7.0062   -3.5490   30.4249 C.ar    1  UNL1       -0.0003
     41 C           7.7470   -3.8796   29.1632 C.ar    1  UNL1       -0.0029
     42 C           8.2646   -2.7778   28.2867 C.ar    1  UNL1       -0.0061
     43 C           8.0413   -1.3454   28.6719 C.ar    1  UNL1       -0.0029
     44 C           7.3005   -1.0148   29.9335 C.ar    1  UNL1       -0.0003
     45 C           9.0054   -3.1085   27.0250 C.3     1  UNL1        0.0991
     46 N           8.2541   -3.2887   25.7394 N.3     1  UNL1       -0.2689
     47 C           8.1190   -2.1415   24.7825 C.3     1  UNL1        0.0738
     48 C           7.3676   -2.3217   23.4968 C.3     1  UNL1        0.0333
     49 C           6.7513   -3.6491   23.1680 C.3     1  UNL1        0.0603
     50 C           6.8864   -4.7964   24.1249 C.3     1  UNL1        0.0333
     51 C           7.6378   -4.6161   25.4106 C.3     1  UNL1        0.0738
     52 N           5.9999   -3.8293   21.8824 N.3     1  UNL1       -0.2739
     53 C           6.6045   -3.9140   20.5123 C.3     1  UNL1        0.0721
     54 C           5.4903   -4.0935   19.5242 C.3     1  UNL1        0.0188
     55 C           4.1970   -4.1198   20.2837 C.3     1  UNL1        0.0188
     56 C           4.5120   -3.9565   21.7411 C.3     1  UNL1        0.0721
@<TRIPOS>BOND
     1    22    23    1
     2    23    24   ar
     3    24    25   ar
     4    25    26   ar
     5    26    27   ar
     6    27    28   ar
     7    28    29   ar
     8    29    18    1
     9    18    19    2
    10    18    20   am
    11    12    20    1
    12    12    13    1
    13    13    14    1
    14    14    15    1
    15    15     8    1
    16     8     9   am
    17     9    10    2
    18     9     1    1
    19     1     2   ar
    20     2     3   ar
    21     3     4    1
    22     3     5   ar
    23     5     6   ar
    24     6     7   ar
    25     7    32    1
    26    32    33    1
    27    33    34   ar
    28    34    35   ar
    29    35    36   ar
    30    36    37   ar
    31    37    39    1
    32    39    40   ar
    33    40    41   ar
    34    41    42   ar
    35    42    45    1
    36    45    46    1
    37    46    47    1
    38    47    48    1
    39    48    49    1
    40    49    52    1
    41    52    53    1
    42    53    54    1
    43    54    55    1
    44    55    56    1
    45    49    50    1
    46    50    51    1
    47    42    43   ar
    48    43    44   ar
    49    37    38   ar
    50    15    16    1
    51    16    17    1
    52    29    30   ar
    53    30    31   ar
    54    31    23   ar
    55    31    27   ar
    56    17    12    1
    57     7     1   ar
    58    38    33   ar
    59    44    39   ar
    60    51    46    1
    61    56    52    1
    62    20    21    1
    63     8    11    1
@<TRIPOS>MOLECULE
*****
 56 63 0 0 0
SMALL
GASTEIGER

@<TRIPOS>ATOM
      1 C           1.5518    3.2365   31.9055 C.ar    1  UNL1        0.1090
      2 C           0.2542    3.9177   32.2251 C.ar    1  UNL1        0.0405
      3 C           0.1358    4.7658   33.4567 C.ar    1  UNL1        0.1596
      4 F          -1.1619    5.4470   33.7763 F       1  UNL1       -0.2025
      5 C           1.3150    4.9327   34.3686 C.ar    1  UNL1        0.1316
      6 N           2.6126    4.2515   34.0490 N.ar    1  UNL1       -0.2073
      7 C           2.7310    3.4034   32.8174 C.ar    1  UNL1        0.2341
      8 N           2.7822    2.6346   29.6978 N.am    1  UNL1       -0.3024
      9 C           1.6701    2.3883   30.6740 C.2     1  UNL1        0.2504
     10 O           0.6766    1.2940   30.4186 O.2     1  UNL1       -0.2700
     11 H           3.4343    3.3528   29.8654 H       1  UNL1        0.1497
     12 C           3.1374    0.0902   26.0032 C.3     1  UNL1        0.0720
     13 C           2.2740    1.3168   25.9890 C.3     1  UNL1        0.0213
     14 C           2.1556    2.1649   27.2205 C.3     1  UNL1        0.0213
     15 C           2.9006    1.7865   28.4663 C.3     1  UNL1        0.0720
     16 C           3.7639    0.5599   28.4805 C.3     1  UNL1        0.0213
     17 C           3.8823   -0.2882   27.2489 C.3     1  UNL1        0.0213
     18 C           4.3409   -0.4831   23.7733 C.2     1  UNL1        0.2651
     19 O           5.3077    0.6398   24.0064 O.2     1  UNL1       -0.2684
     20 N           3.2558   -0.7579   24.7717 N.am    1  UNL1       -0.3012
     21 H           2.6212   -1.4949   24.6187 H       1  UNL1        0.1497
     22 C           5.8292   -1.0198   18.0653 C.3     1  UNL1        0.0504
     23 C           5.2866   -2.1953   18.8227 C.ar    1  UNL1        0.0432
     24 C           5.1178   -3.5176   18.1349 C.ar    1  UNL1        0.0132
     25 C           4.5752   -4.6931   18.8923 C.ar    1  UNL1        0.0043
     26 C           4.2014   -4.5464   20.3375 C.ar    1  UNL1        0.0374
     27 C           4.3702   -3.2242   21.0253 C.ar    1  UNL1        0.1477
     28 N           4.0899   -2.7808   22.4306 N.ar    1  UNL1       -0.2218
     29 C           4.4593   -1.3312   22.5417 C.ar    1  UNL1        0.1535
     30 C           4.9679   -0.8788   21.2051 C.ar    1  UNL1        0.1050
     31 N           4.9128   -2.0486   20.2679 N.ar    1  UNL1       -0.2925
     32 O           4.0286    2.7222   32.4978 O.3     1  UNL1       -0.4360
     33 C           4.3228    1.3650   33.0649 C.ar    1  UNL1        0.1472
     34 C           4.0188    1.0716   34.5042 C.ar    1  UNL1        0.0376
     35 C           4.3130   -0.2856   35.0713 C.ar    1  UNL1        0.0031
     36 C           4.9111   -1.3493   34.1991 C.ar    1  UNL1        0.0002
     37 C           5.2150   -1.0559   32.7598 C.ar    1  UNL1        0.0030
     38 C           4.9209    0.3012   32.1927 C.ar    1  UNL1        0.0376
     39 C           5.8132   -2.1197   31.8876 C.ar    1  UNL1        0.0001
     40 C           6.2895   -3.4064   32.4938 C.ar    1  UNL1       -0.0003
     41 C           6.8876   -4.4701   31.6216 C.ar    1  UNL1       -0.0029
     42 C           7.0094   -4.2471   30.1433 C.ar    1  UNL1       -0.0061
     43 C           6.5331   -2.9604   29.5371 C.ar    1  UNL1       -0.0029
     44 C           5.9350   -1.8967   30.4093 C.ar    1  UNL1       -0.0003
     45 C           7.6075   -5.3109   29.2711 C.3     1  UNL1        0.0991
     46 N           7.7726   -5.0695   27.7999 N.3     1  UNL1       -0.2689
     47 C           6.6975   -5.4956   26.8446 C.3     1  UNL1        0.0738
     48 C           6.8626   -5.2542   25.3734 C.3     1  UNL1        0.0333
     49 C           8.1029   -4.5865   24.8575 C.3     1  UNL1        0.0603
     50 C           9.1779   -4.1603   25.8128 C.3     1  UNL1        0.0333
     51 C           9.0128   -4.4018   27.2840 C.3     1  UNL1        0.0738
     52 N           8.2680   -4.3450   23.3863 N.3     1  UNL1       -0.2739
     53 C           7.7395   -3.1680   22.6213 C.3     1  UNL1        0.0721
     54 C           8.1354   -3.3337   21.1840 C.3     1  UNL1        0.0188
     55 C           8.9087   -4.6132   21.0607 C.3     1  UNL1        0.0188
     56 C           8.9906   -5.2382   22.4219 C.3     1  UNL1        0.0721
@<TRIPOS>BOND
     1    22    23    1
     2    23    24   ar
     3    24    25   ar
     4    25    26   ar
     5    26    27   ar
     6    27    28   ar
     7    28    29   ar
     8    29    18    1
     9    18    19    2
    10    18    20   am
    11    12    20    1
    12    12    13    1
    13    13    14    1
    14    14    15    1
    15    15     8    1
    16     8     9   am
    17     9    10    2
    18     9     1    1
    19     1     2   ar
    20     2     3   ar
    21     3     4    1
    22     3     5   ar
    23     5     6   ar
    24     6     7   ar
    25     7    32    1
    26    32    33    1
    27    33    34   ar
    28    34    35   ar
    29    35    36   ar
    30    36    37   ar
    31    37    39    1
    32    39    40   ar
    33    40    41   ar
    34    41    42   ar
    35    42    45    1
    36    45    46    1
    37    46    47    1
    38    47    48    1
    39    48    49    1
    40    49    52    1
    41    52    53    1
    42    53    54    1
    43    54    55    1
    44    55    56    1
    45    49    50    1
    46    50    51    1
    47    42    43   ar
    48    43    44   ar
    49    37    38   ar
    50    15    16    1
    51    16    17    1
    52    29    30   ar
    53    30    31   ar
    54    31    23   ar
    55    31    27   ar
    56    17    12    1
    57     7     1   ar
    58    38    33   ar
    59    44    39   ar
    60    51    46    1
    61    56    52    1
    62    20    21    1
    63     8    11    1
@<TRIPOS>MOLECULE
*****
 56 63 0 0 0
SMALL
GASTEIGER

@<TRIPOS>ATOM
      1 C           1.4091    4.9298   33.9286 C.ar    1  UNL1        0.1090
      2 C           0.1646    5.6927   34.2737 C.ar    1  UNL1        0.0405
      3 C           0.0344    6.3473   35.6171 C.ar    1  UNL1        0.1596
      4 F          -1.2102    7.1102   35.9622 F       1  UNL1       -0.2025
      5 C           1.1487    6.2389   36.6153 C.ar    1  UNL1        0.1316
      6 N           2.3933    5.4760   36.2702 N.ar    1  UNL1       -0.2073
      7 C           2.5235    4.8215   34.9269 C.ar    1  UNL1        0.2341
      8 N           1.5112    2.7797   32.4738 N.am    1  UNL1       -0.3024
      9 C           1.5393    4.2753   32.5852 C.2     1  UNL1        0.2504
     10 O           1.6977    5.1163   31.3534 O.2     1  UNL1       -0.2700
     11 H           1.4072    2.2277   33.2823 H       1  UNL1        0.1497
     12 C           1.9017    0.8160   28.4437 C.3     1  UNL1        0.0720
     13 C           3.0666    0.8268   29.3888 C.3     1  UNL1        0.0213
     14 C           2.9364    1.4814   30.7321 C.3     1  UNL1        0.0213
     15 C           1.6414    2.1251   31.1304 C.3     1  UNL1        0.0720
     16 C           0.4766    2.1143   30.1854 C.3     1  UNL1        0.0213
     17 C           0.6068    1.4598   28.8420 C.3     1  UNL1        0.0213
     18 C           2.4802    0.9643   25.9152 C.2     1  UNL1        0.2651
     19 O           2.7984    2.4215   26.0734 O.2     1  UNL1       -0.2684
     20 N           2.0319    0.1615   27.1003 N.am    1  UNL1       -0.3012
     21 H           1.8232   -0.7950   26.9965 H       1  UNL1        0.1497
     22 C           0.6065    0.3507   20.3298 C.3     1  UNL1        0.0504
     23 C           1.7650   -0.4568   20.8355 C.ar    1  UNL1        0.0432
     24 C           2.4570   -1.4274   19.9250 C.ar    1  UNL1        0.0132
     25 C           3.6156   -2.2349   20.4307 C.ar    1  UNL1        0.0043
     26 C           4.0821   -2.0719   21.8470 C.ar    1  UNL1        0.0374
     27 C           3.3901   -1.1013   22.7574 C.ar    1  UNL1        0.1477
     28 N           3.6242   -0.7283   24.1913 N.ar    1  UNL1       -0.2218
     29 C           2.6104    0.3097   24.5718 C.ar    1  UNL1        0.1535
     30 C           1.7497    0.5783   23.3731 C.ar    1  UNL1        0.1050
     31 N           2.2315   -0.2938   22.2517 N.ar    1  UNL1       -0.2925
     32 O           3.7680    4.0586   34.5817 O.3     1  UNL1       -0.4360
     33 C           4.0136    2.7095   35.1898 C.ar    1  UNL1        0.1472
     34 C           3.7117    2.4744   36.6401 C.ar    1  UNL1        0.0376
     35 C           3.9573    1.1252   37.2482 C.ar    1  UNL1        0.0031
     36 C           4.5047    0.0113   36.4058 C.ar    1  UNL1        0.0002
     37 C           4.8065    0.2465   34.9554 C.ar    1  UNL1        0.0030
     38 C           4.5610    1.5956   34.3474 C.ar    1  UNL1        0.0376
     39 C           5.3539   -0.8675   34.1131 C.ar    1  UNL1        0.0001
     40 C           6.7892   -0.8431   33.6781 C.ar    1  UNL1       -0.0003
     41 C           7.3366   -1.9571   32.8358 C.ar    1  UNL1       -0.0029
     42 C           6.4486   -3.0953   32.4285 C.ar    1  UNL1       -0.0061
     43 C           5.0133   -3.1196   32.8634 C.ar    1  UNL1       -0.0029
     44 C           4.4660   -2.0057   33.7057 C.ar    1  UNL1       -0.0003
     45 C           6.9960   -4.2093   31.5861 C.3     1  UNL1        0.0991
     46 N           7.0179   -4.0786   30.0920 N.3     1  UNL1       -0.2689
     47 C           6.6242   -5.2425   29.2315 C.3     1  UNL1        0.0738
     48 C           6.6461   -5.1118   27.7374 C.3     1  UNL1        0.0333
     49 C           7.0618   -3.8173   27.1037 C.3     1  UNL1        0.0603
     50 C           7.4556   -2.6535   27.9642 C.3     1  UNL1        0.0333
     51 C           7.4336   -2.7842   29.4584 C.3     1  UNL1        0.0738
     52 N           7.0837   -3.6867   25.6096 N.3     1  UNL1       -0.2739
     53 C           7.1674   -2.4031   24.8379 C.3     1  UNL1        0.0721
     54 C           7.1612   -2.7398   23.3762 C.3     1  UNL1        0.0188
     55 C           7.0736   -4.2315   23.2445 C.3     1  UNL1        0.0188
     56 C           7.0257   -4.8166   24.6248 C.3     1  UNL1        0.0721
@<TRIPOS>BOND
     1    22    23    1
     2    23    24   ar
     3    24    25   ar
     4    25    26   ar
     5    26    27   ar
     6    27    28   ar
     7    28    29   ar
     8    29    18    1
     9    18    19    2
    10    18    20   am
    11    12    20    1
    12    12    13    1
    13    13    14    1
    14    14    15    1
    15    15     8    1
    16     8     9   am
    17     9    10    2
    18     9     1    1
    19     1     2   ar
    20     2     3   ar
    21     3     4    1
    22     3     5   ar
    23     5     6   ar
    24     6     7   ar
    25     7    32    1
    26    32    33    1
    27    33    34   ar
    28    34    35   ar
    29    35    36   ar
    30    36    37   ar
    31    37    39    1
    32    39    40   ar
    33    40    41   ar
    34    41    42   ar
    35    42    45    1
    36    45    46    1
    37    46    47    1
    38    47    48    1
    39    48    49    1
    40    49    52    1
    41    52    53    1
    42    53    54    1
    43    54    55    1
    44    55    56    1
    45    49    50    1
    46    50    51    1
    47    42    43   ar
    48    43    44   ar
    49    37    38   ar
    50    15    16    1
    51    16    17    1
    52    29    30   ar
    53    30    31   ar
    54    31    23   ar
    55    31    27   ar
    56    17    12    1
    57     7     1   ar
    58    38    33   ar
    59    44    39   ar
    60    51    46    1
    61    56    52    1
    62    20    21    1
    63     8    11    1
@<TRIPOS>MOLECULE
*****
 56 63 0 0 0
SMALL
GASTEIGER

@<TRIPOS>ATOM
      1 C          -0.0799    2.6699   19.6243 C.ar    1  UNL1        0.1090
      2 C           0.4508    3.1609   18.3101 C.ar    1  UNL1        0.0405
      3 C          -0.1954    4.3315   17.6304 C.ar    1  UNL1        0.1596
      4 F           0.3354    4.8225   16.3161 F       1  UNL1       -0.2025
      5 C          -1.3724    5.0112   18.2649 C.ar    1  UNL1        0.1316
      6 N          -1.9033    4.5202   19.5792 N.ar    1  UNL1       -0.2073
      7 C          -1.2570    3.3495   20.2589 C.ar    1  UNL1        0.2341
      8 N           1.9908    1.5922   20.7648 N.am    1  UNL1       -0.3024
      9 C           0.5663    1.4993   20.3040 C.2     1  UNL1        0.2504
     10 O          -0.2118    0.2357   20.5228 O.2     1  UNL1       -0.2700
     11 H           2.5015    2.4216   20.6212 H       1  UNL1        0.1497
     12 C           3.9296   -1.9197   22.8039 C.3     1  UNL1        0.0720
     13 C           3.8856   -1.8526   21.3060 C.3     1  UNL1        0.0213
     14 C           3.2393   -0.6820   20.6263 C.3     1  UNL1        0.0213
     15 C           2.6371    0.4216   21.4445 C.3     1  UNL1        0.0720
     16 C           2.6811    0.3545   22.9423 C.3     1  UNL1        0.0213
     17 C           3.3274   -0.8161   23.6220 C.3     1  UNL1        0.0213
     18 C           6.0092   -3.0078   23.9179 C.2     1  UNL1        0.2651
     19 O           6.7962   -1.7547   23.6726 O.2     1  UNL1       -0.2684
     20 N           4.5758   -3.0903   23.4836 N.am    1  UNL1       -0.3012
     21 H           4.0592   -3.9128   23.6445 H       1  UNL1        0.1497
     22 C           7.5526   -5.8037   28.9065 C.3     1  UNL1        0.0504
     23 C           7.8811   -6.3987   27.5693 C.ar    1  UNL1        0.0432
     24 C           8.6050   -7.7100   27.4893 C.ar    1  UNL1        0.0132
     25 C           8.9335   -8.3050   26.1522 C.ar    1  UNL1        0.0043
     26 C           8.5381   -7.5887   24.8950 C.ar    1  UNL1        0.0374
     27 C           7.8142   -6.2774   24.9750 C.ar    1  UNL1        0.1477
     28 N           7.3011   -5.3479   23.9153 N.ar    1  UNL1       -0.2218
     29 C           6.6554   -4.1785   24.5976 C.ar    1  UNL1        0.1535
     30 C           6.7695   -4.3852   26.0789 C.ar    1  UNL1        0.1050
     31 N           7.4857   -5.6824   26.3121 N.ar    1  UNL1       -0.2925
     32 O          -1.7878    2.8585   21.5731 O.3     1  UNL1       -0.4360
     33 C          -1.2753    3.4449   22.8551 C.ar    1  UNL1        0.1472
     34 C          -1.3004    4.9301   23.0633 C.ar    1  UNL1        0.0376
     35 C          -0.7879    5.5165   24.3454 C.ar    1  UNL1        0.0031
     36 C          -0.2504    4.6175   25.4191 C.ar    1  UNL1        0.0002
     37 C          -0.2252    3.1323   25.2109 C.ar    1  UNL1        0.0030
     38 C          -0.7377    2.5460   23.9289 C.ar    1  UNL1        0.0376
     39 C           0.3124    2.2334   26.2847 C.ar    1  UNL1        0.0001
     40 C          -0.6264    1.5780   27.2538 C.ar    1  UNL1       -0.0003
     41 C          -0.0887    0.6792   28.3275 C.ar    1  UNL1       -0.0029
     42 C           1.3877    0.4356   28.4321 C.ar    1  UNL1       -0.0061
     43 C           2.3264    1.0909   27.4630 C.ar    1  UNL1       -0.0029
     44 C           1.7888    1.9898   26.3893 C.ar    1  UNL1       -0.0003
     45 C           1.9253   -0.4633   29.5059 C.3     1  UNL1        0.0991
     46 N           2.3069    0.1068   30.8398 N.3     1  UNL1       -0.2689
     47 C           1.6937    1.3928   31.3090 C.3     1  UNL1        0.0738
     48 C           2.0754    1.9629   32.6429 C.3     1  UNL1        0.0333
     49 C           3.0702    1.2470   33.5077 C.3     1  UNL1        0.0603
     50 C           3.6834   -0.0391   33.0385 C.3     1  UNL1        0.0333
     51 C           3.3017   -0.6092   31.7045 C.3     1  UNL1        0.0738
     52 N           3.4518    1.8170   34.8415 N.3     1  UNL1       -0.2739
     53 C           3.1429    3.2013   35.3297 C.3     1  UNL1        0.0721
     54 C           3.7095    3.3428   36.7113 C.3     1  UNL1        0.0188
     55 C           4.3687    2.0459   37.0771 C.3     1  UNL1        0.0188
     56 C           4.2094    1.1030   35.9215 C.3     1  UNL1        0.0721
@<TRIPOS>BOND
     1    22    23    1
     2    23    24   ar
     3    24    25   ar
     4    25    26   ar
     5    26    27   ar
     6    27    28   ar
     7    28    29   ar
     8    29    18    1
     9    18    19    2
    10    18    20   am
    11    12    20    1
    12    12    13    1
    13    13    14    1
    14    14    15    1
    15    15     8    1
    16     8     9   am
    17     9    10    2
    18     9     1    1
    19     1     2   ar
    20     2     3   ar
    21     3     4    1
    22     3     5   ar
    23     5     6   ar
    24     6     7   ar
    25     7    32    1
    26    32    33    1
    27    33    34   ar
    28    34    35   ar
    29    35    36   ar
    30    36    37   ar
    31    37    39    1
    32    39    40   ar
    33    40    41   ar
    34    41    42   ar
    35    42    45    1
    36    45    46    1
    37    46    47    1
    38    47    48    1
    39    48    49    1
    40    49    52    1
    41    52    53    1
    42    53    54    1
    43    54    55    1
    44    55    56    1
    45    49    50    1
    46    50    51    1
    47    42    43   ar
    48    43    44   ar
    49    37    38   ar
    50    15    16    1
    51    16    17    1
    52    29    30   ar
    53    30    31   ar
    54    31    23   ar
    55    31    27   ar
    56    17    12    1
    57     7     1   ar
    58    38    33   ar
    59    44    39   ar
    60    51    46    1
    61    56    52    1
    62    20    21    1
    63     8    11    1
