@<TRIPOS>MOLECULE
*****
 27 30 0 0 0
SMALL
GASTEIGER

@<TRIPOS>ATOM
      1 C          -4.3552  -16.7259   23.7309 C.ar    1  UNL1        0.0192
      2 C          -4.0842  -17.3244   25.0793 C.ar    1  UNL1        0.0047
      3 C          -4.7712  -16.7762   26.2949 C.ar    1  UNL1        0.0369
      4 C          -5.7292  -15.6297   26.1621 C.ar    1  UNL1        0.1386
      5 C          -6.0003  -15.0313   24.8135 C.ar    1  UNL1        0.0369
      6 C          -5.3133  -15.5793   23.5980 C.ar    1  UNL1        0.0047
      7 C          -0.4735  -16.5273   20.2823 C.3     1  UNL1        0.1571
      8 N          -1.7274  -17.1747   20.7910 N.ar    1  UNL1       -0.2149
      9 N          -2.4144  -16.6267   22.0066 N.ar    1  UNL1       -0.1671
     10 C          -3.6682  -17.2740   22.5153 C.ar    1  UNL1        0.0968
     11 C          -4.2351  -18.4693   21.8084 C.ar    1  UNL1       -0.0022
     12 C          -3.5481  -19.0174   20.5927 C.ar    1  UNL1        0.0329
     13 C          -2.2943  -18.3701   20.0840 C.ar    1  UNL1        0.2721
     14 O          -1.6072  -18.9181   18.8684 O.2     1  UNL1       -0.2659
     15 C          -4.3356  -20.1986   20.1082 C.3     1  UNL1        0.0313
     16 C          -5.5093  -20.3805   21.0244 C.3     1  UNL1        0.0095
     17 C          -5.4472  -19.3118   22.0751 C.3     1  UNL1        0.0281
     18 O          -6.4162  -15.0817   27.3776 O.3     1  UNL1       -0.4754
     19 C          -7.8899  -15.2902   27.5643 C.3     1  UNL1        0.2068
     20 C          -8.5682  -16.4651   26.9245 C.3     1  UNL1        0.0646
     21 C          -9.0830  -16.3603   25.5194 C.3     1  UNL1        0.0759
     22 N          -9.3001  -17.6016   24.7058 N.3     1  UNL1       -0.2726
     23 C          -9.9844  -18.7886   25.3166 C.3     1  UNL1        0.0721
     24 C         -10.2015  -20.0298   24.5031 C.3     1  UNL1        0.0174
     25 C          -9.7345  -20.0843   23.0787 C.3     1  UNL1        0.0029
     26 C          -9.0503  -18.8974   22.4679 C.3     1  UNL1        0.0174
     27 C          -8.8331  -17.6560   23.2814 C.3     1  UNL1        0.0721
@<TRIPOS>BOND
     1     7     8    1
     2     8     9   ar
     3     9    10   ar
     4    10     1    1
     5     1     2   ar
     6     2     3   ar
     7     3     4   ar
     8     4    18    1
     9    18    19    1
    10    19    20    1
    11    20    21    1
    12    21    22    1
    13    22    23    1
    14    23    24    1
    15    24    25    1
    16    25    26    1
    17    26    27    1
    18     4     5   ar
    19     5     6   ar
    20    10    11   ar
    21    11    12   ar
    22    12    13   ar
    23    13    14    2
    24    12    15    1
    25    15    16    1
    26    16    17    1
    27    13     8   ar
    28     6     1   ar
    29    17    11    1
    30    27    22    1
@<TRIPOS>MOLECULE
*****
 27 30 0 0 0
SMALL
GASTEIGER

@<TRIPOS>ATOM
      1 C          -6.9892  -18.1862   22.7607 C.ar    1  UNL1        0.0192
      2 C          -7.4253  -16.8048   23.1498 C.ar    1  UNL1        0.0047
      3 C          -8.7875  -16.5864   23.7388 C.ar    1  UNL1        0.0369
      4 C          -9.7136  -17.7494   23.9386 C.ar    1  UNL1        0.1386
      5 C          -9.2774  -19.1309   23.5494 C.ar    1  UNL1        0.0369
      6 C          -7.9153  -19.3493   22.9605 C.ar    1  UNL1        0.0047
      7 C          -2.0237  -16.7435   22.2492 C.3     1  UNL1        0.1571
      8 N          -3.1444  -17.6833   21.9160 N.ar    1  UNL1       -0.2149
      9 N          -4.5064  -17.4649   22.5049 N.ar    1  UNL1       -0.1671
     10 C          -5.6271  -18.4046   22.1718 C.ar    1  UNL1        0.0968
     11 C          -5.3856  -19.5629   21.2497 C.ar    1  UNL1       -0.0022
     12 C          -4.0234  -19.7813   20.6608 C.ar    1  UNL1        0.0329
     13 C          -2.9028  -18.8415   20.9939 C.ar    1  UNL1        0.2721
     14 O          -1.5406  -19.0599   20.4050 O.2     1  UNL1       -0.2659
     15 C          -4.0852  -21.0008   19.7896 C.3     1  UNL1        0.0313
     16 C          -5.4855  -21.5360   19.8400 C.3     1  UNL1        0.0095
     17 C          -6.2892  -20.6474   20.7425 C.3     1  UNL1        0.0281
     18 O         -11.0757  -17.5310   24.5274 O.3     1  UNL1       -0.4754
     19 C         -12.1897  -18.4858   24.2153 C.3     1  UNL1        0.2068
     20 C         -13.4053  -18.0053   23.4797 C.3     1  UNL1        0.0646
     21 C         -13.3668  -17.8499   21.9882 C.3     1  UNL1        0.0759
     22 N         -12.1136  -18.1778   21.2322 N.3     1  UNL1       -0.2726
     23 C         -11.7237  -19.6094   21.0115 C.3     1  UNL1        0.0721
     24 C         -10.4705  -19.9375   20.2555 C.3     1  UNL1        0.0174
     25 C          -9.6070  -18.8340   19.7199 C.3     1  UNL1        0.0029
     26 C          -9.9969  -17.4024   19.9405 C.3     1  UNL1        0.0174
     27 C         -11.2501  -17.0743   20.6966 C.3     1  UNL1        0.0721
@<TRIPOS>BOND
     1     7     8    1
     2     8     9   ar
     3     9    10   ar
     4    10     1    1
     5     1     2   ar
     6     2     3   ar
     7     3     4   ar
     8     4    18    1
     9    18    19    1
    10    19    20    1
    11    20    21    1
    12    21    22    1
    13    22    23    1
    14    23    24    1
    15    24    25    1
    16    25    26    1
    17    26    27    1
    18     4     5   ar
    19     5     6   ar
    20    10    11   ar
    21    11    12   ar
    22    12    13   ar
    23    13    14    2
    24    12    15    1
    25    15    16    1
    26    16    17    1
    27    13     8   ar
    28     6     1   ar
    29    17    11    1
    30    27    22    1
@<TRIPOS>MOLECULE
*****
 27 30 0 0 0
SMALL
GASTEIGER

@<TRIPOS>ATOM
      1 C          -7.5004  -18.9252   21.3131 C.ar    1  UNL1        0.0192
      2 C          -7.1324  -19.3871   19.9343 C.ar    1  UNL1        0.0047
      3 C          -5.7221  -19.8001   19.6332 C.ar    1  UNL1        0.0369
      4 C          -4.6799  -19.7512   20.7109 C.ar    1  UNL1        0.1386
      5 C          -5.0480  -19.2892   22.0898 C.ar    1  UNL1        0.0369
      6 C          -6.4582  -18.8763   22.3909 C.ar    1  UNL1        0.0047
      7 C         -11.7195  -16.1298   20.1362 C.3     1  UNL1        0.1571
      8 N         -11.0202  -17.1145   21.0258 N.ar    1  UNL1       -0.2149
      9 N          -9.6100  -17.5275   20.7247 N.ar    1  UNL1       -0.1671
     10 C          -8.9107  -18.5122   21.6143 C.ar    1  UNL1        0.0968
     11 C          -9.6215  -19.0838   22.8050 C.ar    1  UNL1       -0.0022
     12 C         -11.0318  -18.6708   23.1062 C.ar    1  UNL1        0.0329
     13 C         -11.7311  -17.6861   22.2166 C.ar    1  UNL1        0.2721
     14 O         -13.1414  -17.2730   22.5177 O.2     1  UNL1       -0.2659
     15 C         -11.4739  -19.3976   24.3416 C.3     1  UNL1        0.0313
     16 C         -10.3369  -20.2599   24.8039 C.3     1  UNL1        0.0095
     17 C          -9.1921  -20.0659   23.8543 C.3     1  UNL1        0.0281
     18 O          -3.2698  -20.1642   20.4098 O.3     1  UNL1       -0.4754
     19 C          -2.1465  -19.1873   20.5942 C.3     1  UNL1        0.2068
     20 C          -2.3738  -17.7265   20.3410 C.3     1  UNL1        0.0646
     21 C          -2.0962  -16.7255   21.4232 C.3     1  UNL1        0.0759
     22 N          -3.0355  -16.5982   22.5858 N.3     1  UNL1       -0.2726
     23 C          -2.9558  -17.5715   23.7244 C.3     1  UNL1        0.0721
     24 C          -3.8949  -17.4443   24.8869 C.3     1  UNL1        0.0174
     25 C          -4.9139  -16.3437   24.9110 C.3     1  UNL1        0.0029
     26 C          -4.9936  -15.3704   23.7725 C.3     1  UNL1        0.0174
     27 C          -4.0544  -15.4977   22.6098 C.3     1  UNL1        0.0721
@<TRIPOS>BOND
     1     7     8    1
     2     8     9   ar
     3     9    10   ar
     4    10     1    1
     5     1     2   ar
     6     2     3   ar
     7     3     4   ar
     8     4    18    1
     9    18    19    1
    10    19    20    1
    11    20    21    1
    12    21    22    1
    13    22    23    1
    14    23    24    1
    15    24    25    1
    16    25    26    1
    17    26    27    1
    18     4     5   ar
    19     5     6   ar
    20    10    11   ar
    21    11    12   ar
    22    12    13   ar
    23    13    14    2
    24    12    15    1
    25    15    16    1
    26    16    17    1
    27    13     8   ar
    28     6     1   ar
    29    17    11    1
    30    27    22    1
@<TRIPOS>MOLECULE
*****
 27 30 0 0 0
SMALL
GASTEIGER

@<TRIPOS>ATOM
      1 C          -6.2725  -18.9494   20.7417 C.ar    1  UNL1        0.0192
      2 C          -7.0531  -19.2131   19.4883 C.ar    1  UNL1        0.0047
      3 C          -8.5084  -19.5669   19.5716 C.ar    1  UNL1        0.0369
      4 C          -9.1831  -19.6571   20.9083 C.ar    1  UNL1        0.1386
      5 C          -8.4024  -19.3934   22.1617 C.ar    1  UNL1        0.0369
      6 C          -6.9471  -19.0395   22.0784 C.ar    1  UNL1        0.0047
      7 C          -2.0013  -18.1074   17.9048 C.3     1  UNL1        0.1571
      8 N          -2.6816  -18.1746   19.2400 N.ar    1  UNL1       -0.2149
      9 N          -4.1368  -18.5284   19.3233 N.ar    1  UNL1       -0.1671
     10 C          -4.8172  -18.5956   20.6584 C.ar    1  UNL1        0.0968
     11 C          -4.0422  -18.3089   21.9103 C.ar    1  UNL1       -0.0022
     12 C          -2.5869  -17.9551   21.8271 C.ar    1  UNL1        0.0329
     13 C          -1.9066  -17.8879   20.4919 C.ar    1  UNL1        0.2721
     14 O          -0.4512  -17.5341   20.4086 O.2     1  UNL1       -0.2659
     15 C          -2.0852  -17.7253   23.2219 C.3     1  UNL1        0.0313
     16 C          -3.2304  -17.9370   24.1671 C.3     1  UNL1        0.0095
     17 C          -4.4399  -18.2978   23.3566 C.3     1  UNL1        0.0281
     18 O         -10.6383  -20.0109   20.9915 O.3     1  UNL1       -0.4754
     19 C         -11.6749  -18.9267   20.9930 C.3     1  UNL1        0.2068
     20 C         -11.3406  -17.5686   20.4512 C.3     1  UNL1        0.0646
     21 C         -11.2431  -16.3940   21.3791 C.3     1  UNL1        0.0759
     22 N         -10.0993  -16.2935   22.3442 N.3     1  UNL1       -0.2726
     23 C          -8.7950  -15.6988   21.9021 C.3     1  UNL1        0.0721
     24 C          -7.6512  -15.5983   22.8671 C.3     1  UNL1        0.0174
     25 C          -7.8114  -16.0925   24.2743 C.3     1  UNL1        0.0029
     26 C          -9.1155  -16.6873   24.7164 C.3     1  UNL1        0.0174
     27 C         -10.2595  -16.7878   23.7514 C.3     1  UNL1        0.0721
@<TRIPOS>BOND
     1     7     8    1
     2     8     9   ar
     3     9    10   ar
     4    10     1    1
     5     1     2   ar
     6     2     3   ar
     7     3     4   ar
     8     4    18    1
     9    18    19    1
    10    19    20    1
    11    20    21    1
    12    21    22    1
    13    22    23    1
    14    23    24    1
    15    24    25    1
    16    25    26    1
    17    26    27    1
    18     4     5   ar
    19     5     6   ar
    20    10    11   ar
    21    11    12   ar
    22    12    13   ar
    23    13    14    2
    24    12    15    1
    25    15    16    1
    26    16    17    1
    27    13     8   ar
    28     6     1   ar
    29    17    11    1
    30    27    22    1
@<TRIPOS>MOLECULE
*****
 27 30 0 0 0
SMALL
GASTEIGER

@<TRIPOS>ATOM
      1 C         -15.1825   -5.2958   19.0874 C.ar    1  UNL1        0.0192
      2 C         -15.2563   -4.1472   18.1256 C.ar    1  UNL1        0.0047
      3 C         -14.1755   -3.1070   18.1153 C.ar    1  UNL1        0.0369
      4 C         -13.0210   -3.2155   19.0667 C.ar    1  UNL1        0.1386
      5 C         -12.9472   -4.3643   20.0286 C.ar    1  UNL1        0.0369
      6 C         -14.0279   -5.4043   20.0389 C.ar    1  UNL1        0.0047
      7 C         -20.1388   -6.6274   19.9008 C.3     1  UNL1        0.1571
      8 N         -18.7413   -7.0017   19.5045 N.ar    1  UNL1       -0.2149
      9 N         -17.6606   -5.9617   19.4941 N.ar    1  UNL1       -0.1671
     10 C         -16.2632   -6.3360   19.0978 C.ar    1  UNL1        0.0968
     11 C         -15.9465   -7.7505   18.7120 C.ar    1  UNL1       -0.0022
     12 C         -17.0272   -8.7906   18.7224 C.ar    1  UNL1        0.0329
     13 C         -18.4247   -8.4163   19.1186 C.ar    1  UNL1        0.2721
     14 O         -19.5055   -9.4564   19.1290 O.2     1  UNL1       -0.2659
     15 C         -16.4200  -10.0943   18.2961 C.3     1  UNL1        0.0313
     16 C         -14.9640   -9.8599   18.0223 C.3     1  UNL1        0.0095
     17 C         -14.6713   -8.4113   18.2793 C.3     1  UNL1        0.0281
     18 O         -11.9403   -2.1754   19.0563 O.3     1  UNL1       -0.4754
     19 C         -11.6305   -1.4282   17.7931 C.3     1  UNL1        0.2068
     20 C         -10.9506   -2.1292   16.6546 C.3     1  UNL1        0.0646
     21 C          -9.8891   -3.1526   16.9305 C.3     1  UNL1        0.0759
     22 N         -10.2762   -4.5458   17.3290 N.3     1  UNL1       -0.2726
     23 C          -9.6189   -5.1983   18.5090 C.3     1  UNL1        0.0721
     24 C         -10.0059   -6.5916   18.9076 C.3     1  UNL1        0.0174
     25 C         -11.0502   -7.3325   18.1263 C.3     1  UNL1        0.0029
     26 C         -11.7074   -6.6801   16.9463 C.3     1  UNL1        0.0174
     27 C         -11.3204   -5.2868   16.5477 C.3     1  UNL1        0.0721
@<TRIPOS>BOND
     1     7     8    1
     2     8     9   ar
     3     9    10   ar
     4    10     1    1
     5     1     2   ar
     6     2     3   ar
     7     3     4   ar
     8     4    18    1
     9    18    19    1
    10    19    20    1
    11    20    21    1
    12    21    22    1
    13    22    23    1
    14    23    24    1
    15    24    25    1
    16    25    26    1
    17    26    27    1
    18     4     5   ar
    19     5     6   ar
    20    10    11   ar
    21    11    12   ar
    22    12    13   ar
    23    13    14    2
    24    12    15    1
    25    15    16    1
    26    16    17    1
    27    13     8   ar
    28     6     1   ar
    29    17    11    1
    30    27    22    1
@<TRIPOS>MOLECULE
*****
 27 30 0 0 0
SMALL
GASTEIGER

@<TRIPOS>ATOM
      1 C          -7.6301  -19.0730   21.7234 C.ar    1  UNL1        0.0192
      2 C          -8.3208  -18.7975   20.4208 C.ar    1  UNL1        0.0047
      3 C          -9.8152  -18.8902   20.3300 C.ar    1  UNL1        0.0369
      4 C         -10.6189  -19.2585   21.5419 C.ar    1  UNL1        0.1386
      5 C          -9.9280  -19.5340   22.8445 C.ar    1  UNL1        0.0369
      6 C          -8.4337  -19.4413   22.9353 C.ar    1  UNL1        0.0047
      7 C          -3.3718  -16.9253   23.7860 C.3     1  UNL1        0.1571
      8 N          -4.0066  -17.9065   22.8455 N.ar    1  UNL1       -0.2149
      9 N          -5.5009  -17.9992   22.7547 N.ar    1  UNL1       -0.1671
     10 C          -6.1357  -18.9803   21.8142 C.ar    1  UNL1        0.0968
     11 C          -5.2761  -19.8687   20.9646 C.ar    1  UNL1       -0.0022
     12 C          -3.7817  -19.7760   21.0554 C.ar    1  UNL1        0.0329
     13 C          -3.1469  -18.7949   21.9959 C.ar    1  UNL1        0.2721
     14 O          -1.6525  -18.7022   22.0867 O.2     1  UNL1       -0.2659
     15 C          -3.1965  -20.7739   20.1006 C.3     1  UNL1        0.0313
     16 C          -4.3292  -21.4833   19.4197 C.3     1  UNL1        0.0095
     17 C          -5.6145  -20.9239   19.9536 C.3     1  UNL1        0.0281
     18 O         -12.1132  -19.3512   21.4511 O.3     1  UNL1       -0.4754
     19 C         -12.9483  -18.1079   21.5351 C.3     1  UNL1        0.2068
     20 C         -12.2897  -16.7730   21.7197 C.3     1  UNL1        0.0646
     21 C         -11.6965  -16.4065   23.0479 C.3     1  UNL1        0.0759
     22 N         -10.2361  -16.0809   23.1528 N.3     1  UNL1       -0.2726
     23 C          -9.4689  -15.6731   21.9300 C.3     1  UNL1        0.0721
     24 C          -8.0085  -15.3474   22.0349 C.3     1  UNL1        0.0174
     25 C          -7.3152  -15.4294   23.3625 C.3     1  UNL1        0.0029
     26 C          -8.0824  -15.8371   24.5853 C.3     1  UNL1        0.0174
     27 C          -9.5428  -16.1628   24.4804 C.3     1  UNL1        0.0721
@<TRIPOS>BOND
     1     7     8    1
     2     8     9   ar
     3     9    10   ar
     4    10     1    1
     5     1     2   ar
     6     2     3   ar
     7     3     4   ar
     8     4    18    1
     9    18    19    1
    10    19    20    1
    11    20    21    1
    12    21    22    1
    13    22    23    1
    14    23    24    1
    15    24    25    1
    16    25    26    1
    17    26    27    1
    18     4     5   ar
    19     5     6   ar
    20    10    11   ar
    21    11    12   ar
    22    12    13   ar
    23    13    14    2
    24    12    15    1
    25    15    16    1
    26    16    17    1
    27    13     8   ar
    28     6     1   ar
    29    17    11    1
    30    27    22    1
@<TRIPOS>MOLECULE
*****
 27 30 0 0 0
SMALL
GASTEIGER

@<TRIPOS>ATOM
      1 C          -7.6900  -18.9576   22.9070 C.ar    1  UNL1        0.0192
      2 C          -8.2645  -17.5930   23.1473 C.ar    1  UNL1        0.0047
      3 C          -9.5996  -17.4484   23.8157 C.ar    1  UNL1        0.0369
      4 C         -10.3601  -18.6684   24.2438 C.ar    1  UNL1        0.1386
      5 C          -9.7855  -20.0330   24.0034 C.ar    1  UNL1        0.0369
      6 C          -8.4505  -20.1776   23.3351 C.ar    1  UNL1        0.0047
      7 C          -4.6080  -21.3642   19.4851 C.3     1  UNL1        0.1571
      8 N          -4.8140  -20.3055   20.5276 N.ar    1  UNL1       -0.2149
      9 N          -6.1489  -20.1609   21.1960 N.ar    1  UNL1       -0.1671
     10 C          -6.3549  -19.1022   22.2385 C.ar    1  UNL1        0.0968
     11 C          -5.2259  -18.1882   22.6126 C.ar    1  UNL1       -0.0022
     12 C          -3.8909  -18.3329   21.9442 C.ar    1  UNL1        0.0329
     13 C          -3.6849  -19.3915   20.9017 C.ar    1  UNL1        0.2721
     14 O          -2.3499  -19.5362   20.2332 O.2     1  UNL1       -0.2659
     15 C          -2.9715  -17.2944   22.5154 C.3     1  UNL1        0.0313
     16 C          -3.7384  -16.5080   23.5369 C.3     1  UNL1        0.0095
     17 C          -5.1317  -17.0604   23.5970 C.3     1  UNL1        0.0281
     18 O         -11.6950  -18.5238   24.9122 O.3     1  UNL1       -0.4754
     19 C         -12.9527  -18.5852   24.0969 C.3     1  UNL1        0.2068
     20 C         -13.3267  -17.4367   23.2075 C.3     1  UNL1        0.0646
     21 C         -13.2885  -17.5991   21.7168 C.3     1  UNL1        0.0759
     22 N         -12.0380  -18.0870   21.0474 N.3     1  UNL1       -0.2726
     23 C         -11.7280  -19.5543   21.0157 C.3     1  UNL1        0.0721
     24 C         -10.4775  -20.0424   20.3463 C.3     1  UNL1        0.0174
     25 C          -9.5370  -19.0632   19.7086 C.3     1  UNL1        0.0029
     26 C          -9.8470  -17.5959   19.7404 C.3     1  UNL1        0.0174
     27 C         -11.0975  -17.1078   20.4097 C.3     1  UNL1        0.0721
@<TRIPOS>BOND
     1     7     8    1
     2     8     9   ar
     3     9    10   ar
     4    10     1    1
     5     1     2   ar
     6     2     3   ar
     7     3     4   ar
     8     4    18    1
     9    18    19    1
    10    19    20    1
    11    20    21    1
    12    21    22    1
    13    22    23    1
    14    23    24    1
    15    24    25    1
    16    25    26    1
    17    26    27    1
    18     4     5   ar
    19     5     6   ar
    20    10    11   ar
    21    11    12   ar
    22    12    13   ar
    23    13    14    2
    24    12    15    1
    25    15    16    1
    26    16    17    1
    27    13     8   ar
    28     6     1   ar
    29    17    11    1
    30    27    22    1
@<TRIPOS>MOLECULE
*****
 27 30 0 0 0
SMALL
GASTEIGER

@<TRIPOS>ATOM
      1 C           2.4535   -0.7786   21.6340 C.ar    1  UNL1        0.0192
      2 C           1.6262   -0.8628   20.3856 C.ar    1  UNL1        0.0047
      3 C           0.5119    0.1150   20.1569 C.ar    1  UNL1        0.0369
      4 C           0.2248    1.1770   21.1766 C.ar    1  UNL1        0.1386
      5 C           1.0522    1.2612   22.4250 C.ar    1  UNL1        0.0369
      6 C           2.1664    0.2835   22.6537 C.ar    1  UNL1        0.0047
      7 C           5.9555   -2.9504   24.7992 C.3     1  UNL1        0.1571
      8 N           5.3188   -2.8422   23.4453 N.ar    1  UNL1       -0.2149
      9 N           4.2045   -1.8645   23.2166 N.ar    1  UNL1       -0.1671
     10 C           3.5678   -1.7563   21.8627 C.ar    1  UNL1        0.0968
     11 C           4.0454   -2.6258   20.7377 C.ar    1  UNL1       -0.0022
     12 C           5.1597   -3.6036   20.9664 C.ar    1  UNL1        0.0329
     13 C           5.7964   -3.7118   22.3202 C.ar    1  UNL1        0.2721
     14 O           6.9108   -4.6895   22.5491 O.2     1  UNL1       -0.2659
     15 C           5.4167   -4.3238   19.6760 C.3     1  UNL1        0.0313
     16 C           4.4612   -3.7911   18.6497 C.3     1  UNL1        0.0095
     17 C           3.6137   -2.7418   19.3058 C.3     1  UNL1        0.0281
     18 O          -0.8894    2.1547   20.9479 O.3     1  UNL1       -0.4754
     19 C          -0.6972    3.3032   20.0023 C.3     1  UNL1        0.2068
     20 C           0.6359    3.9844   19.9109 C.3     1  UNL1        0.0646
     21 C           1.6069    3.5917   18.8370 C.3     1  UNL1        0.0759
     22 N           2.7996    2.7478   19.1765 N.3     1  UNL1       -0.2726
     23 C           3.5530    2.9921   20.4504 C.3     1  UNL1        0.0721
     24 C           4.7457    2.1483   20.7899 C.3     1  UNL1        0.0174
     25 C           5.1852    1.0603   19.8556 C.3     1  UNL1        0.0029
     26 C           4.4319    0.8160   18.5817 C.3     1  UNL1        0.0174
     27 C           3.2391    1.6598   18.2421 C.3     1  UNL1        0.0721
@<TRIPOS>BOND
     1     7     8    1
     2     8     9   ar
     3     9    10   ar
     4    10     1    1
     5     1     2   ar
     6     2     3   ar
     7     3     4   ar
     8     4    18    1
     9    18    19    1
    10    19    20    1
    11    20    21    1
    12    21    22    1
    13    22    23    1
    14    23    24    1
    15    24    25    1
    16    25    26    1
    17    26    27    1
    18     4     5   ar
    19     5     6   ar
    20    10    11   ar
    21    11    12   ar
    22    12    13   ar
    23    13    14    2
    24    12    15    1
    25    15    16    1
    26    16    17    1
    27    13     8   ar
    28     6     1   ar
    29    17    11    1
    30    27    22    1
@<TRIPOS>MOLECULE
*****
 27 30 0 0 0
SMALL
GASTEIGER

@<TRIPOS>ATOM
      1 C           6.9904   -3.5415   21.4952 C.ar    1  UNL1        0.0192
      2 C           5.8072   -3.8507   20.6267 C.ar    1  UNL1        0.0047
      3 C           5.6962   -3.2351   19.2634 C.ar    1  UNL1        0.0369
      4 C           6.7685   -2.3103   18.7685 C.ar    1  UNL1        0.1386
      5 C           7.9518   -2.0011   19.6370 C.ar    1  UNL1        0.0369
      6 C           8.0628   -2.6167   21.0003 C.ar    1  UNL1        0.0047
      7 C           8.3000   -7.5518   24.5288 C.3     1  UNL1        0.1571
      8 N           7.7562   -6.1622   24.3753 N.ar    1  UNL1       -0.2149
      9 N           7.6452   -5.5466   23.0120 N.ar    1  UNL1       -0.1671
     10 C           7.1014   -4.1571   22.8585 C.ar    1  UNL1        0.0968
     11 C           6.6687   -3.3832   24.0684 C.ar    1  UNL1       -0.0022
     12 C           6.7797   -3.9988   25.4318 C.ar    1  UNL1        0.0329
     13 C           7.3234   -5.3883   25.5853 C.ar    1  UNL1        0.2721
     14 O           7.4345   -6.0040   26.9486 O.2     1  UNL1       -0.2659
     15 C           6.2778   -3.0012   26.4331 C.3     1  UNL1        0.0313
     16 C           5.8566   -1.7690   25.6886 C.3     1  UNL1        0.0095
     17 C           6.0982   -2.0051   24.2272 C.3     1  UNL1        0.0281
     18 O           6.6576   -1.6947   17.4052 O.3     1  UNL1       -0.4754
     19 C           6.7327   -0.2050   17.2465 C.3     1  UNL1        0.2068
     20 C           5.4989    0.5759   16.9036 C.3     1  UNL1        0.0646
     21 C           4.6780    1.1984   17.9939 C.3     1  UNL1        0.0759
     22 N           4.2079    0.3639   19.1482 N.3     1  UNL1       -0.2726
     23 C           4.9249    0.4320   20.4640 C.3     1  UNL1        0.0721
     24 C           4.4549   -0.4025   21.6183 C.3     1  UNL1        0.0174
     25 C           3.2678   -1.3052   21.4570 C.3     1  UNL1        0.0029
     26 C           2.5508   -1.3734   20.1412 C.3     1  UNL1        0.0174
     27 C           3.0209   -0.5388   18.9868 C.3     1  UNL1        0.0721
@<TRIPOS>BOND
     1     7     8    1
     2     8     9   ar
     3     9    10   ar
     4    10     1    1
     5     1     2   ar
     6     2     3   ar
     7     3     4   ar
     8     4    18    1
     9    18    19    1
    10    19    20    1
    11    20    21    1
    12    21    22    1
    13    22    23    1
    14    23    24    1
    15    24    25    1
    16    25    26    1
    17    26    27    1
    18     4     5   ar
    19     5     6   ar
    20    10    11   ar
    21    11    12   ar
    22    12    13   ar
    23    13    14    2
    24    12    15    1
    25    15    16    1
    26    16    17    1
    27    13     8   ar
    28     6     1   ar
    29    17    11    1
    30    27    22    1
