@<TRIPOS>MOLECULE
*****
 28 31 0 0 0
SMALL
GASTEIGER

@<TRIPOS>ATOM
      1 C          -9.4418  -19.0661   21.3307 C.ar    1  UNL1        0.1287
      2 C          -8.6065  -19.6696   22.4208 C.ar    1  UNL1        0.0338
      3 C          -7.2641  -20.2565   22.0992 C.ar    1  UNL1        0.0005
      4 C          -6.7570  -20.2400   20.6876 C.ar    1  UNL1        0.0015
      5 C          -7.5922  -19.6366   19.5976 C.ar    1  UNL1        0.0963
      6 N          -8.9346  -19.0496   19.9192 N.ar    1  UNL1       -0.2297
      7 N         -10.7842  -18.4792   21.6523 N.pl3   1  UNL1       -0.3144
      8 H         -11.5998  -19.0145   21.5203 H       1  UNL1        0.1485
      9 C         -10.8839  -17.0766   22.1748 C.3     1  UNL1        0.1169
     10 F          -6.2039  -14.5800   24.9790 F       1  UNL1       -0.1832
     11 C          -7.3739  -15.2042   24.2780 C.ar    1  UNL1        0.2223
     12 C          -8.4587  -15.8673   25.0740 C.ar    1  UNL1        0.0494
     13 C          -9.6287  -16.4914   24.3729 C.ar    1  UNL1        0.0029
     14 C          -9.7139  -16.4525   22.8758 C.ar    1  UNL1        0.0167
     15 C          -8.6291  -15.7894   22.0798 C.ar    1  UNL1        0.0986
     16 N          -7.4591  -15.1653   22.7809 N.ar    1  UNL1       -0.2167
     17 C          -5.4145  -20.8270   20.3660 C.3     1  UNL1        0.0559
     18 C          -4.2171  -19.9332   20.2347 C.ar    1  UNL1        0.0043
     19 C          -3.2491  -19.9186   19.0889 C.ar    1  UNL1        0.0966
     20 N          -2.2113  -18.8734   19.3723 N.ar    1  UNL1       -0.2273
     21 C          -2.5377  -18.2420   20.6932 C.ar    1  UNL1        0.1403
     22 N          -1.8663  -17.1553   21.4795 N.ar    1  UNL1       -0.3367
     23 C          -2.4347  -16.7236   22.7988 C.ar    1  UNL1        0.0850
     24 C          -3.6743  -17.3787   23.3319 C.ar    1  UNL1        0.0747
     25 CL         -4.2427  -16.9469   24.6512 Cl      1  UNL1       -0.0807
     26 C          -4.3457  -18.4654   22.5456 C.ar    1  UNL1        0.0156
     27 C          -3.7774  -18.8970   21.2263 C.ar    1  UNL1        0.0327
     28 H          -1.0527  -16.7254   21.1297 H       1  UNL1        0.1674
@<TRIPOS>BOND
     1    10    11    1
     2    11    12   ar
     3    12    13   ar
     4    13    14   ar
     5    14     9    1
     6     9     7    1
     7     7     1    1
     8     1     2   ar
     9     2     3   ar
    10     3     4   ar
    11     4    17    1
    12    17    18    1
    13    18    19   ar
    14    19    20   ar
    15    20    21   ar
    16    21    22   ar
    17    22    23   ar
    18    23    24   ar
    19    24    25    1
    20    24    26   ar
    21    26    27   ar
    22     4     5   ar
    23     5     6   ar
    24    14    15   ar
    25    15    16   ar
    26    16    11   ar
    27     6     1   ar
    28    27    18   ar
    29    27    21    1
    30     7     8    1
    31    22    28    1
@<TRIPOS>MOLECULE
*****
 28 31 0 0 0
SMALL
GASTEIGER

@<TRIPOS>ATOM
      1 C          -5.1255  -19.3038   21.9979 C.ar    1  UNL1        0.1287
      2 C          -5.4329  -20.4123   21.0352 C.ar    1  UNL1        0.0338
      3 C          -6.7241  -20.4061   20.2720 C.ar    1  UNL1        0.0005
      4 C          -7.7080  -19.2916   20.4715 C.ar    1  UNL1        0.0015
      5 C          -7.4007  -18.1832   21.4342 C.ar    1  UNL1        0.0963
      6 N          -6.1094  -18.1893   22.1974 N.ar    1  UNL1       -0.2297
      7 N          -3.8342  -19.3098   22.7612 N.pl3   1  UNL1       -0.3144
      8 H          -3.6971  -19.9557   23.4915 H       1  UNL1        0.1485
      9 C          -2.7518  -18.3319   22.4118 C.3     1  UNL1        0.1169
     10 F          -1.0707  -17.6335   16.6948 F       1  UNL1       -0.1832
     11 C          -1.4910  -17.8081   18.1240 C.ar    1  UNL1        0.2223
     12 C          -2.8979  -17.4907   18.5362 C.ar    1  UNL1        0.0494
     13 C          -3.3181  -17.6653   19.9655 C.ar    1  UNL1        0.0029
     14 C          -2.3315  -18.1573   20.9826 C.ar    1  UNL1        0.0167
     15 C          -0.9246  -18.4747   20.5704 C.ar    1  UNL1        0.0986
     16 N          -0.5044  -18.3001   19.1411 N.ar    1  UNL1       -0.2167
     17 C          -8.9994  -19.2856   19.7082 C.3     1  UNL1        0.0559
     18 C         -10.2260  -18.6706   20.3143 C.ar    1  UNL1        0.0043
     19 C         -11.2097  -17.7858   19.6077 C.ar    1  UNL1        0.0966
     20 N         -12.2759  -17.4009   20.5901 N.ar    1  UNL1       -0.2273
     21 C         -11.9510  -18.0478   21.9039 C.ar    1  UNL1        0.1403
     22 N         -12.6451  -18.0236   23.2334 N.ar    1  UNL1       -0.3367
     23 C         -12.0723  -18.7842   24.3924 C.ar    1  UNL1        0.0850
     24 C         -10.8054  -19.5690   24.2219 C.ar    1  UNL1        0.0747
     25 CL        -10.2326  -20.3296   25.3810 Cl      1  UNL1       -0.0807
     26 C         -10.1113  -19.5931   22.8924 C.ar    1  UNL1        0.0156
     27 C         -10.6841  -18.8325   21.7334 C.ar    1  UNL1        0.0327
     28 H         -13.4767  -17.5086   23.3452 H       1  UNL1        0.1674
@<TRIPOS>BOND
     1    10    11    1
     2    11    12   ar
     3    12    13   ar
     4    13    14   ar
     5    14     9    1
     6     9     7    1
     7     7     1    1
     8     1     2   ar
     9     2     3   ar
    10     3     4   ar
    11     4    17    1
    12    17    18    1
    13    18    19   ar
    14    19    20   ar
    15    20    21   ar
    16    21    22   ar
    17    22    23   ar
    18    23    24   ar
    19    24    25    1
    20    24    26   ar
    21    26    27   ar
    22     4     5   ar
    23     5     6   ar
    24    14    15   ar
    25    15    16   ar
    26    16    11   ar
    27     6     1   ar
    28    27    18   ar
    29    27    21    1
    30     7     8    1
    31    22    28    1
@<TRIPOS>MOLECULE
*****
 28 31 0 0 0
SMALL
GASTEIGER

@<TRIPOS>ATOM
      1 C          -9.6229  -19.2194   21.3603 C.ar    1  UNL1        0.1287
      2 C          -8.8454  -19.8571   22.4734 C.ar    1  UNL1        0.0338
      3 C          -7.3948  -20.1871   22.2816 C.ar    1  UNL1        0.0005
      4 C          -6.7217  -19.8795   20.9769 C.ar    1  UNL1        0.0015
      5 C          -7.4992  -19.2418   19.8639 C.ar    1  UNL1        0.0963
      6 N          -8.9497  -18.9118   20.0556 N.ar    1  UNL1       -0.2297
      7 N         -11.0735  -18.8892   21.5520 N.pl3   1  UNL1       -0.3144
      8 H         -11.6995  -18.9646   20.7959 H       1  UNL1        0.1485
      9 C         -11.5703  -18.4444   22.8956 C.3     1  UNL1        0.1169
     10 F          -7.7644  -16.0186   26.8490 F       1  UNL1       -0.1832
     11 C          -8.7159  -16.6250   25.8606 C.ar    1  UNL1        0.2223
     12 C          -9.0844  -15.8734   24.6159 C.ar    1  UNL1        0.0494
     13 C         -10.0359  -16.4799   23.6276 C.ar    1  UNL1        0.0029
     14 C         -10.6189  -17.8379   23.8840 C.ar    1  UNL1        0.0167
     15 C         -10.2504  -18.5895   25.1287 C.ar    1  UNL1        0.0986
     16 N          -9.2989  -17.9831   26.1170 N.ar    1  UNL1       -0.2167
     17 C          -5.2710  -20.2097   20.7852 C.3     1  UNL1        0.0559
     18 C          -4.2159  -19.3370   21.3979 C.ar    1  UNL1        0.0043
     19 C          -4.0870  -18.9995   22.8537 C.ar    1  UNL1        0.0966
     20 N          -2.8959  -18.1026   23.0178 N.ar    1  UNL1       -0.2273
     21 C          -2.2888  -17.8858   21.6634 C.ar    1  UNL1        0.1403
     22 N          -1.0985  -17.0922   21.2124 N.ar    1  UNL1       -0.3367
     23 C          -0.7240  -17.0616   19.7603 C.ar    1  UNL1        0.0850
     24 C          -1.5398  -17.8246   18.7591 C.ar    1  UNL1        0.0747
     25 CL         -1.1653  -17.7939   17.3069 Cl      1  UNL1       -0.0807
     26 C          -2.7301  -18.6181   19.2101 C.ar    1  UNL1        0.0156
     27 C          -3.1046  -18.6487   20.6622 C.ar    1  UNL1        0.0327
     28 H          -0.5630  -16.5915   21.8696 H       1  UNL1        0.1674
@<TRIPOS>BOND
     1    10    11    1
     2    11    12   ar
     3    12    13   ar
     4    13    14   ar
     5    14     9    1
     6     9     7    1
     7     7     1    1
     8     1     2   ar
     9     2     3   ar
    10     3     4   ar
    11     4    17    1
    12    17    18    1
    13    18    19   ar
    14    19    20   ar
    15    20    21   ar
    16    21    22   ar
    17    22    23   ar
    18    23    24   ar
    19    24    25    1
    20    24    26   ar
    21    26    27   ar
    22     4     5   ar
    23     5     6   ar
    24    14    15   ar
    25    15    16   ar
    26    16    11   ar
    27     6     1   ar
    28    27    18   ar
    29    27    21    1
    30     7     8    1
    31    22    28    1
@<TRIPOS>MOLECULE
*****
 28 31 0 0 0
SMALL
GASTEIGER

@<TRIPOS>ATOM
      1 C          -8.4992  -15.9353   26.1089 C.ar    1  UNL1        0.1287
      2 C          -8.8348  -17.3193   26.5799 C.ar    1  UNL1        0.0338
      3 C          -9.6518  -18.2294   25.7115 C.ar    1  UNL1        0.0005
      4 C         -10.1331  -17.7556   24.3722 C.ar    1  UNL1        0.0015
      5 C          -9.7975  -16.3716   23.9011 C.ar    1  UNL1        0.0963
      6 N          -8.9805  -15.4615   24.7695 N.ar    1  UNL1       -0.2297
      7 N          -7.6822  -15.0251   26.9772 N.pl3   1  UNL1       -0.3144
      8 H          -8.1273  -14.3488   27.5374 H       1  UNL1        0.1485
      9 C          -6.1870  -15.1451   26.9921 C.3     1  UNL1        0.1169
     10 F          -3.3035  -17.3124   22.1976 F       1  UNL1       -0.1832
     11 C          -4.0243  -16.7706   23.3963 C.ar    1  UNL1        0.2223
     12 C          -3.9237  -17.4780   24.7152 C.ar    1  UNL1        0.0494
     13 C          -4.6446  -16.9362   25.9137 C.ar    1  UNL1        0.0029
     14 C          -5.4662  -15.6869   25.7935 C.ar    1  UNL1        0.0167
     15 C          -5.5668  -14.9795   24.4746 C.ar    1  UNL1        0.0986
     16 N          -4.8459  -15.5214   23.2760 N.ar    1  UNL1       -0.2167
     17 C         -10.9502  -18.6659   23.5038 C.3     1  UNL1        0.0559
     18 C         -10.6007  -18.8331   22.0547 C.ar    1  UNL1        0.0043
     19 C         -11.5531  -18.7302   20.9004 C.ar    1  UNL1        0.0966
     20 N         -10.7784  -18.9661   19.6378 N.ar    1  UNL1       -0.2273
     21 C          -9.3472  -19.2149   20.0117 C.ar    1  UNL1        0.1403
     22 N          -8.1298  -19.5056   19.1851 N.ar    1  UNL1       -0.3367
     23 C          -6.8026  -19.7142   19.8521 C.ar    1  UNL1        0.0850
     24 C          -6.6928  -19.6320   21.3458 C.ar    1  UNL1        0.0747
     25 CL         -5.3655  -19.8406   22.0129 Cl      1  UNL1       -0.0807
     26 C          -7.9101  -19.3413   22.1725 C.ar    1  UNL1        0.0156
     27 C          -9.2373  -19.1327   21.5054 C.ar    1  UNL1        0.0327
     28 H          -8.2019  -19.5595   18.2047 H       1  UNL1        0.1674
@<TRIPOS>BOND
     1    10    11    1
     2    11    12   ar
     3    12    13   ar
     4    13    14   ar
     5    14     9    1
     6     9     7    1
     7     7     1    1
     8     1     2   ar
     9     2     3   ar
    10     3     4   ar
    11     4    17    1
    12    17    18    1
    13    18    19   ar
    14    19    20   ar
    15    20    21   ar
    16    21    22   ar
    17    22    23   ar
    18    23    24   ar
    19    24    25    1
    20    24    26   ar
    21    26    27   ar
    22     4     5   ar
    23     5     6   ar
    24    14    15   ar
    25    15    16   ar
    26    16    11   ar
    27     6     1   ar
    28    27    18   ar
    29    27    21    1
    30     7     8    1
    31    22    28    1
@<TRIPOS>MOLECULE
*****
 28 31 0 0 0
SMALL
GASTEIGER

@<TRIPOS>ATOM
      1 C          -8.3288  -15.9582   23.8488 C.ar    1  UNL1        0.1287
      2 C          -7.3688  -15.0722   24.5858 C.ar    1  UNL1        0.0338
      3 C          -5.9025  -15.3883   24.5820 C.ar    1  UNL1        0.0005
      4 C          -5.3963  -16.5904   23.8413 C.ar    1  UNL1        0.0015
      5 C          -6.3563  -17.4765   23.1044 C.ar    1  UNL1        0.0963
      6 N          -7.8226  -17.1604   23.1081 N.ar    1  UNL1       -0.2297
      7 N          -9.7952  -15.6422   23.8525 N.pl3   1  UNL1       -0.3144
      8 H         -10.0997  -14.7208   24.0184 H       1  UNL1        0.1485
      9 C         -10.7976  -16.7300   23.6035 C.3     1  UNL1        0.1169
     10 F         -10.6250  -19.8541   18.4840 F       1  UNL1       -0.1832
     11 C         -10.6681  -19.0731   19.7639 C.ar    1  UNL1        0.2223
     12 C         -10.7725  -19.7904   21.0771 C.ar    1  UNL1        0.0494
     13 C         -10.8156  -19.0094   22.3570 C.ar    1  UNL1        0.0029
     14 C         -10.7544  -17.5110   22.3236 C.ar    1  UNL1        0.0167
     15 C         -10.6501  -16.7937   21.0104 C.ar    1  UNL1        0.0986
     16 N         -10.6070  -17.5747   19.7305 N.ar    1  UNL1       -0.2167
     17 C          -3.9299  -16.9065   23.8376 C.3     1  UNL1        0.0559
     18 C          -3.2106  -17.1136   22.5377 C.ar    1  UNL1        0.0043
     19 C          -2.0916  -16.2686   22.0049 C.ar    1  UNL1        0.0966
     20 N          -1.6735  -16.8349   20.6803 N.ar    1  UNL1       -0.2273
     21 C          -2.5341  -18.0298   20.3945 C.ar    1  UNL1        0.1403
     22 N          -2.5754  -18.9832   19.2373 N.ar    1  UNL1       -0.3367
     23 C          -3.5667  -20.1089   19.2280 C.ar    1  UNL1        0.0850
     24 C          -4.5167  -20.2811   20.3760 C.ar    1  UNL1        0.0747
     25 CL         -5.5080  -21.4069   20.3667 Cl      1  UNL1       -0.0807
     26 C          -4.4754  -19.3277   21.5332 C.ar    1  UNL1        0.0156
     27 C          -3.4841  -18.2020   21.5425 C.ar    1  UNL1        0.0327
     28 H          -1.9519  -18.8702   18.4838 H       1  UNL1        0.1674
@<TRIPOS>BOND
     1    10    11    1
     2    11    12   ar
     3    12    13   ar
     4    13    14   ar
     5    14     9    1
     6     9     7    1
     7     7     1    1
     8     1     2   ar
     9     2     3   ar
    10     3     4   ar
    11     4    17    1
    12    17    18    1
    13    18    19   ar
    14    19    20   ar
    15    20    21   ar
    16    21    22   ar
    17    22    23   ar
    18    23    24   ar
    19    24    25    1
    20    24    26   ar
    21    26    27   ar
    22     4     5   ar
    23     5     6   ar
    24    14    15   ar
    25    15    16   ar
    26    16    11   ar
    27     6     1   ar
    28    27    18   ar
    29    27    21    1
    30     7     8    1
    31    22    28    1
@<TRIPOS>MOLECULE
*****
 28 31 0 0 0
SMALL
GASTEIGER

@<TRIPOS>ATOM
      1 C          -6.2061  -19.9545   21.7955 C.ar    1  UNL1        0.1287
      2 C          -6.1273  -18.4607   21.9060 C.ar    1  UNL1        0.0338
      3 C          -7.1974  -17.7053   22.6369 C.ar    1  UNL1        0.0005
      4 C          -8.3462  -18.4438   23.2574 C.ar    1  UNL1        0.0015
      5 C          -8.4250  -19.9376   23.1469 C.ar    1  UNL1        0.0963
      6 N          -7.3549  -20.6930   22.4159 N.ar    1  UNL1       -0.2297
      7 N          -5.1360  -20.7099   21.0646 N.pl3   1  UNL1       -0.3144
      8 H          -4.8347  -21.5851   21.4000 H       1  UNL1        0.1485
      9 C          -4.5250  -20.1320   19.8225 C.3     1  UNL1        0.1169
     10 F           0.5794  -16.9975   20.1688 F       1  UNL1       -0.1832
     11 C          -0.6967  -17.7811   20.0822 C.ar    1  UNL1        0.2223
     12 C          -1.6328  -17.5652   18.9301 C.ar    1  UNL1        0.0494
     13 C          -2.9088  -18.3489   18.8436 C.ar    1  UNL1        0.0029
     14 C          -3.2489  -19.3484   19.9091 C.ar    1  UNL1        0.0167
     15 C          -2.3128  -19.5643   21.0611 C.ar    1  UNL1        0.0986
     16 N          -1.0368  -18.7807   21.1477 N.ar    1  UNL1       -0.2167
     17 C          -9.4163  -17.6883   23.9884 C.3     1  UNL1        0.0559
     18 C         -10.8212  -17.6803   23.4625 C.ar    1  UNL1        0.0043
     19 C         -12.0117  -18.3147   24.1183 C.ar    1  UNL1        0.0966
     20 N         -13.2083  -18.0629   23.2497 N.ar    1  UNL1       -0.2273
     21 C         -12.7574  -17.2728   22.0570 C.ar    1  UNL1        0.1403
     22 N         -13.4996  -16.7381   20.8683 N.ar    1  UNL1       -0.3367
     23 C         -12.7664  -15.9669   19.8111 C.ar    1  UNL1        0.0850
     24 C         -11.2910  -15.7304   19.9426 C.ar    1  UNL1        0.0747
     25 CL        -10.5578  -14.9592   18.8854 Cl      1  UNL1       -0.0807
     26 C         -10.5488  -16.2651   21.1314 C.ar    1  UNL1        0.0156
     27 C         -11.2820  -17.0363   22.1886 C.ar    1  UNL1        0.0327
     28 H         -14.4679  -16.8933   20.7819 H       1  UNL1        0.1674
@<TRIPOS>BOND
     1    10    11    1
     2    11    12   ar
     3    12    13   ar
     4    13    14   ar
     5    14     9    1
     6     9     7    1
     7     7     1    1
     8     1     2   ar
     9     2     3   ar
    10     3     4   ar
    11     4    17    1
    12    17    18    1
    13    18    19   ar
    14    19    20   ar
    15    20    21   ar
    16    21    22   ar
    17    22    23   ar
    18    23    24   ar
    19    24    25    1
    20    24    26   ar
    21    26    27   ar
    22     4     5   ar
    23     5     6   ar
    24    14    15   ar
    25    15    16   ar
    26    16    11   ar
    27     6     1   ar
    28    27    18   ar
    29    27    21    1
    30     7     8    1
    31    22    28    1
@<TRIPOS>MOLECULE
*****
 28 31 0 0 0
SMALL
GASTEIGER

@<TRIPOS>ATOM
      1 C          -6.1705  -15.3603   24.8897 C.ar    1  UNL1        0.1287
      2 C          -5.3790  -16.3574   25.6830 C.ar    1  UNL1        0.0338
      3 C          -4.1531  -16.9851   25.0888 C.ar    1  UNL1        0.0005
      4 C          -3.7186  -16.6158   23.7015 C.ar    1  UNL1        0.0015
      5 C          -4.5101  -15.6187   22.9082 C.ar    1  UNL1        0.0963
      6 N          -5.7360  -14.9909   23.5023 N.ar    1  UNL1       -0.2297
      7 N          -7.3964  -14.7325   25.4837 N.pl3   1  UNL1       -0.3144
      8 H          -7.4895  -13.7525   25.4990 H       1  UNL1        0.1485
      9 C          -8.4806  -15.5978   26.0546 C.3     1  UNL1        0.1169
     10 F         -11.0803  -19.7926   22.6422 F       1  UNL1       -0.1832
     11 C         -10.4304  -18.7439   23.4953 C.ar    1  UNL1        0.2223
     12 C         -10.0899  -19.0450   24.9248 C.ar    1  UNL1        0.0494
     13 C          -9.4400  -17.9963   25.7779 C.ar    1  UNL1        0.0029
     14 C          -9.1306  -16.6464   25.2015 C.ar    1  UNL1        0.0167
     15 C          -9.4710  -16.3454   23.7720 C.ar    1  UNL1        0.0986
     16 N         -10.1209  -17.3941   22.9189 N.ar    1  UNL1       -0.2167
     17 C          -2.4926  -17.2436   23.1074 C.3     1  UNL1        0.0559
     18 C          -2.6168  -18.1624   21.9282 C.ar    1  UNL1        0.0043
     19 C          -1.5757  -18.3872   20.8721 C.ar    1  UNL1        0.0966
     20 N          -2.1195  -19.3815   19.8894 N.ar    1  UNL1       -0.2273
     21 C          -3.4967  -19.7713   20.3383 C.ar    1  UNL1        0.1403
     22 N          -4.5105  -20.7149   19.7624 N.ar    1  UNL1       -0.3367
     23 C          -5.8317  -20.9050   20.4466 C.ar    1  UNL1        0.0850
     24 C          -6.1391  -20.1516   21.7067 C.ar    1  UNL1        0.0747
     25 CL         -7.4604  -20.3418   22.3909 Cl      1  UNL1       -0.0807
     26 C          -5.1253  -19.2080   22.2826 C.ar    1  UNL1        0.0156
     27 C          -3.8041  -19.0178   21.5984 C.ar    1  UNL1        0.0327
     28 H          -4.3088  -21.2094   18.9353 H       1  UNL1        0.1674
@<TRIPOS>BOND
     1    10    11    1
     2    11    12   ar
     3    12    13   ar
     4    13    14   ar
     5    14     9    1
     6     9     7    1
     7     7     1    1
     8     1     2   ar
     9     2     3   ar
    10     3     4   ar
    11     4    17    1
    12    17    18    1
    13    18    19   ar
    14    19    20   ar
    15    20    21   ar
    16    21    22   ar
    17    22    23   ar
    18    23    24   ar
    19    24    25    1
    20    24    26   ar
    21    26    27   ar
    22     4     5   ar
    23     5     6   ar
    24    14    15   ar
    25    15    16   ar
    26    16    11   ar
    27     6     1   ar
    28    27    18   ar
    29    27    21    1
    30     7     8    1
    31    22    28    1
@<TRIPOS>MOLECULE
*****
 28 31 0 0 0
SMALL
GASTEIGER

@<TRIPOS>ATOM
      1 C          -4.0194  -19.7977   20.0948 C.ar    1  UNL1        0.1287
      2 C          -4.6904  -21.0903   20.4539 C.ar    1  UNL1        0.0338
      3 C          -6.1876  -21.1789   20.4701 C.ar    1  UNL1        0.0005
      4 C          -7.0139  -19.9749   20.1271 C.ar    1  UNL1        0.0015
      5 C          -6.3430  -18.6823   19.7679 C.ar    1  UNL1        0.0963
      6 N          -4.8457  -18.5938   19.7518 N.ar    1  UNL1       -0.2297
      7 N          -2.5221  -19.7091   20.0786 N.pl3   1  UNL1       -0.3144
      8 H          -2.0049  -20.2344   19.4261 H       1  UNL1        0.1485
      9 C          -1.8127  -18.8201   21.0567 C.3     1  UNL1        0.1169
     10 F          -4.9387  -14.9363   24.3948 F       1  UNL1       -0.1832
     11 C          -4.1573  -15.9073   23.5603 C.ar    1  UNL1        0.2223
     12 C          -4.1875  -17.3710   23.8869 C.ar    1  UNL1        0.0494
     13 C          -3.4060  -18.3419   23.0523 C.ar    1  UNL1        0.0029
     14 C          -2.5942  -17.8491   21.8912 C.ar    1  UNL1        0.0167
     15 C          -2.5639  -16.3854   21.5646 C.ar    1  UNL1        0.0986
     16 N          -3.3455  -15.4145   22.3992 N.ar    1  UNL1       -0.2167
     17 C          -8.5113  -20.0636   20.1432 C.3     1  UNL1        0.0559
     18 C          -9.2844  -19.4872   21.2922 C.ar    1  UNL1        0.0043
     19 C          -9.2163  -19.9455   22.7188 C.ar    1  UNL1        0.0966
     20 N         -10.1511  -19.0929   23.5246 N.ar    1  UNL1       -0.2273
     21 C         -10.7969  -18.1077   22.5959 C.ar    1  UNL1        0.1403
     22 N         -11.8035  -17.0202   22.8284 N.ar    1  UNL1       -0.3367
     23 C         -12.2744  -16.1764   21.6811 C.ar    1  UNL1        0.0850
     24 C         -11.7387  -16.4201   20.3014 C.ar    1  UNL1        0.0747
     25 CL        -12.2097  -15.5763   19.1541 Cl      1  UNL1       -0.0807
     26 C         -10.7321  -17.5076   20.0689 C.ar    1  UNL1        0.0156
     27 C         -10.2612  -18.3514   21.2162 C.ar    1  UNL1        0.0327
     28 H         -12.1551  -16.8602   23.7339 H       1  UNL1        0.1674
@<TRIPOS>BOND
     1    10    11    1
     2    11    12   ar
     3    12    13   ar
     4    13    14   ar
     5    14     9    1
     6     9     7    1
     7     7     1    1
     8     1     2   ar
     9     2     3   ar
    10     3     4   ar
    11     4    17    1
    12    17    18    1
    13    18    19   ar
    14    19    20   ar
    15    20    21   ar
    16    21    22   ar
    17    22    23   ar
    18    23    24   ar
    19    24    25    1
    20    24    26   ar
    21    26    27   ar
    22     4     5   ar
    23     5     6   ar
    24    14    15   ar
    25    15    16   ar
    26    16    11   ar
    27     6     1   ar
    28    27    18   ar
    29    27    21    1
    30     7     8    1
    31    22    28    1
@<TRIPOS>MOLECULE
*****
 28 31 0 0 0
SMALL
GASTEIGER

@<TRIPOS>ATOM
      1 C           6.3282   -2.6781   24.6693 C.ar    1  UNL1        0.1287
      2 C           4.9293   -2.2525   24.3346 C.ar    1  UNL1        0.0338
      3 C           4.3080   -2.6732   23.0358 C.ar    1  UNL1        0.0005
      4 C           5.0854   -3.5194   22.0717 C.ar    1  UNL1        0.0015
      5 C           6.4843   -3.9450   22.4064 C.ar    1  UNL1        0.0963
      6 N           7.1056   -3.5244   23.7052 N.ar    1  UNL1       -0.2297
      7 N           6.9496   -2.2575   25.9681 N.pl3   1  UNL1       -0.3144
      8 H           7.9033   -2.0156   26.0019 H       1  UNL1        0.1485
      9 C           6.1180   -2.2055   27.2154 C.3     1  UNL1        0.1169
     10 F           7.0792   -6.1550   31.6287 F       1  UNL1       -0.1832
     11 C           6.8389   -5.1676   30.5253 C.ar    1  UNL1        0.2223
     12 C           6.8203   -5.6279   29.0978 C.ar    1  UNL1        0.0494
     13 C           6.5800   -4.6405   27.9945 C.ar    1  UNL1        0.0029
     14 C           6.3583   -3.1928   28.3188 C.ar    1  UNL1        0.0167
     15 C           6.3769   -2.7325   29.7463 C.ar    1  UNL1        0.0986
     16 N           6.6172   -3.7200   30.8496 N.ar    1  UNL1       -0.2167
     17 C           4.4639   -3.9401   20.7728 C.3     1  UNL1        0.0559
     18 C           4.4626   -3.0010   19.6032 C.ar    1  UNL1        0.0043
     19 C           5.4370   -3.0117   18.4628 C.ar    1  UNL1        0.0966
     20 N           5.0633   -1.9037   17.5234 N.ar    1  UNL1       -0.2273
     21 C           3.8579   -1.2081   18.0832 C.ar    1  UNL1        0.1403
     22 N           3.0504   -0.0448   17.5885 N.ar    1  UNL1       -0.3367
     23 C           1.8717    0.4402   18.3792 C.ar    1  UNL1        0.0850
     24 C           1.5005   -0.2380   19.6646 C.ar    1  UNL1        0.0747
     25 CL          0.3217    0.2472   20.4554 Cl      1  UNL1       -0.0807
     26 C           2.3080   -1.4012   20.1593 C.ar    1  UNL1        0.0156
     27 C           3.4867   -1.8863   19.3686 C.ar    1  UNL1        0.0327
     28 H           3.2941    0.4003   16.7449 H       1  UNL1        0.1674
@<TRIPOS>BOND
     1    10    11    1
     2    11    12   ar
     3    12    13   ar
     4    13    14   ar
     5    14     9    1
     6     9     7    1
     7     7     1    1
     8     1     2   ar
     9     2     3   ar
    10     3     4   ar
    11     4    17    1
    12    17    18    1
    13    18    19   ar
    14    19    20   ar
    15    20    21   ar
    16    21    22   ar
    17    22    23   ar
    18    23    24   ar
    19    24    25    1
    20    24    26   ar
    21    26    27   ar
    22     4     5   ar
    23     5     6   ar
    24    14    15   ar
    25    15    16   ar
    26    16    11   ar
    27     6     1   ar
    28    27    18   ar
    29    27    21    1
    30     7     8    1
    31    22    28    1
