@<TRIPOS>MOLECULE
*****
 27 30 0 0 0
SMALL
GASTEIGER

@<TRIPOS>ATOM
      1 C          -2.1607    3.3617   21.5512 C.ar    1  UNL1        0.0153
      2 C          -1.7784    3.2109   20.1086 C.ar    1  UNL1        0.0043
      3 C          -0.3508    2.9416   19.7352 C.ar    1  UNL1        0.0369
      4 C           0.6945    2.8230   20.8045 C.ar    1  UNL1        0.1384
      5 C           0.3122    2.9738   22.2471 C.ar    1  UNL1        0.0369
      6 C          -1.1155    3.2431   22.6204 C.ar    1  UNL1        0.0043
      7 C          -6.5992    4.3681   24.5830 C.3     1  UNL1        0.0095
      8 C          -5.3913    4.0924   23.7374 C.3     1  UNL1        0.0761
      9 C          -4.7585    4.1109   25.0973 C.3     1  UNL1        0.0095
     10 C          -3.9637    3.8231   23.3640 C.3     1  UNL1        0.0560
     11 C          -3.5884    3.6310   21.9245 C.2     1  UNL1        0.0767
     12 N          -4.6406    3.7082   20.8583 N.2     1  UNL1       -0.1836
     13 N          -6.0682    3.9775   21.2317 N.am    1  UNL1       -0.2062
     14 C          -6.4436    4.1696   22.6712 C.2     1  UNL1        0.2405
     15 O          -7.8712    4.4389   23.0445 O.2     1  UNL1       -0.2734
     16 H          -6.7589    4.0282   20.5319 H       1  UNL1        0.1772
     17 O           2.1221    2.5537   20.4312 O.3     1  UNL1       -0.4791
     18 C           2.5634    1.1557   20.1137 C.3     1  UNL1        0.1687
     19 C           3.0246    0.8110   18.7287 C.3     1  UNL1        0.0609
     20 C           3.4659   -0.5870   18.4112 C.3     1  UNL1        0.0758
     21 N           3.4460   -1.6404   19.4789 N.3     1  UNL1       -0.2737
     22 C           2.9849   -1.2957   20.8640 C.3     1  UNL1        0.0758
     23 C           2.5436    0.1023   21.1814 C.3     1  UNL1        0.0609
     24 C           3.8873   -3.0384   19.1615 C.3     1  UNL1        0.0575
     25 C           3.2321   -4.3877   19.1807 C.3     1  UNL1        0.0160
     26 C           4.5114   -5.0155   18.7126 C.3     1  UNL1        0.0028
     27 C           5.1667   -3.6663   18.6934 C.3     1  UNL1        0.0160
@<TRIPOS>BOND
     1     7     8    1
     2     8     9    1
     3     8    10    1
     4    10    11    1
     5    11     1    1
     6     1     2   ar
     7     2     3   ar
     8     3     4   ar
     9     4    17    1
    10    17    18    1
    11    18    19    1
    12    19    20    1
    13    20    21    1
    14    21    24    1
    15    24    25    1
    16    25    26    1
    17    26    27    1
    18    21    22    1
    19    22    23    1
    20     4     5   ar
    21     5     6   ar
    22    11    12    2
    23    12    13    1
    24    13    14   am
    25    14    15    2
    26    14     8    1
    27     6     1   ar
    28    23    18    1
    29    27    24    1
    30    13    16    1
@<TRIPOS>MOLECULE
*****
 27 30 0 0 0
SMALL
GASTEIGER

@<TRIPOS>ATOM
      1 C           2.5636   -0.3110   19.7801 C.ar    1  UNL1        0.0153
      2 C           2.9208    0.9687   19.0838 C.ar    1  UNL1        0.0043
      3 C           1.8981    2.0570   18.9435 C.ar    1  UNL1        0.0369
      4 C           0.5181    1.8656   19.4995 C.ar    1  UNL1        0.1384
      5 C           0.1609    0.5859   20.1958 C.ar    1  UNL1        0.0369
      6 C           1.1837   -0.5024   20.3361 C.ar    1  UNL1        0.0043
      7 C           4.9224   -5.2382   19.5288 C.3     1  UNL1        0.0095
      8 C           4.2895   -3.8804   19.6047 C.3     1  UNL1        0.0761
      9 C           3.1669   -4.6566   18.9822 C.3     1  UNL1        0.0095
     10 C           3.2668   -2.7921   19.4645 C.3     1  UNL1        0.0560
     11 C           3.5864   -1.3993   19.9203 C.2     1  UNL1        0.0767
     12 N           4.9287   -1.0947   20.5164 N.2     1  UNL1       -0.1836
     13 N           5.9514   -2.1829   20.6567 N.am    1  UNL1       -0.2062
     14 C           5.6318   -3.5758   20.2008 C.2     1  UNL1        0.2405
     15 O           6.6546   -4.6641   20.3411 O.2     1  UNL1       -0.2734
     16 H           6.8324   -1.9830   21.0479 H       1  UNL1        0.1772
     17 O          -0.5046    2.9538   19.3592 O.3     1  UNL1       -0.4791
     18 C          -1.4850    3.2088   20.4654 C.3     1  UNL1        0.1687
     19 C          -2.9565    3.2238   20.1748 C.3     1  UNL1        0.0609
     20 C          -3.9370    3.4788   21.2810 C.3     1  UNL1        0.0758
     21 N          -3.4460    3.7187   22.6778 N.3     1  UNL1       -0.2737
     22 C          -1.9745    3.7037   22.9685 C.3     1  UNL1        0.0758
     23 C          -0.9940    3.4487   21.8623 C.3     1  UNL1        0.0609
     24 C          -4.4264    3.9737   23.7840 C.3     1  UNL1        0.0575
     25 C          -4.3586    3.9731   25.2826 C.3     1  UNL1        0.0160
     26 C          -5.8130    4.3343   25.3484 C.3     1  UNL1        0.0028
     27 C          -5.8809    4.3349   23.8500 C.3     1  UNL1        0.0160
@<TRIPOS>BOND
     1     7     8    1
     2     8     9    1
     3     8    10    1
     4    10    11    1
     5    11     1    1
     6     1     2   ar
     7     2     3   ar
     8     3     4   ar
     9     4    17    1
    10    17    18    1
    11    18    19    1
    12    19    20    1
    13    20    21    1
    14    21    24    1
    15    24    25    1
    16    25    26    1
    17    26    27    1
    18    21    22    1
    19    22    23    1
    20     4     5   ar
    21     5     6   ar
    22    11    12    2
    23    12    13    1
    24    13    14   am
    25    14    15    2
    26    14     8    1
    27     6     1   ar
    28    23    18    1
    29    27    24    1
    30    13    16    1
@<TRIPOS>MOLECULE
*****
 27 30 0 0 0
SMALL
GASTEIGER

@<TRIPOS>ATOM
      1 C          -2.2697    3.4370   21.1719 C.ar    1  UNL1        0.0153
      2 C          -1.2056    3.1319   22.1841 C.ar    1  UNL1        0.0043
      3 C           0.2016    2.8684   21.7367 C.ar    1  UNL1        0.0369
      4 C           0.5448    2.9099   20.2770 C.ar    1  UNL1        0.1384
      5 C          -0.5193    3.2150   19.2648 C.ar    1  UNL1        0.0369
      6 C          -1.9266    3.4786   19.7123 C.ar    1  UNL1        0.0043
      7 C          -7.3133    5.5417   21.3668 C.3     1  UNL1        0.0095
      8 C          -5.9334    4.9548   21.3269 C.3     1  UNL1        0.0761
      9 C          -5.8545    5.8858   20.1535 C.3     1  UNL1        0.0095
     10 C          -4.5262    4.6912   20.8795 C.3     1  UNL1        0.0560
     11 C          -3.6770    3.7005   21.6194 C.2     1  UNL1        0.0767
     12 N          -4.2351    2.9733   22.8067 N.2     1  UNL1       -0.1836
     13 N          -5.6423    3.2368   23.2541 N.am    1  UNL1       -0.2062
     14 C          -6.4915    4.2276   22.5142 C.2     1  UNL1        0.2405
     15 O          -7.8987    4.4911   22.9617 O.2     1  UNL1       -0.2734
     16 H          -6.0086    2.7596   24.0334 H       1  UNL1        0.1772
     17 O           1.9520    2.6464   19.8296 O.3     1  UNL1       -0.4791
     18 C           2.4260    1.2364   19.6365 C.3     1  UNL1        0.1687
     19 C           2.0695    0.1811   20.6410 C.3     1  UNL1        0.0609
     20 C           2.5435   -1.2289   20.4478 C.3     1  UNL1        0.0758
     21 N           3.3741   -1.5835   19.2502 N.3     1  UNL1       -0.2737
     22 C           3.7306   -0.5281   18.2457 C.3     1  UNL1        0.0758
     23 C           3.2566    0.8818   18.4389 C.3     1  UNL1        0.0609
     24 C           3.8481   -2.9935   19.0571 C.3     1  UNL1        0.0575
     25 C           3.2021   -4.3463   19.1097 C.3     1  UNL1        0.0160
     26 C           4.5184   -4.9874   18.7840 C.3     1  UNL1        0.0028
     27 C           5.1645   -3.6347   18.7314 C.3     1  UNL1        0.0160
@<TRIPOS>BOND
     1     7     8    1
     2     8     9    1
     3     8    10    1
     4    10    11    1
     5    11     1    1
     6     1     2   ar
     7     2     3   ar
     8     3     4   ar
     9     4    17    1
    10    17    18    1
    11    18    19    1
    12    19    20    1
    13    20    21    1
    14    21    24    1
    15    24    25    1
    16    25    26    1
    17    26    27    1
    18    21    22    1
    19    22    23    1
    20     4     5   ar
    21     5     6   ar
    22    11    12    2
    23    12    13    1
    24    13    14   am
    25    14    15    2
    26    14     8    1
    27     6     1   ar
    28    23    18    1
    29    27    24    1
    30    13    16    1
@<TRIPOS>MOLECULE
*****
 27 30 0 0 0
SMALL
GASTEIGER

@<TRIPOS>ATOM
      1 C           2.5845   -0.2817   19.7787 C.ar    1  UNL1        0.0153
      2 C           1.1886   -0.5013   20.2817 C.ar    1  UNL1        0.0043
      3 C           0.1625    0.5842   20.1447 C.ar    1  UNL1        0.0369
      4 C           0.5324    1.8895   19.5047 C.ar    1  UNL1        0.1384
      5 C           1.9284    2.1091   19.0016 C.ar    1  UNL1        0.0369
      6 C           2.9545    1.0235   19.1387 C.ar    1  UNL1        0.0043
      7 C           4.9438   -5.2098   19.5507 C.3     1  UNL1        0.0095
      8 C           4.3109   -3.8516   19.6199 C.3     1  UNL1        0.0761
      9 C           3.1789   -4.6365   19.0260 C.3     1  UNL1        0.0095
     10 C           3.2849   -2.7660   19.4829 C.3     1  UNL1        0.0560
     11 C           3.6106   -1.3673   19.9157 C.2     1  UNL1        0.0767
     12 N           4.9623   -1.0541   20.4856 N.2     1  UNL1       -0.1836
     13 N           5.9883   -2.1397   20.6226 N.am    1  UNL1       -0.2062
     14 C           5.6626   -3.5384   20.1898 C.2     1  UNL1        0.2405
     15 O           6.6887   -4.6240   20.3268 O.2     1  UNL1       -0.2734
     16 H           6.8755   -1.9341   20.9966 H       1  UNL1        0.1772
     17 O          -0.4936    2.9750   19.3676 O.3     1  UNL1       -0.4791
     18 C          -1.4630    3.2357   20.4822 C.3     1  UNL1        0.1687
     19 C          -0.9566    3.5333   21.8624 C.3     1  UNL1        0.0609
     20 C          -1.9260    3.7941   22.9770 C.3     1  UNL1        0.0758
     21 N          -3.4018    3.7573   22.7114 N.3     1  UNL1       -0.2737
     22 C          -3.9082    3.4597   21.3312 C.3     1  UNL1        0.0758
     23 C          -2.9388    3.1989   20.2166 C.3     1  UNL1        0.0609
     24 C          -4.3712    4.0180   23.8260 C.3     1  UNL1        0.0575
     25 C          -5.7747    4.5407   23.9105 C.3     1  UNL1        0.0160
     26 C          -5.7421    4.3868   25.4022 C.3     1  UNL1        0.0028
     27 C          -4.3387    3.8641   25.3177 C.3     1  UNL1        0.0160
@<TRIPOS>BOND
     1     7     8    1
     2     8     9    1
     3     8    10    1
     4    10    11    1
     5    11     1    1
     6     1     2   ar
     7     2     3   ar
     8     3     4   ar
     9     4    17    1
    10    17    18    1
    11    18    19    1
    12    19    20    1
    13    20    21    1
    14    21    24    1
    15    24    25    1
    16    25    26    1
    17    26    27    1
    18    21    22    1
    19    22    23    1
    20     4     5   ar
    21     5     6   ar
    22    11    12    2
    23    12    13    1
    24    13    14   am
    25    14    15    2
    26    14     8    1
    27     6     1   ar
    28    23    18    1
    29    27    24    1
    30    13    16    1
@<TRIPOS>MOLECULE
*****
 27 30 0 0 0
SMALL
GASTEIGER

@<TRIPOS>ATOM
      1 C           7.1890   -5.0127   25.8315 C.ar    1  UNL1        0.0153
      2 C           7.9626   -5.8780   24.8814 C.ar    1  UNL1        0.0043
      3 C           7.9036   -5.6115   23.4065 C.ar    1  UNL1        0.0369
      4 C           7.0709   -4.4795   22.8816 C.ar    1  UNL1        0.1384
      5 C           6.2973   -3.6142   23.8318 C.ar    1  UNL1        0.0369
      6 C           6.3564   -3.8808   25.3068 C.ar    1  UNL1        0.0043
      7 C           6.8219   -4.2414   31.2329 C.3     1  UNL1        0.0095
      8 C           6.9278   -4.4689   29.7540 C.3     1  UNL1        0.0761
      9 C           6.4525   -3.0462   29.7653 C.3     1  UNL1        0.0095
     10 C           6.8687   -4.2023   28.2791 C.3     1  UNL1        0.0560
     11 C           7.2481   -5.2794   27.3065 C.2     1  UNL1        0.0767
     12 N           7.6866   -6.6230   27.8088 N.2     1  UNL1       -0.1836
     13 N           7.7457   -6.8896   29.2837 N.am    1  UNL1       -0.2062
     14 C           7.3663   -5.8125   30.2563 C.2     1  UNL1        0.2405
     15 O           7.4254   -6.0791   31.7313 O.2     1  UNL1       -0.2734
     16 H           8.0335   -7.7715   29.6134 H       1  UNL1        0.1772
     17 O           7.0118   -4.2129   21.4067 O.3     1  UNL1       -0.4791
     18 C           5.9564   -3.3036   20.8506 C.3     1  UNL1        0.1687
     19 C           6.2375   -1.8391   20.6891 C.3     1  UNL1        0.0609
     20 C           5.1821   -0.9297   20.1330 C.3     1  UNL1        0.0758
     21 N           3.8457   -1.4849   19.7383 N.3     1  UNL1       -0.2737
     22 C           3.5647   -2.9494   19.8998 C.3     1  UNL1        0.0758
     23 C           4.6200   -3.8587   20.4560 C.3     1  UNL1        0.0609
     24 C           2.7904   -0.5755   19.1822 C.3     1  UNL1        0.0575
     25 C           1.3984   -0.1923   19.5893 C.3     1  UNL1        0.0160
     26 C           1.2979    0.7105   18.3957 C.3     1  UNL1        0.0028
     27 C           2.6898    0.3274   17.9885 C.3     1  UNL1        0.0160
@<TRIPOS>BOND
     1     7     8    1
     2     8     9    1
     3     8    10    1
     4    10    11    1
     5    11     1    1
     6     1     2   ar
     7     2     3   ar
     8     3     4   ar
     9     4    17    1
    10    17    18    1
    11    18    19    1
    12    19    20    1
    13    20    21    1
    14    21    24    1
    15    24    25    1
    16    25    26    1
    17    26    27    1
    18    21    22    1
    19    22    23    1
    20     4     5   ar
    21     5     6   ar
    22    11    12    2
    23    12    13    1
    24    13    14   am
    25    14    15    2
    26    14     8    1
    27     6     1   ar
    28    23    18    1
    29    27    24    1
    30    13    16    1
@<TRIPOS>MOLECULE
*****
 27 30 0 0 0
SMALL
GASTEIGER

@<TRIPOS>ATOM
      1 C           6.4028   -3.5816   21.2334 C.ar    1  UNL1        0.0153
      2 C           7.7133   -4.3040   21.1304 C.ar    1  UNL1        0.0043
      3 C           8.3062   -4.9586   22.3428 C.ar    1  UNL1        0.0369
      4 C           7.5886   -4.8908   23.6583 C.ar    1  UNL1        0.1384
      5 C           6.2781   -4.1684   23.7613 C.ar    1  UNL1        0.0369
      6 C           5.6851   -3.5138   22.5489 C.ar    1  UNL1        0.0043
      7 C           5.6925   -0.0983   17.0781 C.3     1  UNL1        0.0095
      8 C           5.8734   -1.0622   18.2131 C.3     1  UNL1        0.0761
      9 C           7.0598   -0.1717   18.4360 C.3     1  UNL1        0.0095
     10 C           6.4662   -1.7168   19.4256 C.3     1  UNL1        0.0560
     11 C           5.8099   -2.9270   20.0210 C.2     1  UNL1        0.0767
     12 N           4.5607   -3.4827   19.4039 N.2     1  UNL1       -0.1836
     13 N           3.9679   -2.8281   18.1915 N.am    1  UNL1       -0.2062
     14 C           4.6242   -1.6178   17.5961 C.2     1  UNL1        0.2405
     15 O           4.0313   -0.9632   16.3836 O.2     1  UNL1       -0.2734
     16 H           3.1480   -3.1928   17.7865 H       1  UNL1        0.1772
     17 O           8.1815   -5.5453   24.8707 O.3     1  UNL1       -0.4791
     18 C           7.8033   -5.0678   26.2414 C.3     1  UNL1        0.1687
     19 C           8.5020   -3.8845   26.8427 C.3     1  UNL1        0.0609
     20 C           8.1238   -3.4070   28.2134 C.3     1  UNL1        0.0758
     21 N           7.0469   -4.1126   28.9829 N.3     1  UNL1       -0.2737
     22 C           6.3481   -5.2959   28.3816 C.3     1  UNL1        0.0758
     23 C           6.7263   -5.7735   27.0109 C.3     1  UNL1        0.0609
     24 C           6.6686   -3.6351   30.3536 C.3     1  UNL1        0.0575
     25 C           5.9840   -2.4179   30.9014 C.3     1  UNL1        0.0160
     26 C           6.1338   -2.9597   32.2921 C.3     1  UNL1        0.0028
     27 C           6.8183   -4.1768   31.7444 C.3     1  UNL1        0.0160
@<TRIPOS>BOND
     1     7     8    1
     2     8     9    1
     3     8    10    1
     4    10    11    1
     5    11     1    1
     6     1     2   ar
     7     2     3   ar
     8     3     4   ar
     9     4    17    1
    10    17    18    1
    11    18    19    1
    12    19    20    1
    13    20    21    1
    14    21    24    1
    15    24    25    1
    16    25    26    1
    17    26    27    1
    18    21    22    1
    19    22    23    1
    20     4     5   ar
    21     5     6   ar
    22    11    12    2
    23    12    13    1
    24    13    14   am
    25    14    15    2
    26    14     8    1
    27     6     1   ar
    28    23    18    1
    29    27    24    1
    30    13    16    1
@<TRIPOS>MOLECULE
*****
 27 30 0 0 0
SMALL
GASTEIGER

@<TRIPOS>ATOM
      1 C           2.5584   -0.4003   19.8795 C.ar    1  UNL1        0.0153
      2 C           2.8882    0.8537   19.1254 C.ar    1  UNL1        0.0043
      3 C           1.8508    1.9245   18.9604 C.ar    1  UNL1        0.0369
      4 C           0.4835    1.7413   19.5496 C.ar    1  UNL1        0.1384
      5 C           0.1537    0.4873   20.3037 C.ar    1  UNL1        0.0369
      6 C           1.1912   -0.5835   20.4687 C.ar    1  UNL1        0.0043
      7 C           5.8917   -4.0345   22.2431 C.3     1  UNL1        0.0095
      8 C           4.9834   -3.0421   21.5796 C.3     1  UNL1        0.0761
      9 C           4.6116   -2.8163   23.0151 C.3     1  UNL1        0.0095
     10 C           3.9460   -1.9714   21.4146 C.3     1  UNL1        0.0560
     11 C           3.5959   -1.4711   20.0445 C.2     1  UNL1        0.0767
     12 N           4.2832   -2.0415   18.8394 N.2     1  UNL1       -0.1836
     13 N           5.3206   -3.1122   19.0044 N.am    1  UNL1       -0.2062
     14 C           5.6707   -3.6125   20.3745 C.2     1  UNL1        0.2405
     15 O           6.7082   -4.6833   20.5395 O.2     1  UNL1       -0.2734
     16 H           5.7717   -3.4866   18.2135 H       1  UNL1        0.1772
     17 O          -0.5538    2.8120   19.3846 O.3     1  UNL1       -0.4791
     18 C          -1.4837    3.1361   20.5161 C.3     1  UNL1        0.1687
     19 C          -0.9331    3.4126   21.8837 C.3     1  UNL1        0.0609
     20 C          -1.8630    3.7367   23.0151 C.3     1  UNL1        0.0758
     21 N          -3.3435    3.7843   22.7790 N.3     1  UNL1       -0.2737
     22 C          -3.8941    3.5078   21.4115 C.3     1  UNL1        0.0758
     23 C          -2.9642    3.1837   20.2800 C.3     1  UNL1        0.0609
     24 C          -4.2734    4.1084   23.9105 C.3     1  UNL1        0.0575
     25 C          -5.7631    4.1383   24.0838 C.3     1  UNL1        0.0160
     26 C          -5.5885    4.5667   25.5107 C.3     1  UNL1        0.0028
     27 C          -4.0988    4.5368   25.3375 C.3     1  UNL1        0.0160
@<TRIPOS>BOND
     1     7     8    1
     2     8     9    1
     3     8    10    1
     4    10    11    1
     5    11     1    1
     6     1     2   ar
     7     2     3   ar
     8     3     4   ar
     9     4    17    1
    10    17    18    1
    11    18    19    1
    12    19    20    1
    13    20    21    1
    14    21    24    1
    15    24    25    1
    16    25    26    1
    17    26    27    1
    18    21    22    1
    19    22    23    1
    20     4     5   ar
    21     5     6   ar
    22    11    12    2
    23    12    13    1
    24    13    14   am
    25    14    15    2
    26    14     8    1
    27     6     1   ar
    28    23    18    1
    29    27    24    1
    30    13    16    1
@<TRIPOS>MOLECULE
*****
 27 30 0 0 0
SMALL
GASTEIGER

@<TRIPOS>ATOM
      1 C          -1.2492    3.4867   22.9826 C.ar    1  UNL1        0.0153
      2 C          -1.8009    3.2347   21.6106 C.ar    1  UNL1        0.0043
      3 C          -0.8723    2.9252   20.4740 C.ar    1  UNL1        0.0369
      4 C           0.6081    2.8677   20.7093 C.ar    1  UNL1        0.1384
      5 C           1.1598    3.1196   22.0813 C.ar    1  UNL1        0.0369
      6 C           0.2311    3.4291   23.2179 C.ar    1  UNL1        0.0043
      7 C          -5.7943    4.8214   25.7148 C.3     1  UNL1        0.0095
      8 C          -4.5392    4.4541   24.9800 C.3     1  UNL1        0.0761
      9 C          -5.4792    4.6206   23.8229 C.3     1  UNL1        0.0095
     10 C          -3.6106    4.1446   23.8435 C.3     1  UNL1        0.0560
     11 C          -2.1779    3.7962   24.1192 C.2     1  UNL1        0.0767
     12 N          -1.6738    3.7572   25.5314 N.2     1  UNL1       -0.1836
     13 N          -2.6025    4.0667   26.6679 N.am    1  UNL1       -0.2062
     14 C          -4.0352    4.4152   26.3923 C.2     1  UNL1        0.2405
     15 O          -4.9639    4.7247   27.5289 O.2     1  UNL1       -0.2734
     16 H          -2.2717    4.0412   27.5948 H       1  UNL1        0.1772
     17 O           1.5366    2.5582   19.5727 O.3     1  UNL1       -0.4791
     18 C           2.1038    1.1777   19.4222 C.3     1  UNL1        0.1687
     19 C           3.0447    0.8723   18.2946 C.3     1  UNL1        0.0609
     20 C           3.6118   -0.5082   18.1441 C.3     1  UNL1        0.0758
     21 N           3.2381   -1.5832   19.1211 N.3     1  UNL1       -0.2737
     22 C           2.2973   -1.2778   20.2487 C.3     1  UNL1        0.0758
     23 C           1.7301    0.1027   20.3992 C.3     1  UNL1        0.0609
     24 C           3.8053   -2.9637   18.9706 C.3     1  UNL1        0.0575
     25 C           5.1331   -3.5255   18.5566 C.3     1  UNL1        0.0160
     26 C           4.6074   -4.9159   18.7577 C.3     1  UNL1        0.0028
     27 C           3.2796   -4.3541   19.1717 C.3     1  UNL1        0.0160
@<TRIPOS>BOND
     1     7     8    1
     2     8     9    1
     3     8    10    1
     4    10    11    1
     5    11     1    1
     6     1     2   ar
     7     2     3   ar
     8     3     4   ar
     9     4    17    1
    10    17    18    1
    11    18    19    1
    12    19    20    1
    13    20    21    1
    14    21    24    1
    15    24    25    1
    16    25    26    1
    17    26    27    1
    18    21    22    1
    19    22    23    1
    20     4     5   ar
    21     5     6   ar
    22    11    12    2
    23    12    13    1
    24    13    14   am
    25    14    15    2
    26    14     8    1
    27     6     1   ar
    28    23    18    1
    29    27    24    1
    30    13    16    1
@<TRIPOS>MOLECULE
*****
 27 30 0 0 0
SMALL
GASTEIGER

@<TRIPOS>ATOM
      1 C           3.4017    0.2928   19.0474 C.ar    1  UNL1        0.0153
      2 C           1.9198    0.2004   18.8341 C.ar    1  UNL1        0.0043
      3 C           1.1356    1.4281   18.4767 C.ar    1  UNL1        0.0369
      4 C           1.8332    2.7482   18.3327 C.ar    1  UNL1        0.1384
      5 C           3.3151    2.8406   18.5460 C.ar    1  UNL1        0.0369
      6 C           4.0993    1.6128   18.9034 C.ar    1  UNL1        0.0043
      7 C           4.7417   -4.9713   19.6787 C.3     1  UNL1        0.0095
      8 C           4.3891   -3.5228   19.5122 C.3     1  UNL1        0.0761
      9 C           3.1464   -4.1583   18.9627 C.3     1  UNL1        0.0095
     10 C           3.6050   -2.2951   19.1548 C.3     1  UNL1        0.0560
     11 C           4.1860   -0.9350   19.4048 C.2     1  UNL1        0.0767
     12 N           5.5511   -0.8025   20.0120 N.2     1  UNL1       -0.1836
     13 N           6.3352   -2.0303   20.3694 N.am    1  UNL1       -0.2062
     14 C           5.7543   -3.3904   20.1194 C.2     1  UNL1        0.2405
     15 O           6.5385   -4.6182   20.4768 O.2     1  UNL1       -0.2734
     16 H           7.2313   -1.9434   20.7679 H       1  UNL1        0.1772
     17 O           1.0490    3.9759   17.9753 O.3     1  UNL1       -0.4791
     18 C          -0.4455    3.9749   18.1036 C.3     1  UNL1        0.1687
     19 C          -1.0817    4.0039   19.4617 C.3     1  UNL1        0.0609
     20 C          -2.5762    4.0029   19.5899 C.3     1  UNL1        0.0758
     21 N          -3.4345    3.9730   18.3602 N.3     1  UNL1       -0.2737
     22 C          -2.7983    3.9440   17.0021 C.3     1  UNL1        0.0758
     23 C          -1.3038    3.9449   16.8738 C.3     1  UNL1        0.0609
     24 C          -4.9290    3.9720   18.4885 C.3     1  UNL1        0.0575
     25 C          -5.9200    3.2362   19.3410 C.3     1  UNL1        0.0160
     26 C          -7.0426    3.9706   18.6699 C.3     1  UNL1        0.0028
     27 C          -6.0517    4.7064   17.8173 C.3     1  UNL1        0.0160
@<TRIPOS>BOND
     1     7     8    1
     2     8     9    1
     3     8    10    1
     4    10    11    1
     5    11     1    1
     6     1     2   ar
     7     2     3   ar
     8     3     4   ar
     9     4    17    1
    10    17    18    1
    11    18    19    1
    12    19    20    1
    13    20    21    1
    14    21    24    1
    15    24    25    1
    16    25    26    1
    17    26    27    1
    18    21    22    1
    19    22    23    1
    20     4     5   ar
    21     5     6   ar
    22    11    12    2
    23    12    13    1
    24    13    14   am
    25    14    15    2
    26    14     8    1
    27     6     1   ar
    28    23    18    1
    29    27    24    1
    30    13    16    1
