@<TRIPOS>MOLECULE
*****
 29 33 0 0 0
SMALL
GASTEIGER

@<TRIPOS>ATOM
      1 C           3.8957   -1.3405   21.2012 C.ar    1  UNL1        0.0013
      2 C           3.6668   -1.5707   22.6656 C.ar    1  UNL1        0.0002
      3 C           4.5900   -2.4663   23.4373 C.ar    1  UNL1        0.0051
      4 C           5.7421   -3.1317   22.7445 C.ar    1  UNL1        0.0623
      5 C           5.9710   -2.9014   21.2801 C.ar    1  UNL1        0.0775
      6 C           5.0478   -2.0058   20.5085 C.ar    1  UNL1        0.0167
      7 N           7.1231   -3.5667   20.5874 N.am    1  UNL1       -0.1720
      8 C           8.0464   -4.4623   21.3590 C.2     1  UNL1        0.3160
      9 O           9.1985   -5.1277   20.6663 O.2     1  UNL1       -0.2638
     10 C           7.8175   -4.6926   22.8235 C.2     1  UNL1        0.2907
     11 N           8.5548   -5.5165   23.8373 N.2     1  UNL1       -0.0255
     12 C           7.8583   -5.3602   25.1565 C.2     1  UNL1        0.3787
     13 N           6.6906   -4.4399   24.9582 N.2     1  UNL1       -0.0302
     14 C           6.6654   -4.0273   23.5163 C.2     1  UNL1        0.2419
     15 C           8.2592   -6.0103   26.4475 C.ar    1  UNL1        0.1263
     16 C           7.9744   -7.4653   26.6748 C.ar    1  UNL1        0.1484
     17 F           7.2886   -8.2704   25.6110 F       1  UNL1       -0.2039
     18 C           8.3753   -8.1153   27.9658 C.ar    1  UNL1        0.0300
     19 C           9.0610   -7.3103   29.0296 C.ar    1  UNL1        0.0032
     20 C           9.3458   -5.8553   28.8024 C.ar    1  UNL1        0.0118
     21 C           8.9450   -5.2053   27.5113 C.ar    1  UNL1        0.0673
     22 CL          9.2298   -3.7501   27.2841 Cl      1  UNL1       -0.0819
     23 C           0.2028    2.2421   18.1143 C.3     1  UNL1        0.0310
     24 C           1.1260    1.3464   18.8860 C.ar    1  UNL1       -0.0218
     25 C           0.5726    0.4095   19.9185 C.ar    1  UNL1       -0.0043
     26 C           1.4958   -0.4861   20.6902 C.ar    1  UNL1       -0.0003
     27 C           2.9724   -0.4448   20.4295 C.ar    1  UNL1        0.0000
     28 C           3.5258    0.4921   19.3970 C.ar    1  UNL1       -0.0003
     29 C           2.6026    1.3877   18.6253 C.ar    1  UNL1       -0.0043
@<TRIPOS>BOND
     1    23    24    1
     2    24    25   ar
     3    25    26   ar
     4    26    27   ar
     5    27     1    1
     6     1     2   ar
     7     2     3   ar
     8     3     4   ar
     9     4     5   ar
    10     5     6   ar
    11     5     7    2
    12     7     8    1
    13     8     9    2
    14     8    10    1
    15    10    11    2
    16    11    12    1
    17    12    15    1
    18    15    16   ar
    19    16    17    1
    20    16    18   ar
    21    18    19   ar
    22    19    20   ar
    23    20    21   ar
    24    21    22    1
    25    12    13    2
    26    13    14    1
    27    27    28   ar
    28    28    29   ar
    29    29    24   ar
    30     6     1   ar
    31    14    10    1
    32    14     4    2
    33    21    15   ar
@<TRIPOS>MOLECULE
*****
 29 33 0 0 0
SMALL
GASTEIGER

@<TRIPOS>ATOM
      1 C           6.5780   -4.2022   23.5403 C.ar    1  UNL1        0.0013
      2 C           5.4874   -3.2514   23.9359 C.ar    1  UNL1        0.0002
      3 C           4.9305   -2.2885   22.9296 C.ar    1  UNL1        0.0051
      4 C           5.4640   -2.2765   21.5278 C.ar    1  UNL1        0.0623
      5 C           6.5546   -3.2273   21.1322 C.ar    1  UNL1        0.0775
      6 C           7.1116   -4.1902   22.1385 C.ar    1  UNL1        0.0167
      7 N           7.0882   -3.2153   19.7304 N.am    1  UNL1       -0.1720
      8 C           6.5312   -2.2524   18.7241 C.2     1  UNL1        0.3160
      9 O           7.0648   -2.2404   17.3223 O.2     1  UNL1       -0.2638
     10 C           5.4406   -1.3015   19.1197 C.2     1  UNL1        0.2907
     11 N           4.7008   -0.2470   18.3512 N.2     1  UNL1       -0.0255
     12 C           3.7100    0.3927   19.2780 C.2     1  UNL1        0.3787
     13 N           3.8374   -0.2664   20.6193 N.2     1  UNL1       -0.0302
     14 C           4.9070   -1.3136   20.5215 C.2     1  UNL1        0.2419
     15 C           2.7587    1.4976   18.9254 C.ar    1  UNL1        0.1263
     16 C           1.2843    1.2282   18.8687 C.ar    1  UNL1        0.1484
     17 F           0.7609   -0.1461   19.1645 F       1  UNL1       -0.2039
     18 C           0.3330    2.3331   18.5161 C.ar    1  UNL1        0.0300
     19 C           0.8562    3.7074   18.2202 C.ar    1  UNL1        0.0032
     20 C           2.3307    3.9767   18.2770 C.ar    1  UNL1        0.0118
     21 C           3.2820    2.8718   18.6296 C.ar    1  UNL1        0.0673
     22 CL          4.7565    3.1413   18.6863 Cl      1  UNL1       -0.0819
     23 C           8.8061   -8.0538   27.5654 C.3     1  UNL1        0.0310
     24 C           8.2491   -7.0909   26.5592 C.ar    1  UNL1       -0.0218
     25 C           8.4991   -7.3070   25.0960 C.ar    1  UNL1       -0.0043
     26 C           7.9421   -6.3441   24.0897 C.ar    1  UNL1       -0.0003
     27 C           7.1351   -5.1651   24.5466 C.ar    1  UNL1        0.0000
     28 C           6.8851   -4.9490   26.0098 C.ar    1  UNL1       -0.0003
     29 C           7.4421   -5.9119   27.0160 C.ar    1  UNL1       -0.0043
@<TRIPOS>BOND
     1    23    24    1
     2    24    25   ar
     3    25    26   ar
     4    26    27   ar
     5    27     1    1
     6     1     2   ar
     7     2     3   ar
     8     3     4   ar
     9     4     5   ar
    10     5     6   ar
    11     5     7    2
    12     7     8    1
    13     8     9    2
    14     8    10    1
    15    10    11    2
    16    11    12    1
    17    12    15    1
    18    15    16   ar
    19    16    17    1
    20    16    18   ar
    21    18    19   ar
    22    19    20   ar
    23    20    21   ar
    24    21    22    1
    25    12    13    2
    26    13    14    1
    27    27    28   ar
    28    28    29   ar
    29    29    24   ar
    30     6     1   ar
    31    14    10    1
    32    14     4    2
    33    21    15   ar
@<TRIPOS>MOLECULE
*****
 29 33 0 0 0
SMALL
GASTEIGER

@<TRIPOS>ATOM
      1 C           6.5861   -4.1703   23.5670 C.ar    1  UNL1        0.0013
      2 C           5.5149   -3.2017   23.9721 C.ar    1  UNL1        0.0002
      3 C           4.9649   -2.2298   22.9707 C.ar    1  UNL1        0.0051
      4 C           5.4862   -2.2264   21.5642 C.ar    1  UNL1        0.0623
      5 C           6.5575   -3.1950   21.1591 C.ar    1  UNL1        0.0775
      6 C           7.1074   -4.1669   22.1605 C.ar    1  UNL1        0.0167
      7 N           7.0788   -3.1917   19.7526 N.am    1  UNL1       -0.1720
      8 C           6.5288   -2.2197   18.7513 C.2     1  UNL1        0.3160
      9 O           7.0501   -2.2164   17.3448 O.2     1  UNL1       -0.2638
     10 C           5.4575   -1.2511   19.1563 C.2     1  UNL1        0.2907
     11 N           4.7283   -0.1845   18.3943 N.2     1  UNL1       -0.0255
     12 C           3.7564    0.4713   19.3298 C.2     1  UNL1        0.3787
     13 N           3.8848   -0.1899   20.6700 N.2     1  UNL1       -0.0302
     14 C           4.9362   -1.2544   20.5628 C.2     1  UNL1        0.2419
     15 C           2.8204    1.5917   18.9855 C.ar    1  UNL1        0.1263
     16 C           3.3672    2.9197   18.5526 C.ar    1  UNL1        0.1484
     17 F           4.8502    3.1273   18.4639 F       1  UNL1       -0.2039
     18 C           2.4312    4.0401   18.2083 C.ar    1  UNL1        0.0300
     19 C           0.9483    3.8325   18.2970 C.ar    1  UNL1        0.0032
     20 C           0.4014    2.5046   18.7299 C.ar    1  UNL1        0.0118
     21 C           1.3375    1.3842   19.0742 C.ar    1  UNL1        0.0673
     22 CL          0.7906    0.0562   19.5071 Cl      1  UNL1       -0.0819
     23 C           8.7862   -8.0582   27.5725 C.3     1  UNL1        0.0310
     24 C           8.2362   -7.0863   26.5712 C.ar    1  UNL1       -0.0218
     25 C           7.4501   -5.8959   27.0349 C.ar    1  UNL1       -0.0043
     26 C           6.9001   -4.9239   26.0335 C.ar    1  UNL1       -0.0003
     27 C           7.1362   -5.1423   24.5684 C.ar    1  UNL1        0.0000
     28 C           7.9222   -6.3327   24.1047 C.ar    1  UNL1       -0.0003
     29 C           8.4722   -7.3047   25.1060 C.ar    1  UNL1       -0.0043
@<TRIPOS>BOND
     1    23    24    1
     2    24    25   ar
     3    25    26   ar
     4    26    27   ar
     5    27     1    1
     6     1     2   ar
     7     2     3   ar
     8     3     4   ar
     9     4     5   ar
    10     5     6   ar
    11     5     7    2
    12     7     8    1
    13     8     9    2
    14     8    10    1
    15    10    11    2
    16    11    12    1
    17    12    15    1
    18    15    16   ar
    19    16    17    1
    20    16    18   ar
    21    18    19   ar
    22    19    20   ar
    23    20    21   ar
    24    21    22    1
    25    12    13    2
    26    13    14    1
    27    27    28   ar
    28    28    29   ar
    29    29    24   ar
    30     6     1   ar
    31    14    10    1
    32    14     4    2
    33    21    15   ar
@<TRIPOS>MOLECULE
*****
 29 33 0 0 0
SMALL
GASTEIGER

@<TRIPOS>ATOM
      1 C           5.0722   -0.5450   33.8710 C.ar    1  UNL1        0.0013
      2 C           4.6766   -1.9793   33.6808 C.ar    1  UNL1        0.0002
      3 C           5.3145   -2.7956   32.5961 C.ar    1  UNL1        0.0051
      4 C           6.3480   -2.1777   31.7016 C.ar    1  UNL1        0.0623
      5 C           6.7436   -0.7434   31.8919 C.ar    1  UNL1        0.0775
      6 C           6.1057    0.0729   32.9766 C.ar    1  UNL1        0.0167
      7 N           7.7771   -0.1255   30.9975 N.am    1  UNL1       -0.1720
      8 C           8.4150   -0.9418   29.9127 C.2     1  UNL1        0.3160
      9 O           9.4485   -0.3239   29.0183 O.2     1  UNL1       -0.2638
     10 C           8.0194   -2.3762   29.7224 C.2     1  UNL1        0.2907
     11 N           8.4717   -3.4211   28.7459 N.2     1  UNL1       -0.0255
     12 C           7.7179   -4.6847   29.0369 C.2     1  UNL1        0.3787
     13 N           6.7995   -4.4209   30.1932 N.2     1  UNL1       -0.0302
     14 C           6.9859   -2.9941   30.6169 C.2     1  UNL1        0.2419
     15 C           7.8577   -5.9842   28.3008 C.ar    1  UNL1        0.1263
     16 C           7.1709   -6.1763   26.9812 C.ar    1  UNL1        0.1484
     17 F           6.3442   -5.0690   26.3977 F       1  UNL1       -0.2039
     18 C           7.3108   -7.4758   26.2451 C.ar    1  UNL1        0.0300
     19 C           8.1375   -8.5831   26.8285 C.ar    1  UNL1        0.0032
     20 C           8.8243   -8.3909   28.1481 C.ar    1  UNL1        0.0118
     21 C           8.6844   -7.0915   28.8842 C.ar    1  UNL1        0.0673
     22 CL          9.3712   -6.8994   30.2039 Cl      1  UNL1       -0.0819
     23 C           2.5208    2.7206   38.2100 C.3     1  UNL1        0.0310
     24 C           3.1586    1.9042   37.1253 C.ar    1  UNL1       -0.0218
     25 C           2.9114    2.2458   35.6857 C.ar    1  UNL1       -0.0043
     26 C           3.5493    1.4293   34.6010 C.ar    1  UNL1       -0.0003
     27 C           4.4343    0.2714   34.9558 C.ar    1  UNL1        0.0000
     28 C           4.6815   -0.0701   36.3953 C.ar    1  UNL1       -0.0003
     29 C           4.0437    0.7463   37.4800 C.ar    1  UNL1       -0.0043
@<TRIPOS>BOND
     1    23    24    1
     2    24    25   ar
     3    25    26   ar
     4    26    27   ar
     5    27     1    1
     6     1     2   ar
     7     2     3   ar
     8     3     4   ar
     9     4     5   ar
    10     5     6   ar
    11     5     7    2
    12     7     8    1
    13     8     9    2
    14     8    10    1
    15    10    11    2
    16    11    12    1
    17    12    15    1
    18    15    16   ar
    19    16    17    1
    20    16    18   ar
    21    18    19   ar
    22    19    20   ar
    23    20    21   ar
    24    21    22    1
    25    12    13    2
    26    13    14    1
    27    27    28   ar
    28    28    29   ar
    29    29    24   ar
    30     6     1   ar
    31    14    10    1
    32    14     4    2
    33    21    15   ar
@<TRIPOS>MOLECULE
*****
 29 33 0 0 0
SMALL
GASTEIGER

@<TRIPOS>ATOM
      1 C           6.0206   -3.3663   24.6905 C.ar    1  UNL1        0.0013
      2 C           5.5212   -2.1596   25.4284 C.ar    1  UNL1        0.0002
      3 C           5.6867   -2.0689   26.9164 C.ar    1  UNL1        0.0051
      4 C           6.3514   -3.1849   27.6666 C.ar    1  UNL1        0.0623
      5 C           6.8508   -4.3915   26.9286 C.ar    1  UNL1        0.0775
      6 C           6.6854   -4.4822   25.4406 C.ar    1  UNL1        0.0167
      7 N           7.5156   -5.5075   27.6788 N.am    1  UNL1       -0.1720
      8 C           7.6810   -5.4168   29.1668 C.2     1  UNL1        0.3160
      9 O           8.3458   -6.5328   29.9170 O.2     1  UNL1       -0.2638
     10 C           7.1816   -4.2101   29.9048 C.2     1  UNL1        0.2907
     11 N           7.2037   -3.8425   31.3590 N.2     1  UNL1       -0.0255
     12 C           6.5526   -2.4995   31.5075 C.2     1  UNL1        0.3787
     13 N           6.1281   -2.0369   30.1452 N.2     1  UNL1       -0.0302
     14 C           6.5169   -3.0941   29.1547 C.2     1  UNL1        0.2419
     15 C           6.3598   -1.7504   32.7927 C.ar    1  UNL1        0.1263
     16 C           5.0404   -1.8081   33.5037 C.ar    1  UNL1        0.1484
     17 F           3.9136   -2.6150   32.9296 F       1  UNL1       -0.2039
     18 C           4.8476   -1.0591   34.7889 C.ar    1  UNL1        0.0300
     19 C           5.9743   -0.2523   35.3631 C.ar    1  UNL1        0.0032
     20 C           7.2937   -0.1946   34.6520 C.ar    1  UNL1        0.0118
     21 C           7.4865   -0.9436   33.3668 C.ar    1  UNL1        0.0673
     22 CL          8.8060   -0.8859   32.6557 Cl      1  UNL1       -0.0819
     23 C           5.3588   -3.7292   18.7381 C.3     1  UNL1        0.0310
     24 C           5.5243   -3.6385   20.2261 C.ar    1  UNL1       -0.0218
     25 C           6.8760   -3.8404   20.8442 C.ar    1  UNL1       -0.0043
     26 C           7.0415   -3.7497   22.3323 C.ar    1  UNL1       -0.0003
     27 C           5.8552   -3.4570   23.2023 C.ar    1  UNL1        0.0000
     28 C           4.5034   -3.2551   22.5843 C.ar    1  UNL1       -0.0003
     29 C           4.3379   -3.3458   21.0962 C.ar    1  UNL1       -0.0043
@<TRIPOS>BOND
     1    23    24    1
     2    24    25   ar
     3    25    26   ar
     4    26    27   ar
     5    27     1    1
     6     1     2   ar
     7     2     3   ar
     8     3     4   ar
     9     4     5   ar
    10     5     6   ar
    11     5     7    2
    12     7     8    1
    13     8     9    2
    14     8    10    1
    15    10    11    2
    16    11    12    1
    17    12    15    1
    18    15    16   ar
    19    16    17    1
    20    16    18   ar
    21    18    19   ar
    22    19    20   ar
    23    20    21   ar
    24    21    22    1
    25    12    13    2
    26    13    14    1
    27    27    28   ar
    28    28    29   ar
    29    29    24   ar
    30     6     1   ar
    31    14    10    1
    32    14     4    2
    33    21    15   ar
@<TRIPOS>MOLECULE
*****
 29 33 0 0 0
SMALL
GASTEIGER

@<TRIPOS>ATOM
      1 C           1.7157    0.7927   19.3703 C.ar    1  UNL1        0.0013
      2 C           1.0268    0.5613   20.6825 C.ar    1  UNL1        0.0002
      3 C          -0.1844    1.3680   21.0461 C.ar    1  UNL1        0.0051
      4 C          -0.7067    2.4060   20.0976 C.ar    1  UNL1        0.0623
      5 C          -0.0179    2.6373   18.7854 C.ar    1  UNL1        0.0775
      6 C           1.1933    1.8307   18.4217 C.ar    1  UNL1        0.0167
      7 N          -0.5402    3.6753   17.8369 N.am    1  UNL1       -0.1720
      8 C          -1.7514    4.4820   18.2005 C.2     1  UNL1        0.3160
      9 O          -2.2738    5.5200   17.2520 O.2     1  UNL1       -0.2638
     10 C          -2.4403    4.2506   19.5128 C.2     1  UNL1        0.2907
     11 N          -3.6451    4.8873   20.1400 N.2     1  UNL1       -0.0255
     12 C          -3.8672    4.2428   21.4760 C.2     1  UNL1        0.3787
     13 N          -2.7999    3.2078   21.6747 N.2     1  UNL1       -0.0302
     14 C          -1.9180    3.2126   20.4613 C.2     1  UNL1        0.2419
     15 C          -4.9642    4.5749   22.4436 C.ar    1  UNL1        0.1263
     16 C          -6.3985    4.4101   22.0367 C.ar    1  UNL1        0.1484
     17 F          -6.7359    3.9131   20.6622 F       1  UNL1       -0.2039
     18 C          -7.4955    4.7423   23.0043 C.ar    1  UNL1        0.0300
     19 C          -7.1583    5.2392   24.3788 C.ar    1  UNL1        0.0032
     20 C          -5.7240    5.4040   24.7857 C.ar    1  UNL1        0.0118
     21 C          -4.6270    5.0719   23.8181 C.ar    1  UNL1        0.0673
     22 CL         -3.1926    5.2367   24.2250 Cl      1  UNL1       -0.0819
     23 C           6.5605   -2.4339   17.9154 C.3     1  UNL1        0.0310
     24 C           5.3494   -1.6273   18.2791 C.ar    1  UNL1       -0.0218
     25 C           5.0238   -0.3775   17.5162 C.ar    1  UNL1       -0.0043
     26 C           3.8125    0.4291   17.8799 C.ar    1  UNL1       -0.0003
     27 C           2.9269   -0.0140   19.0065 C.ar    1  UNL1        0.0000
     28 C           3.2525   -1.2637   19.7695 C.ar    1  UNL1       -0.0003
     29 C           4.4637   -2.0704   19.4058 C.ar    1  UNL1       -0.0043
@<TRIPOS>BOND
     1    23    24    1
     2    24    25   ar
     3    25    26   ar
     4    26    27   ar
     5    27     1    1
     6     1     2   ar
     7     2     3   ar
     8     3     4   ar
     9     4     5   ar
    10     5     6   ar
    11     5     7    2
    12     7     8    1
    13     8     9    2
    14     8    10    1
    15    10    11    2
    16    11    12    1
    17    12    15    1
    18    15    16   ar
    19    16    17    1
    20    16    18   ar
    21    18    19   ar
    22    19    20   ar
    23    20    21   ar
    24    21    22    1
    25    12    13    2
    26    13    14    1
    27    27    28   ar
    28    28    29   ar
    29    29    24   ar
    30     6     1   ar
    31    14    10    1
    32    14     4    2
    33    21    15   ar
@<TRIPOS>MOLECULE
*****
 29 33 0 0 0
SMALL
GASTEIGER

@<TRIPOS>ATOM
      1 C           3.3132   -1.0012   21.2299 C.ar    1  UNL1        0.0013
      2 C           2.2713   -1.1336   20.1590 C.ar    1  UNL1        0.0002
      3 C           1.0989   -0.1983   20.1335 C.ar    1  UNL1        0.0051
      4 C           0.9685    0.8695   21.1789 C.ar    1  UNL1        0.0623
      5 C           2.0104    1.0019   22.2498 C.ar    1  UNL1        0.0775
      6 C           3.1827    0.0665   22.2753 C.ar    1  UNL1        0.0167
      7 N           1.8799    2.0696   23.2952 N.am    1  UNL1       -0.1720
      8 C           0.7076    3.0050   23.2697 C.2     1  UNL1        0.3160
      9 O           0.5771    4.0727   24.3151 O.2     1  UNL1       -0.2638
     10 C          -0.3344    2.8726   22.1987 C.2     1  UNL1        0.2907
     11 N          -1.5906    3.6434   21.9197 N.2     1  UNL1       -0.0255
     12 C          -2.2364    3.0521   20.7019 C.2     1  UNL1        0.3787
     13 N          -1.3795    1.9158   20.2282 N.2     1  UNL1       -0.0302
     14 C          -0.2039    1.8048   21.1533 C.2     1  UNL1        0.2419
     15 C          -3.5148    3.5157   20.0689 C.ar    1  UNL1        0.1263
     16 C          -3.5075    4.0472   18.6663 C.ar    1  UNL1        0.1484
     17 F          -2.2218    4.1152   17.8966 F       1  UNL1       -0.2039
     18 C          -4.7860    4.5108   18.0332 C.ar    1  UNL1        0.0300
     19 C          -6.0717    4.4429   18.8028 C.ar    1  UNL1        0.0032
     20 C          -6.0789    3.9113   20.2054 C.ar    1  UNL1        0.0118
     21 C          -4.8005    3.4477   20.8385 C.ar    1  UNL1        0.0673
     22 CL         -4.8079    2.9162   22.2411 Cl      1  UNL1       -0.0819
     23 C           8.0028   -4.7426   21.3319 C.3     1  UNL1        0.0310
     24 C           6.8304   -3.8073   21.3065 C.ar    1  UNL1       -0.0218
     25 C           5.8275   -3.8312   22.4216 C.ar    1  UNL1       -0.0043
     26 C           4.6550   -2.8958   22.3961 C.ar    1  UNL1       -0.0003
     27 C           4.4856   -1.9366   21.2554 C.ar    1  UNL1        0.0000
     28 C           5.4885   -1.9127   20.1402 C.ar    1  UNL1       -0.0003
     29 C           6.6609   -2.8480   20.1657 C.ar    1  UNL1       -0.0043
@<TRIPOS>BOND
     1    23    24    1
     2    24    25   ar
     3    25    26   ar
     4    26    27   ar
     5    27     1    1
     6     1     2   ar
     7     2     3   ar
     8     3     4   ar
     9     4     5   ar
    10     5     6   ar
    11     5     7    2
    12     7     8    1
    13     8     9    2
    14     8    10    1
    15    10    11    2
    16    11    12    1
    17    12    15    1
    18    15    16   ar
    19    16    17    1
    20    16    18   ar
    21    18    19   ar
    22    19    20   ar
    23    20    21   ar
    24    21    22    1
    25    12    13    2
    26    13    14    1
    27    27    28   ar
    28    28    29   ar
    29    29    24   ar
    30     6     1   ar
    31    14    10    1
    32    14     4    2
    33    21    15   ar
@<TRIPOS>MOLECULE
*****
 29 33 0 0 0
SMALL
GASTEIGER

@<TRIPOS>ATOM
      1 C           3.1493   -1.0884   22.3536 C.ar    1  UNL1        0.0013
      2 C           2.4526   -1.0882   21.0253 C.ar    1  UNL1        0.0002
      3 C           1.3496   -0.1077   20.7571 C.ar    1  UNL1        0.0051
      4 C           0.9432    0.8725   21.8173 C.ar    1  UNL1        0.0623
      5 C           1.6399    0.8723   23.1457 C.ar    1  UNL1        0.0775
      6 C           2.7430   -0.1082   23.4138 C.ar    1  UNL1        0.0167
      7 N           1.2336    1.8525   24.2059 N.am    1  UNL1       -0.1720
      8 C           0.1306    2.8330   23.9377 C.2     1  UNL1        0.3160
      9 O          -0.2758    3.8132   24.9979 O.2     1  UNL1       -0.2638
     10 C          -0.5662    2.8332   22.6093 C.2     1  UNL1        0.2907
     11 N          -1.6800    3.6747   22.0602 N.2     1  UNL1       -0.0255
     12 C          -1.9620    3.2144   20.6608 C.2     1  UNL1        0.3787
     13 N          -1.0226    2.0886   20.3448 N.2     1  UNL1       -0.0302
     14 C          -0.1599    1.8530   21.5491 C.2     1  UNL1        0.2419
     15 C          -3.0011    3.7806   19.7390 C.ar    1  UNL1        0.1263
     16 C          -4.4548    3.5104   19.9913 C.ar    1  UNL1        0.1484
     17 F          -4.8695    2.6740   21.1654 F       1  UNL1       -0.2039
     18 C          -5.4939    4.0767   19.0695 C.ar    1  UNL1        0.0300
     19 C          -5.0793    4.9131   17.8955 C.ar    1  UNL1        0.0032
     20 C          -3.6256    5.1833   17.6432 C.ar    1  UNL1        0.0118
     21 C          -2.5865    4.6171   18.5649 C.ar    1  UNL1        0.0673
     22 CL         -1.1327    4.8873   18.3126 Cl      1  UNL1       -0.0819
     23 C           7.5616   -5.0103   23.4264 C.3     1  UNL1        0.0310
     24 C           6.4586   -4.0299   23.1582 C.ar    1  UNL1       -0.0218
     25 C           5.8641   -3.2422   24.2880 C.ar    1  UNL1       -0.0043
     26 C           4.7610   -2.2617   24.0197 C.ar    1  UNL1       -0.0003
     27 C           4.2524   -2.0689   22.6219 C.ar    1  UNL1        0.0000
     28 C           4.8468   -2.8566   21.4921 C.ar    1  UNL1       -0.0003
     29 C           5.9499   -3.8370   21.7603 C.ar    1  UNL1       -0.0043
@<TRIPOS>BOND
     1    23    24    1
     2    24    25   ar
     3    25    26   ar
     4    26    27   ar
     5    27     1    1
     6     1     2   ar
     7     2     3   ar
     8     3     4   ar
     9     4     5   ar
    10     5     6   ar
    11     5     7    2
    12     7     8    1
    13     8     9    2
    14     8    10    1
    15    10    11    2
    16    11    12    1
    17    12    15    1
    18    15    16   ar
    19    16    17    1
    20    16    18   ar
    21    18    19   ar
    22    19    20   ar
    23    20    21   ar
    24    21    22    1
    25    12    13    2
    26    13    14    1
    27    27    28   ar
    28    28    29   ar
    29    29    24   ar
    30     6     1   ar
    31    14    10    1
    32    14     4    2
    33    21    15   ar
@<TRIPOS>MOLECULE
*****
 29 33 0 0 0
SMALL
GASTEIGER

@<TRIPOS>ATOM
      1 C           2.2783    0.1580   22.0443 C.ar    1  UNL1        0.0013
      2 C           1.1337    0.9796   21.5296 C.ar    1  UNL1        0.0002
      3 C           0.2315    1.6943   22.4914 C.ar    1  UNL1        0.0051
      4 C           0.4739    1.5876   23.9679 C.ar    1  UNL1        0.0623
      5 C           1.6186    0.7661   24.4825 C.ar    1  UNL1        0.0775
      6 C           2.5208    0.0513   23.5207 C.ar    1  UNL1        0.0167
      7 N           1.8610    0.6593   25.9589 N.am    1  UNL1       -0.1720
      8 C           0.9588    1.3741   26.9207 C.2     1  UNL1        0.3160
      9 O           1.2012    1.2673   28.3971 O.2     1  UNL1       -0.2638
     10 C          -0.1859    2.1957   26.4061 C.2     1  UNL1        0.2907
     11 N          -1.2350    3.0063   27.1078 N.2     1  UNL1       -0.0255
     12 C          -2.1256    3.6140   26.0651 C.2     1  UNL1        0.3787
     13 N          -1.6272    3.1790   24.7190 N.2     1  UNL1       -0.0302
     14 C          -0.4283    2.3024   24.9297 C.2     1  UNL1        0.2419
     15 C          -3.3074    4.5010   26.3233 C.ar    1  UNL1        0.1263
     16 C          -3.1896    5.6465   27.2844 C.ar    1  UNL1        0.1484
     17 F          -1.8900    5.9051   27.9875 F       1  UNL1       -0.2039
     18 C          -4.3714    6.5335   27.5426 C.ar    1  UNL1        0.0300
     19 C          -5.6709    6.2750   26.8396 C.ar    1  UNL1        0.0032
     20 C          -5.7888    5.1294   25.8785 C.ar    1  UNL1        0.0118
     21 C          -4.6070    4.2424   25.6204 C.ar    1  UNL1        0.0673
     22 CL         -4.7249    3.0968   24.6592 Cl      1  UNL1       -0.0819
     23 C           5.8873   -2.7013   18.1971 C.3     1  UNL1        0.0310
     24 C           4.9851   -1.9864   19.1589 C.ar    1  UNL1       -0.0218
     25 C           5.5514   -0.9666   20.1019 C.ar    1  UNL1       -0.0043
     26 C           4.6491   -0.2518   21.0637 C.ar    1  UNL1       -0.0003
     27 C           3.1806   -0.5568   21.0825 C.ar    1  UNL1        0.0000
     28 C           2.6143   -1.5766   20.1395 C.ar    1  UNL1       -0.0003
     29 C           3.5165   -2.2914   19.1777 C.ar    1  UNL1       -0.0043
@<TRIPOS>BOND
     1    23    24    1
     2    24    25   ar
     3    25    26   ar
     4    26    27   ar
     5    27     1    1
     6     1     2   ar
     7     2     3   ar
     8     3     4   ar
     9     4     5   ar
    10     5     6   ar
    11     5     7    2
    12     7     8    1
    13     8     9    2
    14     8    10    1
    15    10    11    2
    16    11    12    1
    17    12    15    1
    18    15    16   ar
    19    16    17    1
    20    16    18   ar
    21    18    19   ar
    22    19    20   ar
    23    20    21   ar
    24    21    22    1
    25    12    13    2
    26    13    14    1
    27    27    28   ar
    28    28    29   ar
    29    29    24   ar
    30     6     1   ar
    31    14    10    1
    32    14     4    2
    33    21    15   ar
