@<TRIPOS>MOLECULE
*****
 24 27 0 0 0
SMALL
GASTEIGER

@<TRIPOS>ATOM
      1 C         -12.6191  -18.0936   23.2917 C.2     1  UNL1        0.1244
      2 C         -12.3290  -17.6002   21.9052 C.2     1  UNL1        0.0624
      3 C         -11.0286  -17.9469   21.2426 C.2     1  UNL1        0.1442
      4 F         -10.7384  -17.4535   19.8561 F       1  UNL1       -0.2040
      5 C         -10.0185  -18.7869   21.9664 C.2     1  UNL1        0.0493
      6 C          -8.6602  -19.2860   21.5716 C.2     1  UNL1        0.0980
      7 C          -8.1108  -20.0879   22.7141 C.2     1  UNL1        0.1050
      8 N          -9.1297  -20.0843   23.8150 N.2     1  UNL1       -0.2474
      9 C         -10.3087  -19.2803   23.3529 C.2     1  UNL1        0.0690
     10 C         -11.6089  -18.9337   24.0156 C.3     1  UNL1        0.1097
     11 C         -14.3027  -18.4075   25.2453 C.3     1  UNL1        0.2520
     12 O         -13.9194  -17.7470   23.9543 O.2     1  UNL1       -0.4752
     13 C          -7.9720  -19.0284   20.2639 C.2     1  UNL1        0.3428
     14 O          -8.7132  -19.2254   18.9748 O.2     1  UNL1       -0.2448
     15 O          -6.5427  -18.5739   20.2453 O.3     1  UNL1       -0.4454
     16 C          -5.4379  -19.5785   20.1037 C.3     1  UNL1        0.2087
     17 C          -4.0173  -19.1726   20.3626 C.3     1  UNL1        0.0445
     18 C          -3.4479  -19.2761   21.7465 C.3     1  UNL1        0.0210
     19 C          -2.0273  -18.8701   22.0053 C.3     1  UNL1        0.0722
     20 N          -1.1760  -18.3606   20.8802 N.3     1  UNL1       -0.2727
     21 C          -1.7454  -18.2571   19.4963 C.3     1  UNL1        0.0722
     22 C          -3.1660  -18.6631   19.2375 C.3     1  UNL1        0.0210
     23 C          -1.9489  -18.5711   20.6898 C.3     1  UNL1        0.0722
     24 C          -3.2334  -18.9382   20.4556 C.3     1  UNL1        0.0210
@<TRIPOS>BOND
     1    11    12    1
     2    12     1    1
     3     1     2    2
     4     2     3    1
     5     3     4    1
     6     3     5    2
     7     5     6    1
     8     6    13    1
     9    13    14    2
    10    13    15    1
    11    15    16    1
    12    16    17    1
    13    17    18    1
    14    18    19    1
    15    19    20    1
    16    20    21    1
    17    21    22    1
    18    20    23    1
    19    23    24    1
    20     6     7    2
    21     7     8    1
    22     8     9    2
    23     9    10    1
    24    10     1    1
    25     9     5    1
    26    22    17    1
    27    24    17    1
@<TRIPOS>MOLECULE
*****
 24 27 0 0 0
SMALL
GASTEIGER

@<TRIPOS>ATOM
      1 C         -10.1622  -17.6836   22.6719 C.2     1  UNL1        0.1244
      2 C          -8.9422  -18.1753   21.9510 C.2     1  UNL1        0.0624
      3 C          -7.5863  -17.6606   22.3340 C.2     1  UNL1        0.1442
      4 F          -6.3662  -18.1523   21.6131 F       1  UNL1       -0.2040
      5 C          -7.4505  -16.6542   23.4379 C.2     1  UNL1        0.0493
      6 C          -6.2544  -15.9708   24.0317 C.2     1  UNL1        0.0980
      7 C          -6.7352  -15.0568   25.1195 C.2     1  UNL1        0.1050
      8 N          -8.2284  -15.1752   25.1981 N.2     1  UNL1       -0.2474
      9 C          -8.6705  -16.1624   24.1588 C.2     1  UNL1        0.0690
     10 C         -10.0264  -16.6771   23.7758 C.3     1  UNL1        0.1097
     11 C         -12.3315  -17.4737   21.2577 C.3     1  UNL1        0.2520
     12 O         -11.5181  -18.1983   22.2889 O.2     1  UNL1       -0.4752
     13 C          -4.8280  -16.1671   23.6113 C.2     1  UNL1        0.3428
     14 O          -4.1403  -15.1240   22.7812 O.2     1  UNL1       -0.2448
     15 O          -4.0891  -17.4066   24.0210 O.3     1  UNL1       -0.4454
     16 C          -2.8671  -17.8361   23.2644 C.3     1  UNL1        0.2087
     17 C          -2.9988  -18.3746   21.8707 C.3     1  UNL1        0.0445
     18 C          -3.6248  -19.7183   21.6417 C.3     1  UNL1        0.0210
     19 C          -3.7564  -20.2567   20.2479 C.3     1  UNL1        0.0722
     20 N          -3.2619  -19.4514   19.0830 N.3     1  UNL1       -0.2727
     21 C          -2.6359  -18.1077   19.3119 C.3     1  UNL1        0.0722
     22 C          -2.5043  -17.5693   20.7057 C.3     1  UNL1        0.0210
     23 C          -3.1681  -19.1148   19.8285 C.3     1  UNL1        0.0722
     24 C          -3.0491  -18.6278   21.0888 C.3     1  UNL1        0.0210
@<TRIPOS>BOND
     1    11    12    1
     2    12     1    1
     3     1     2    2
     4     2     3    1
     5     3     4    1
     6     3     5    2
     7     5     6    1
     8     6    13    1
     9    13    14    2
    10    13    15    1
    11    15    16    1
    12    16    17    1
    13    17    18    1
    14    18    19    1
    15    19    20    1
    16    20    21    1
    17    21    22    1
    18    20    23    1
    19    23    24    1
    20     6     7    2
    21     7     8    1
    22     8     9    2
    23     9    10    1
    24    10     1    1
    25     9     5    1
    26    22    17    1
    27    24    17    1
@<TRIPOS>MOLECULE
*****
 24 27 0 0 0
SMALL
GASTEIGER

@<TRIPOS>ATOM
      1 C          -9.1826  -19.6576   19.3383 C.2     1  UNL1        0.1244
      2 C          -8.5663  -19.9560   20.6729 C.2     1  UNL1        0.0624
      3 C          -9.2426  -19.4973   21.9307 C.2     1  UNL1        0.1442
      4 F          -8.6263  -19.7957   23.2653 F       1  UNL1       -0.2040
      5 C         -10.5353  -18.7403   21.8540 C.2     1  UNL1        0.0493
      6 C         -11.4260  -18.1649   22.9149 C.2     1  UNL1        0.0980
      7 C         -12.5928  -17.5109   22.2361 C.2     1  UNL1        0.1050
      8 N         -12.4232  -17.6821   20.7556 N.2     1  UNL1       -0.2474
      9 C         -11.1516  -18.4419   20.5194 C.2     1  UNL1        0.0690
     10 C         -10.4753  -18.9005   19.2616 C.3     1  UNL1        0.1097
     11 C          -8.8734  -21.4363   17.4701 C.3     1  UNL1        0.2520
     12 O          -8.5063  -20.1163   18.0804 O.2     1  UNL1       -0.4752
     13 C         -11.1911  -18.2318   24.3949 C.2     1  UNL1        0.3428
     14 O         -12.2253  -18.8455   25.2915 O.2     1  UNL1       -0.2448
     15 O          -9.9220  -17.6850   24.9784 O.3     1  UNL1       -0.4454
     16 C          -9.3886  -16.3641   24.5085 C.3     1  UNL1        0.2087
     17 C          -8.0082  -15.9295   24.9030 C.3     1  UNL1        0.0445
     18 C          -6.9322  -15.8154   23.8642 C.3     1  UNL1        0.0210
     19 C          -5.5518  -15.3808   24.2588 C.3     1  UNL1        0.0722
     20 N          -5.2475  -15.0604   25.6923 N.3     1  UNL1       -0.2727
     21 C          -6.3236  -15.1745   26.7311 C.3     1  UNL1        0.0722
     22 C          -7.7039  -15.6091   26.3364 C.3     1  UNL1        0.0210
     23 C          -6.0187  -15.2945   25.5240 C.3     1  UNL1        0.0722
     24 C          -7.2669  -15.6874   25.1673 C.3     1  UNL1        0.0210
@<TRIPOS>BOND
     1    11    12    1
     2    12     1    1
     3     1     2    2
     4     2     3    1
     5     3     4    1
     6     3     5    2
     7     5     6    1
     8     6    13    1
     9    13    14    2
    10    13    15    1
    11    15    16    1
    12    16    17    1
    13    17    18    1
    14    18    19    1
    15    19    20    1
    16    20    21    1
    17    21    22    1
    18    20    23    1
    19    23    24    1
    20     6     7    2
    21     7     8    1
    22     8     9    2
    23     9    10    1
    24    10     1    1
    25     9     5    1
    26    22    17    1
    27    24    17    1
@<TRIPOS>MOLECULE
*****
 24 27 0 0 0
SMALL
GASTEIGER

@<TRIPOS>ATOM
      1 C         -10.1179  -19.5017   19.3502 C.2     1  UNL1        0.1244
      2 C         -10.3569  -20.4212   20.5110 C.2     1  UNL1        0.0624
      3 C         -11.0596  -19.9155   21.7360 C.2     1  UNL1        0.1442
      4 F         -11.2986  -20.8351   22.8968 F       1  UNL1       -0.2040
      5 C         -11.5232  -18.4905   21.8002 C.2     1  UNL1        0.0493
      6 C         -12.2375  -17.7145   22.8669 C.2     1  UNL1        0.0980
      7 C         -12.4399  -16.3154   22.3653 C.2     1  UNL1        0.1050
      8 N         -11.8507  -16.2267   20.9887 N.2     1  UNL1       -0.2474
      9 C         -11.2842  -17.5710   20.6395 C.2     1  UNL1        0.0690
     10 C         -10.5816  -18.0765   19.4145 C.3     1  UNL1        0.1097
     11 C          -8.7369  -21.3448   18.1481 C.3     1  UNL1        0.2520
     12 O          -9.4153  -20.0073   18.1252 O.2     1  UNL1       -0.4752
     13 C         -12.6728  -18.2445   24.2008 C.2     1  UNL1        0.3428
     14 O         -14.1307  -18.2874   24.5513 O.2     1  UNL1       -0.2448
     15 O         -11.6504  -18.7317   25.1843 O.3     1  UNL1       -0.4454
     16 C         -10.1899  -18.6425   24.8541 C.3     1  UNL1        0.2087
     17 C          -9.3853  -17.4667   25.3233 C.3     1  UNL1        0.0445
     18 C          -8.9342  -17.3885   26.7517 C.3     1  UNL1        0.0210
     19 C          -8.1297  -16.2127   27.2209 C.3     1  UNL1        0.0722
     20 N          -7.7763  -15.1150   26.2616 N.3     1  UNL1       -0.2727
     21 C          -8.2275  -15.1931   24.8332 C.3     1  UNL1        0.0722
     22 C          -9.0320  -16.3690   24.3641 C.3     1  UNL1        0.0210
     23 C          -8.2190  -15.7394   25.9583 C.3     1  UNL1        0.0722
     24 C          -8.9464  -16.8026   25.5340 C.3     1  UNL1        0.0210
@<TRIPOS>BOND
     1    11    12    1
     2    12     1    1
     3     1     2    2
     4     2     3    1
     5     3     4    1
     6     3     5    2
     7     5     6    1
     8     6    13    1
     9    13    14    2
    10    13    15    1
    11    15    16    1
    12    16    17    1
    13    17    18    1
    14    18    19    1
    15    19    20    1
    16    20    21    1
    17    21    22    1
    18    20    23    1
    19    23    24    1
    20     6     7    2
    21     7     8    1
    22     8     9    2
    23     9    10    1
    24    10     1    1
    25     9     5    1
    26    22    17    1
    27    24    17    1
@<TRIPOS>MOLECULE
*****
 24 27 0 0 0
SMALL
GASTEIGER

@<TRIPOS>ATOM
      1 C          -8.4040  -19.6653   20.5857 C.2     1  UNL1        0.1244
      2 C          -8.3106  -18.5680   21.6041 C.2     1  UNL1        0.0624
      3 C          -6.9822  -18.2114   22.2028 C.2     1  UNL1        0.1442
      4 F          -6.8887  -17.1141   23.2211 F       1  UNL1       -0.2040
      5 C          -5.7473  -18.9523   21.7830 C.2     1  UNL1        0.0493
      6 C          -4.3110  -18.8242   22.1960 C.2     1  UNL1        0.0980
      7 C          -3.5167  -19.8424   21.4328 C.2     1  UNL1        0.1050
      8 N          -4.4621  -20.5997   20.5483 N.2     1  UNL1       -0.2474
      9 C          -5.8407  -20.0496   20.7647 C.2     1  UNL1        0.0690
     10 C          -7.1690  -20.4062   20.1660 C.3     1  UNL1        0.1097
     11 C         -10.6805  -18.9383   19.5666 C.3     1  UNL1        0.2520
     12 O          -9.7323  -20.0219   19.9871 O.2     1  UNL1       -0.4752
     13 C          -3.7648  -17.8491   23.1964 C.2     1  UNL1        0.3428
     14 O          -3.4309  -18.3072   24.5852 O.2     1  UNL1       -0.2448
     15 O          -3.5526  -16.4159   22.8081 O.3     1  UNL1       -0.4454
     16 C          -2.3201  -16.0184   22.0511 C.3     1  UNL1        0.2087
     17 C          -1.9322  -16.7606   20.8067 C.3     1  UNL1        0.0445
     18 C          -0.6030  -17.4513   20.7289 C.3     1  UNL1        0.0210
     19 C          -0.2152  -18.1935   19.4844 C.3     1  UNL1        0.0722
     20 N          -1.1567  -18.2451   18.3178 N.3     1  UNL1       -0.2727
     21 C          -2.4860  -17.5544   18.3957 C.3     1  UNL1        0.0722
     22 C          -2.8737  -16.8122   19.6401 C.3     1  UNL1        0.0210
     23 C          -1.4132  -17.8261   18.9785 C.3     1  UNL1        0.0722
     24 C          -1.7639  -17.1549   20.1037 C.3     1  UNL1        0.0210
@<TRIPOS>BOND
     1    11    12    1
     2    12     1    1
     3     1     2    2
     4     2     3    1
     5     3     4    1
     6     3     5    2
     7     5     6    1
     8     6    13    1
     9    13    14    2
    10    13    15    1
    11    15    16    1
    12    16    17    1
    13    17    18    1
    14    18    19    1
    15    19    20    1
    16    20    21    1
    17    21    22    1
    18    20    23    1
    19    23    24    1
    20     6     7    2
    21     7     8    1
    22     8     9    2
    23     9    10    1
    24    10     1    1
    25     9     5    1
    26    22    17    1
    27    24    17    1
@<TRIPOS>MOLECULE
*****
 24 27 0 0 0
SMALL
GASTEIGER

@<TRIPOS>ATOM
      1 C         -10.2175  -19.5436   19.2331 C.2     1  UNL1        0.1244
      2 C         -10.1853  -20.3913   20.4702 C.2     1  UNL1        0.0624
      3 C         -10.8657  -19.9190   21.7209 C.2     1  UNL1        0.1442
      4 F         -10.8335  -20.7667   22.9580 F       1  UNL1       -0.2040
      5 C         -11.5782  -18.5992   21.7344 C.2     1  UNL1        0.0493
      6 C         -12.3331  -17.8771   22.8109 C.2     1  UNL1        0.0980
      7 C         -12.8318  -16.5831   22.2391 C.2     1  UNL1        0.1050
      8 N         -12.3852  -16.5055   20.8093 N.2     1  UNL1       -0.2474
      9 C         -11.6104  -17.7515   20.4973 C.2     1  UNL1        0.0690
     10 C         -10.9301  -18.2237   19.2467 C.3     1  UNL1        0.1097
     11 C          -8.9708  -21.4030   17.9149 C.3     1  UNL1        0.2520
     12 O          -9.5372  -20.0158   17.9824 O.2     1  UNL1       -0.4752
     13 C         -12.5510  -18.3636   24.2130 C.2     1  UNL1        0.3428
     14 O         -13.9074  -18.2517   24.8434 O.2     1  UNL1       -0.2448
     15 O         -11.4123  -18.9619   24.9847 O.3     1  UNL1       -0.4454
     16 C         -10.1762  -18.1532   25.2457 C.3     1  UNL1        0.2087
     17 C          -9.2971  -17.7372   24.1038 C.3     1  UNL1        0.0445
     18 C          -9.3222  -16.3191   23.6159 C.3     1  UNL1        0.0210
     19 C          -8.4431  -15.9031   22.4739 C.3     1  UNL1        0.0722
     20 N          -7.5387  -16.9054   21.8200 N.3     1  UNL1       -0.2727
     21 C          -7.5135  -18.3236   22.3079 C.3     1  UNL1        0.0722
     22 C          -8.3927  -18.7395   23.4499 C.3     1  UNL1        0.0210
     23 C          -8.0023  -17.1802   22.4424 C.3     1  UNL1        0.0722
     24 C          -8.7973  -17.5564   23.4749 C.3     1  UNL1        0.0210
@<TRIPOS>BOND
     1    11    12    1
     2    12     1    1
     3     1     2    2
     4     2     3    1
     5     3     4    1
     6     3     5    2
     7     5     6    1
     8     6    13    1
     9    13    14    2
    10    13    15    1
    11    15    16    1
    12    16    17    1
    13    17    18    1
    14    18    19    1
    15    19    20    1
    16    20    21    1
    17    21    22    1
    18    20    23    1
    19    23    24    1
    20     6     7    2
    21     7     8    1
    22     8     9    2
    23     9    10    1
    24    10     1    1
    25     9     5    1
    26    22    17    1
    27    24    17    1
@<TRIPOS>MOLECULE
*****
 24 27 0 0 0
SMALL
GASTEIGER

@<TRIPOS>ATOM
      1 C          -9.2474  -19.1371   20.7142 C.2     1  UNL1        0.1244
      2 C          -7.7686  -19.3154   20.8911 C.2     1  UNL1        0.0624
      3 C          -7.0155  -18.4344   21.8434 C.2     1  UNL1        0.1442
      4 F          -5.5367  -18.6127   22.0203 F       1  UNL1       -0.2040
      5 C          -7.7413  -17.3751   22.6186 C.2     1  UNL1        0.0493
      6 C          -7.2694  -16.3647   23.6218 C.2     1  UNL1        0.0980
      7 C          -8.4565  -15.5620   24.0650 C.2     1  UNL1        0.1050
      8 N          -9.6621  -16.0762   23.3356 N.2     1  UNL1       -0.2474
      9 C          -9.2201  -17.1968   22.4417 C.2     1  UNL1        0.0690
     10 C          -9.9732  -18.0778   21.4895 C.3     1  UNL1        0.1097
     11 C          -9.3642  -20.4452   18.4726 C.3     1  UNL1        0.2520
     12 O         -10.0005  -20.0182   19.7620 O.2     1  UNL1       -0.4752
     13 C          -5.8580  -16.1881   24.0983 C.2     1  UNL1        0.3428
     14 O          -5.5741  -16.0405   25.5637 O.2     1  UNL1       -0.2448
     15 O          -4.7307  -16.1591   23.1093 O.3     1  UNL1       -0.4454
     16 C          -3.4754  -16.9345   23.3797 C.3     1  UNL1        0.2087
     17 C          -2.5837  -17.3382   22.2432 C.3     1  UNL1        0.0445
     18 C          -1.8125  -16.2963   21.4883 C.3     1  UNL1        0.0210
     19 C          -0.9207  -16.7001   20.3518 C.3     1  UNL1        0.0722
     20 N          -0.8002  -18.1457   19.9701 N.3     1  UNL1       -0.2727
     21 C          -1.5714  -19.1876   20.7249 C.3     1  UNL1        0.0722
     22 C          -2.4631  -18.7838   21.8615 C.3     1  UNL1        0.0210
     23 C          -1.3014  -17.9728   20.6000 C.3     1  UNL1        0.0722
     24 C          -2.1077  -17.6078   21.6277 C.3     1  UNL1        0.0210
@<TRIPOS>BOND
     1    11    12    1
     2    12     1    1
     3     1     2    2
     4     2     3    1
     5     3     4    1
     6     3     5    2
     7     5     6    1
     8     6    13    1
     9    13    14    2
    10    13    15    1
    11    15    16    1
    12    16    17    1
    13    17    18    1
    14    18    19    1
    15    19    20    1
    16    20    21    1
    17    21    22    1
    18    20    23    1
    19    23    24    1
    20     6     7    2
    21     7     8    1
    22     8     9    2
    23     9    10    1
    24    10     1    1
    25     9     5    1
    26    22    17    1
    27    24    17    1
@<TRIPOS>MOLECULE
*****
 24 27 0 0 0
SMALL
GASTEIGER

@<TRIPOS>ATOM
      1 C         -14.1696   -7.0901   17.5944 C.2     1  UNL1        0.1244
      2 C         -14.1305   -5.8217   16.7946 C.2     1  UNL1        0.0624
      3 C         -12.8903   -4.9779   16.7866 C.2     1  UNL1        0.1442
      4 F         -12.8513   -3.7095   15.9868 F       1  UNL1       -0.2040
      5 C         -11.6891   -5.4026   17.5783 C.2     1  UNL1        0.0493
      6 C         -10.3365   -4.7806   17.7614 C.2     1  UNL1        0.0980
      7 C          -9.5396   -5.6646   18.6744 C.2     1  UNL1        0.1050
      8 N         -10.3997   -6.8329   19.0555 N.2     1  UNL1       -0.2474
      9 C         -11.7282   -6.6710   18.3780 C.2     1  UNL1        0.0690
     10 C         -12.9683   -7.5147   18.3861 C.3     1  UNL1        0.1097
     11 C         -15.3414   -9.3631   18.0522 C.3     1  UNL1        0.2520
     12 O         -15.4097   -7.9338   17.6025 O.2     1  UNL1       -0.4752
     13 C          -9.8639   -3.4995   17.1406 C.2     1  UNL1        0.3428
     14 O          -8.6327   -3.4908   16.2838 O.2     1  UNL1       -0.2448
     15 O         -10.6224   -2.2272   17.3766 O.3     1  UNL1       -0.4454
     16 C         -11.1124   -1.8904   18.7537 C.3     1  UNL1        0.2087
     17 C         -12.5498   -2.1205   19.1155 C.3     1  UNL1        0.0445
     18 C         -13.6188   -1.2417   18.5368 C.3     1  UNL1        0.0210
     19 C         -15.0562   -1.4718   18.8986 C.3     1  UNL1        0.0722
     20 N         -15.4245   -2.5808   19.8391 N.3     1  UNL1       -0.2727
     21 C         -14.3555   -3.4596   20.4178 C.3     1  UNL1        0.0722
     22 C         -12.9181   -3.2294   20.0560 C.3     1  UNL1        0.0210
     23 C         -14.6235   -2.4932   19.6704 C.3     1  UNL1        0.0722
     24 C         -13.3237   -2.2852   19.3433 C.3     1  UNL1        0.0210
@<TRIPOS>BOND
     1    11    12    1
     2    12     1    1
     3     1     2    2
     4     2     3    1
     5     3     4    1
     6     3     5    2
     7     5     6    1
     8     6    13    1
     9    13    14    2
    10    13    15    1
    11    15    16    1
    12    16    17    1
    13    17    18    1
    14    18    19    1
    15    19    20    1
    16    20    21    1
    17    21    22    1
    18    20    23    1
    19    23    24    1
    20     6     7    2
    21     7     8    1
    22     8     9    2
    23     9    10    1
    24    10     1    1
    25     9     5    1
    26    22    17    1
    27    24    17    1
@<TRIPOS>MOLECULE
*****
 24 27 0 0 0
SMALL
GASTEIGER

@<TRIPOS>ATOM
      1 C          -6.3394  -20.7612   20.0223 C.2     1  UNL1        0.1244
      2 C          -7.0328  -19.9032   21.0387 C.2     1  UNL1        0.0624
      3 C          -6.2288  -19.0413   21.9665 C.2     1  UNL1        0.1442
      4 F          -6.9223  -18.1834   22.9830 F       1  UNL1       -0.2040
      5 C          -4.7315  -19.0374   21.8779 C.2     1  UNL1        0.0493
      6 C          -3.6821  -18.2969   22.6528 C.2     1  UNL1        0.0980
      7 C          -2.3401  -18.6971   22.1153 C.2     1  UNL1        0.1050
      8 N          -2.5601  -19.6850   21.0082 N.2     1  UNL1       -0.2474
      9 C          -4.0381  -19.8953   20.8615 C.2     1  UNL1        0.0690
     10 C          -4.8420  -20.7572   19.9337 C.3     1  UNL1        0.1097
     11 C          -8.4564  -21.1305   18.5623 C.3     1  UNL1        0.2520
     12 O          -7.1433  -21.6230   19.0945 O.2     1  UNL1       -0.4752
     13 C          -3.9310  -17.3265   23.7692 C.2     1  UNL1        0.3428
     14 O          -3.9203  -17.8013   25.1920 O.2     1  UNL1       -0.2448
     15 O          -4.1907  -15.8813   23.4628 O.3     1  UNL1       -0.4454
     16 C          -5.5944  -15.3523   23.4754 C.3     1  UNL1        0.2087
     17 C          -6.3994  -15.3918   24.7404 C.3     1  UNL1        0.0445
     18 C          -7.8835  -15.6008   24.6787 C.3     1  UNL1        0.0210
     19 C          -8.6885  -15.6403   25.9438 C.3     1  UNL1        0.0722
     20 N          -8.0094  -15.4708   27.2705 N.3     1  UNL1       -0.2727
     21 C          -6.5253  -15.2618   27.3321 C.3     1  UNL1        0.0722
     22 C          -5.7203  -15.2223   26.0671 C.3     1  UNL1        0.0210
     23 C          -7.5264  -15.4419   26.6043 C.3     1  UNL1        0.0722
     24 C          -6.7984  -15.4061   25.4605 C.3     1  UNL1        0.0210
@<TRIPOS>BOND
     1    11    12    1
     2    12     1    1
     3     1     2    2
     4     2     3    1
     5     3     4    1
     6     3     5    2
     7     5     6    1
     8     6    13    1
     9    13    14    2
    10    13    15    1
    11    15    16    1
    12    16    17    1
    13    17    18    1
    14    18    19    1
    15    19    20    1
    16    20    21    1
    17    21    22    1
    18    20    23    1
    19    23    24    1
    20     6     7    2
    21     7     8    1
    22     8     9    2
    23     9    10    1
    24    10     1    1
    25     9     5    1
    26    22    17    1
    27    24    17    1
