@<TRIPOS>MOLECULE
*****
 27 29 0 0 0
SMALL
GASTEIGER

@<TRIPOS>ATOM
      1 C          -7.8034  -18.3809   21.5226 C.2     1  UNL1        0.2420
      2 O          -9.2716  -18.6674   21.4123 O.2     1  UNL1       -0.2734
      3 N          -7.2763  -17.6065   22.6943 N.am    1  UNL1       -0.2760
      4 C          -5.8081  -17.3200   22.8045 C.3     1  UNL1        0.0983
      5 C          -5.2810  -16.5457   23.9761 C.3     1  UNL1        0.0476
      6 C          -6.2221  -16.0580   25.0375 C.ar    1  UNL1       -0.0229
      7 C          -5.6950  -15.2837   26.2091 C.ar    1  UNL1       -0.0045
      8 C          -6.6361  -14.7961   27.2704 C.ar    1  UNL1       -0.0003
      9 C          -8.1043  -15.0827   27.1601 C.ar    1  UNL1       -0.0003
     10 C          -8.6315  -15.8569   25.9885 C.ar    1  UNL1       -0.0030
     11 C          -7.6903  -16.3446   24.9272 C.ar    1  UNL1       -0.0082
     12 C          -8.2174  -17.1189   23.7556 C.3     1  UNL1        0.0975
     13 C          -9.6857  -17.4055   23.6453 C.3     1  UNL1        0.0224
     14 C         -10.5767  -16.4717   22.8809 C.3     1  UNL1        0.0020
     15 C         -12.0450  -16.7583   22.7706 C.3     1  UNL1        0.0001
     16 C         -12.6221  -17.9786   23.4247 C.3     1  UNL1        0.0000
     17 C         -11.7311  -18.9123   24.1891 C.3     1  UNL1        0.0001
     18 C         -10.2628  -18.6257   24.2994 C.3     1  UNL1        0.0020
     19 C          -6.8623  -18.8685   20.4613 C.3     1  UNL1        0.1552
     20 N          -6.2058  -20.2101   20.5999 N.3     1  UNL1       -0.2878
     21 H          -6.2407  -20.4541   21.5897 H       1  UNL1        0.1238
     22 C          -4.7852  -20.3994   20.1570 C.3     1  UNL1        0.0985
     23 C          -3.7570  -19.3523   20.4672 C.3     1  UNL1        0.1262
     24 O          -3.6369  -18.1375   19.5955 O.3     1  UNL1       -0.3830
     25 H          -4.2926  -18.1853   18.8823 H       1  UNL1        0.2104
     26 C          -2.2162  -18.3178   22.2854 C.3     1  UNL1        0.0026
     27 C          -2.8490  -19.5199   21.6493 C.3     1  UNL1        0.0307
@<TRIPOS>BOND
     1    26    27    1
     2    27    23    1
     3    23    24    1
     4    23    22    1
     5    22    20    1
     6    20    19    1
     7    19     1    1
     8     1     2    2
     9     1     3   am
    10     3     4    1
    11     4     5    1
    12     5     6    1
    13     6     7   ar
    14     7     8   ar
    15     8     9   ar
    16     9    10   ar
    17    10    11   ar
    18    11    12    1
    19    12    13    1
    20    13    14    1
    21    14    15    1
    22    15    16    1
    23    16    17    1
    24    17    18    1
    25    12     3    1
    26    18    13    1
    27    11     6   ar
    28    24    25    1
    29    20    21    1
@<TRIPOS>MOLECULE
*****
 27 29 0 0 0
SMALL
GASTEIGER

@<TRIPOS>ATOM
      1 C          -5.7546  -19.8729   21.0315 C.2     1  UNL1        0.2420
      2 O          -7.0477  -20.4076   20.4913 O.2     1  UNL1       -0.2734
      3 N          -5.7643  -18.7490   22.0249 N.am    1  UNL1       -0.2760
      4 C          -4.4711  -18.2144   22.5651 C.3     1  UNL1        0.0983
      5 C          -4.4808  -17.0905   23.5585 C.3     1  UNL1        0.0476
      6 C          -5.7837  -16.5013   24.0118 C.ar    1  UNL1       -0.0229
      7 C          -5.7933  -15.3775   25.0051 C.ar    1  UNL1       -0.0045
      8 C          -7.0962  -14.7883   25.4583 C.ar    1  UNL1       -0.0003
      9 C          -8.3894  -15.3230   24.9181 C.ar    1  UNL1       -0.0003
     10 C          -8.3797  -16.4468   23.9247 C.ar    1  UNL1       -0.0030
     11 C          -7.0768  -17.0360   23.4716 C.ar    1  UNL1       -0.0082
     12 C          -7.0671  -18.1599   22.4781 C.3     1  UNL1        0.0975
     13 C          -8.3603  -18.6945   21.9379 C.3     1  UNL1        0.0224
     14 C          -8.8659  -18.2287   20.6047 C.3     1  UNL1        0.0020
     15 C         -10.1591  -18.7634   20.0645 C.3     1  UNL1        0.0001
     16 C         -10.9467  -19.7639   20.8575 C.3     1  UNL1        0.0000
     17 C         -10.4410  -20.2296   22.1907 C.3     1  UNL1        0.0001
     18 C          -9.1479  -19.6950   22.7309 C.3     1  UNL1        0.0020
     19 C          -4.4517  -20.4621   20.5783 C.3     1  UNL1        0.1552
     20 N          -3.7689  -19.9220   19.3568 N.3     1  UNL1       -0.2878
     21 H          -2.8859  -20.4245   19.2667 H       1  UNL1        0.1238
     22 C          -3.4469  -18.4600   19.2622 C.3     1  UNL1        0.0985
     23 C          -2.0174  -18.0056   19.2574 C.3     1  UNL1        0.1262
     24 O          -1.2753  -17.8783   17.9601 O.3     1  UNL1       -0.3830
     25 H          -1.8605  -18.1258   17.2272 H       1  UNL1        0.2104
     26 C          -1.6205  -16.3826   21.2469 C.3     1  UNL1        0.0026
     27 C          -1.3301  -17.6787   20.5499 C.3     1  UNL1        0.0307
@<TRIPOS>BOND
     1    26    27    1
     2    27    23    1
     3    23    24    1
     4    23    22    1
     5    22    20    1
     6    20    19    1
     7    19     1    1
     8     1     2    2
     9     1     3   am
    10     3     4    1
    11     4     5    1
    12     5     6    1
    13     6     7   ar
    14     7     8   ar
    15     8     9   ar
    16     9    10   ar
    17    10    11   ar
    18    11    12    1
    19    12    13    1
    20    13    14    1
    21    14    15    1
    22    15    16    1
    23    16    17    1
    24    17    18    1
    25    12     3    1
    26    18    13    1
    27    11     6   ar
    28    24    25    1
    29    20    21    1
@<TRIPOS>MOLECULE
*****
 27 29 0 0 0
SMALL
GASTEIGER

@<TRIPOS>ATOM
      1 C          -6.3463  -18.4739   21.9568 C.2     1  UNL1        0.2420
      2 O          -5.7955  -17.6614   23.0910 O.2     1  UNL1       -0.2734
      3 N          -7.8143  -18.4362   21.6508 N.am    1  UNL1       -0.2760
      4 C          -8.3651  -19.2487   20.5166 C.3     1  UNL1        0.0983
      5 C          -9.8331  -19.2110   20.2106 C.3     1  UNL1        0.0476
      6 C         -10.7503  -18.3607   21.0387 C.ar    1  UNL1       -0.0229
      7 C         -12.2182  -18.3230   20.7327 C.ar    1  UNL1       -0.0045
      8 C         -13.1353  -17.4728   21.5608 C.ar    1  UNL1       -0.0003
      9 C         -12.5845  -16.6602   22.6950 C.ar    1  UNL1       -0.0003
     10 C         -11.1166  -16.6979   23.0011 C.ar    1  UNL1       -0.0030
     11 C         -10.1995  -17.5482   22.1729 C.ar    1  UNL1       -0.0082
     12 C          -8.7315  -17.5859   22.4789 C.3     1  UNL1        0.0975
     13 C          -8.1807  -16.7734   23.6131 C.3     1  UNL1        0.0224
     14 C          -8.4526  -17.1828   25.0304 C.3     1  UNL1        0.0020
     15 C          -7.9018  -16.3702   26.1646 C.3     1  UNL1        0.0001
     16 C          -7.0791  -15.1483   25.8815 C.3     1  UNL1        0.0000
     17 C          -6.8071  -14.7390   24.4643 C.3     1  UNL1        0.0001
     18 C          -7.3579  -15.5515   23.3301 C.3     1  UNL1        0.0020
     19 C          -5.4292  -19.3242   21.1287 C.3     1  UNL1        0.1552
     20 N          -4.7070  -18.7273   19.9572 N.3     1  UNL1       -0.2878
     21 H          -5.0183  -19.2355   19.1294 H       1  UNL1        0.1238
     22 C          -3.2074  -18.7224   19.9239 C.3     1  UNL1        0.0985
     23 C          -2.4284  -18.8738   21.1967 C.3     1  UNL1        0.1262
     24 O          -1.7598  -20.1780   21.5162 O.3     1  UNL1       -0.3830
     25 H          -1.9287  -20.8116   20.8014 H       1  UNL1        0.2104
     26 C          -2.0411  -16.3415   21.6300 C.3     1  UNL1        0.0026
     27 C          -2.3179  -17.7211   22.1500 C.3     1  UNL1        0.0307
@<TRIPOS>BOND
     1    26    27    1
     2    27    23    1
     3    23    24    1
     4    23    22    1
     5    22    20    1
     6    20    19    1
     7    19     1    1
     8     1     2    2
     9     1     3   am
    10     3     4    1
    11     4     5    1
    12     5     6    1
    13     6     7   ar
    14     7     8   ar
    15     8     9   ar
    16     9    10   ar
    17    10    11   ar
    18    11    12    1
    19    12    13    1
    20    13    14    1
    21    14    15    1
    22    15    16    1
    23    16    17    1
    24    17    18    1
    25    12     3    1
    26    18    13    1
    27    11     6   ar
    28    24    25    1
    29    20    21    1
@<TRIPOS>MOLECULE
*****
 27 29 0 0 0
SMALL
GASTEIGER

@<TRIPOS>ATOM
      1 C         -13.6957   -7.5001   17.8230 C.2     1  UNL1        0.2420
      2 O         -12.2394   -7.4830   17.4642 O.2     1  UNL1       -0.2734
      3 N         -14.3824   -6.2307   18.2318 N.am    1  UNL1       -0.2760
      4 C         -15.8388   -6.2479   18.5907 C.3     1  UNL1        0.0983
      5 C         -16.5255   -4.9785   18.9995 C.3     1  UNL1        0.0476
      6 C         -15.7558   -3.6919   19.0495 C.ar    1  UNL1       -0.0229
      7 C         -16.4425   -2.4226   19.4583 C.ar    1  UNL1       -0.0045
      8 C         -15.6729   -1.1361   19.5082 C.ar    1  UNL1       -0.0003
      9 C         -14.2165   -1.1190   19.1494 C.ar    1  UNL1       -0.0003
     10 C         -13.5298   -2.3883   18.7406 C.ar    1  UNL1       -0.0030
     11 C         -14.2995   -3.6748   18.6906 C.ar    1  UNL1       -0.0082
     12 C         -13.6128   -4.9442   18.2818 C.3     1  UNL1        0.0975
     13 C         -12.1564   -4.9271   17.9230 C.3     1  UNL1        0.0224
     14 C         -11.7371   -4.6997   16.5008 C.3     1  UNL1        0.0020
     15 C         -10.2807   -4.6826   16.1419 C.3     1  UNL1        0.0001
     16 C          -9.2438   -4.8928   17.2053 C.3     1  UNL1        0.0000
     17 C          -9.6632   -5.1201   18.6274 C.3     1  UNL1        0.0001
     18 C         -11.1195   -5.1373   18.9862 C.3     1  UNL1        0.0020
     19 C         -14.4654   -8.7866   17.7730 C.3     1  UNL1        0.1552
     20 N         -14.8222   -9.4970   19.0450 N.3     1  UNL1       -0.2878
     21 H         -14.4532  -10.4446   18.9665 H       1  UNL1        0.1238
     22 C         -16.2595   -9.6245   19.4551 C.3     1  UNL1        0.0985
     23 C         -17.1296  -10.6705   18.8237 C.3     1  UNL1        0.1262
     24 O         -16.8684  -12.1235   19.0893 O.3     1  UNL1       -0.3830
     25 H         -16.1077  -12.2118   19.6846 H       1  UNL1        0.2104
     26 C         -18.2090   -8.9508   17.2028 C.3     1  UNL1        0.0026
     27 C         -18.2608  -10.2635   17.9267 C.3     1  UNL1        0.0307
@<TRIPOS>BOND
     1    26    27    1
     2    27    23    1
     3    23    24    1
     4    23    22    1
     5    22    20    1
     6    20    19    1
     7    19     1    1
     8     1     2    2
     9     1     3   am
    10     3     4    1
    11     4     5    1
    12     5     6    1
    13     6     7   ar
    14     7     8   ar
    15     8     9   ar
    16     9    10   ar
    17    10    11   ar
    18    11    12    1
    19    12    13    1
    20    13    14    1
    21    14    15    1
    22    15    16    1
    23    16    17    1
    24    17    18    1
    25    12     3    1
    26    18    13    1
    27    11     6   ar
    28    24    25    1
    29    20    21    1
@<TRIPOS>MOLECULE
*****
 27 29 0 0 0
SMALL
GASTEIGER

@<TRIPOS>ATOM
      1 C         -12.6540   -5.5580   17.1759 C.2     1  UNL1        0.2420
      2 O         -12.7455   -4.1517   17.6899 O.2     1  UNL1       -0.2734
      3 N         -13.6967   -6.5659   17.5593 N.am    1  UNL1       -0.2760
      4 C         -13.6053   -7.9721   17.0454 C.3     1  UNL1        0.0983
      5 C         -14.6479   -8.9801   17.4287 C.3     1  UNL1        0.0476
      6 C         -15.7821   -8.5818   18.3260 C.ar    1  UNL1       -0.0229
      7 C         -16.8247   -9.5897   18.7094 C.ar    1  UNL1       -0.0045
      8 C         -17.9588   -9.1914   19.6067 C.ar    1  UNL1       -0.0003
      9 C         -18.0502   -7.7851   20.1206 C.ar    1  UNL1       -0.0003
     10 C         -17.0076   -6.7772   19.7373 C.ar    1  UNL1       -0.0030
     11 C         -15.8735   -7.1755   18.8400 C.ar    1  UNL1       -0.0082
     12 C         -14.8308   -6.1676   18.4566 C.3     1  UNL1        0.0975
     13 C         -14.9223   -4.7614   18.9706 C.3     1  UNL1        0.0224
     14 C         -15.7123   -3.7358   18.2128 C.3     1  UNL1        0.0020
     15 C         -15.8037   -2.3295   18.7268 C.3     1  UNL1        0.0001
     16 C         -15.1052   -1.9489   19.9985 C.3     1  UNL1        0.0000
     17 C         -14.3152   -2.9745   20.7562 C.3     1  UNL1        0.0001
     18 C         -14.2238   -4.3807   20.2422 C.3     1  UNL1        0.0020
     19 C         -11.5200   -5.9563   16.2786 C.3     1  UNL1        0.1552
     20 N         -10.3876   -5.0037   16.0334 N.3     1  UNL1       -0.2878
     21 H          -9.9609   -5.2753   15.1476 H       1  UNL1        0.1238
     22 C          -9.2747   -4.8883   17.0326 C.3     1  UNL1        0.0985
     23 C          -9.5894   -4.7350   18.4912 C.3     1  UNL1        0.1262
     24 O          -9.9761   -3.3929   19.0380 O.3     1  UNL1       -0.3830
     25 H          -9.9740   -2.7390   18.3216 H       1  UNL1        0.2104
     26 C          -9.4136   -7.3053   18.8273 C.3     1  UNL1        0.0026
     27 C          -9.5173   -5.9240   19.4029 C.3     1  UNL1        0.0307
@<TRIPOS>BOND
     1    26    27    1
     2    27    23    1
     3    23    24    1
     4    23    22    1
     5    22    20    1
     6    20    19    1
     7    19     1    1
     8     1     2    2
     9     1     3   am
    10     3     4    1
    11     4     5    1
    12     5     6    1
    13     6     7   ar
    14     7     8   ar
    15     8     9   ar
    16     9    10   ar
    17    10    11   ar
    18    11    12    1
    19    12    13    1
    20    13    14    1
    21    14    15    1
    22    15    16    1
    23    16    17    1
    24    17    18    1
    25    12     3    1
    26    18    13    1
    27    11     6   ar
    28    24    25    1
    29    20    21    1
@<TRIPOS>MOLECULE
*****
 27 29 0 0 0
SMALL
GASTEIGER

@<TRIPOS>ATOM
      1 C          -8.4885  -16.5614   23.5918 C.2     1  UNL1        0.2420
      2 O          -9.8504  -17.0558   23.2034 O.2     1  UNL1       -0.2734
      3 N          -7.2631  -17.2464   23.0633 N.am    1  UNL1       -0.2760
      4 C          -5.9012  -16.7520   23.4516 C.3     1  UNL1        0.0983
      5 C          -4.6758  -17.4369   22.9232 C.3     1  UNL1        0.0476
      6 C          -4.8123  -18.6162   22.0062 C.ar    1  UNL1       -0.0229
      7 C          -3.5869  -19.3011   21.4777 C.ar    1  UNL1       -0.0045
      8 C          -3.7234  -20.4803   20.5608 C.ar    1  UNL1       -0.0003
      9 C          -5.0853  -20.9747   20.1725 C.ar    1  UNL1       -0.0003
     10 C          -6.3107  -20.2898   20.7010 C.ar    1  UNL1       -0.0030
     11 C          -6.1742  -19.1106   21.6178 C.ar    1  UNL1       -0.0082
     12 C          -7.3996  -18.4256   22.1464 C.3     1  UNL1        0.0975
     13 C          -8.7615  -18.9200   21.7580 C.3     1  UNL1        0.0224
     14 C          -9.3571  -18.5199   20.4407 C.3     1  UNL1        0.0020
     15 C         -10.7190  -19.0143   20.0523 C.3     1  UNL1        0.0001
     16 C         -11.4853  -19.9087   20.9813 C.3     1  UNL1        0.0000
     17 C         -10.8897  -20.3087   22.2985 C.3     1  UNL1        0.0001
     18 C          -9.5278  -19.8144   22.6869 C.3     1  UNL1        0.0020
     19 C          -8.3519  -15.3822   24.5087 C.3     1  UNL1        0.1552
     20 N          -8.7938  -15.4885   25.9381 N.3     1  UNL1       -0.2878
     21 H          -9.1995  -14.5868   26.1888 H       1  UNL1        0.1238
     22 C          -7.7983  -15.8279   27.0077 C.3     1  UNL1        0.0985
     23 C          -6.6129  -14.9382   27.2385 C.3     1  UNL1        0.1262
     24 O          -6.6918  -13.8299   28.2461 O.3     1  UNL1       -0.3830
     25 H          -7.5712  -13.8272   28.6556 H       1  UNL1        0.2104
     26 C          -4.6761  -16.4976   26.4853 C.3     1  UNL1        0.0026
     27 C          -5.3486  -15.1569   26.4616 C.3     1  UNL1        0.0307
@<TRIPOS>BOND
     1    26    27    1
     2    27    23    1
     3    23    24    1
     4    23    22    1
     5    22    20    1
     6    20    19    1
     7    19     1    1
     8     1     2    2
     9     1     3   am
    10     3     4    1
    11     4     5    1
    12     5     6    1
    13     6     7   ar
    14     7     8   ar
    15     8     9   ar
    16     9    10   ar
    17    10    11   ar
    18    11    12    1
    19    12    13    1
    20    13    14    1
    21    14    15    1
    22    15    16    1
    23    16    17    1
    24    17    18    1
    25    12     3    1
    26    18    13    1
    27    11     6   ar
    28    24    25    1
    29    20    21    1
@<TRIPOS>MOLECULE
*****
 27 29 0 0 0
SMALL
GASTEIGER

@<TRIPOS>ATOM
      1 C           6.0466   -3.6743   23.5656 C.2     1  UNL1        0.2420
      2 O           6.2707   -4.4249   22.2864 O.2     1  UNL1       -0.2734
      3 N           5.0146   -2.5875   23.6266 N.am    1  UNL1       -0.2760
      4 C           4.7905   -1.8369   24.9059 C.3     1  UNL1        0.0983
      5 C           3.7585   -0.7501   24.9669 C.3     1  UNL1        0.0476
      6 C           2.9505   -0.4138   23.7487 C.ar    1  UNL1       -0.0229
      7 C           1.9185    0.6730   23.8097 C.ar    1  UNL1       -0.0045
      8 C           1.1105    1.0093   22.5915 C.ar    1  UNL1       -0.0003
      9 C           1.3346    0.2587   21.3122 C.ar    1  UNL1       -0.0003
     10 C           2.3666   -0.8281   21.2512 C.ar    1  UNL1       -0.0030
     11 C           3.1745   -1.1643   22.4694 C.ar    1  UNL1       -0.0082
     12 C           4.2066   -2.2512   22.4084 C.3     1  UNL1        0.0975
     13 C           4.4307   -3.0017   21.1292 C.3     1  UNL1        0.0224
     14 C           5.3863   -2.4675   20.1037 C.3     1  UNL1        0.0020
     15 C           5.6103   -3.2181   18.8244 C.3     1  UNL1        0.0001
     16 C           4.8788   -4.5028   18.5706 C.3     1  UNL1        0.0000
     17 C           3.9232   -5.0369   19.5961 C.3     1  UNL1        0.0001
     18 C           3.6992   -4.2864   20.8753 C.3     1  UNL1        0.0020
     19 C           6.8546   -4.0106   24.7838 C.3     1  UNL1        0.1552
     20 N           6.3974   -5.0981   25.7103 N.3     1  UNL1       -0.2878
     21 H           5.8710   -4.6460   26.4579 H       1  UNL1        0.1238
     22 C           7.4038   -5.9938   26.3698 C.3     1  UNL1        0.0985
     23 C           7.5503   -7.4170   25.9191 C.3     1  UNL1        0.1262
     24 O           6.6415   -8.4755   26.4701 O.3     1  UNL1       -0.3830
     25 H           6.0226   -8.0744   27.1001 H       1  UNL1        0.2104
     26 C           8.6572   -7.0792   23.5930 C.3     1  UNL1        0.0026
     27 C           8.6056   -7.7816   24.9175 C.3     1  UNL1        0.0307
@<TRIPOS>BOND
     1    26    27    1
     2    27    23    1
     3    23    24    1
     4    23    22    1
     5    22    20    1
     6    20    19    1
     7    19     1    1
     8     1     2    2
     9     1     3   am
    10     3     4    1
    11     4     5    1
    12     5     6    1
    13     6     7   ar
    14     7     8   ar
    15     8     9   ar
    16     9    10   ar
    17    10    11   ar
    18    11    12    1
    19    12    13    1
    20    13    14    1
    21    14    15    1
    22    15    16    1
    23    16    17    1
    24    17    18    1
    25    12     3    1
    26    18    13    1
    27    11     6   ar
    28    24    25    1
    29    20    21    1
@<TRIPOS>MOLECULE
*****
 27 29 0 0 0
SMALL
GASTEIGER

@<TRIPOS>ATOM
      1 C          -8.1553  -16.7210   23.7663 C.2     1  UNL1        0.2420
      2 O          -9.5182  -16.3305   24.2562 O.2     1  UNL1       -0.2734
      3 N          -8.0159  -17.6101   22.5662 N.am    1  UNL1       -0.2760
      4 C          -6.6530  -18.0006   22.0764 C.3     1  UNL1        0.0983
      5 C          -6.5136  -18.8897   20.8763 C.3     1  UNL1        0.0476
      6 C          -7.7372  -19.3883   20.1661 C.ar    1  UNL1       -0.0229
      7 C          -7.5978  -20.2774   18.9661 C.ar    1  UNL1       -0.0045
      8 C          -8.8214  -20.7760   18.2560 C.ar    1  UNL1       -0.0003
      9 C         -10.1843  -20.3855   18.7459 C.ar    1  UNL1       -0.0003
     10 C         -10.3236  -19.4964   19.9459 C.ar    1  UNL1       -0.0030
     11 C          -9.1001  -18.9978   20.6560 C.ar    1  UNL1       -0.0082
     12 C          -9.2394  -18.1087   21.8561 C.3     1  UNL1        0.0975
     13 C         -10.6024  -17.7182   22.3460 C.3     1  UNL1        0.0224
     14 C         -11.2273  -16.4360   21.8816 C.3     1  UNL1        0.0020
     15 C         -12.5902  -16.0455   22.3715 C.3     1  UNL1        0.0001
     16 C         -13.3282  -16.9372   23.3257 C.3     1  UNL1        0.0000
     17 C         -12.7032  -18.2193   23.7900 C.3     1  UNL1        0.0001
     18 C         -11.3403  -18.6098   23.3001 C.3     1  UNL1        0.0020
     19 C          -6.9317  -16.2224   24.4764 C.3     1  UNL1        0.1552
     20 N          -6.1699  -15.0530   23.9269 N.3     1  UNL1       -0.2878
     21 H          -6.6604  -14.7515   23.0849 H       1  UNL1        0.1238
     22 C          -4.7250  -15.2073   23.5545 C.3     1  UNL1        0.0985
     23 C          -4.0435  -16.5324   23.7266 C.3     1  UNL1        0.1262
     24 O          -4.2096  -17.3009   25.0040 O.3     1  UNL1       -0.3830
     25 H          -4.7837  -16.8042   25.6078 H       1  UNL1        0.2104
     26 C          -2.2260  -16.2006   21.8999 C.3     1  UNL1        0.0026
     27 C          -3.1958  -17.0889   22.6213 C.3     1  UNL1        0.0307
@<TRIPOS>BOND
     1    26    27    1
     2    27    23    1
     3    23    24    1
     4    23    22    1
     5    22    20    1
     6    20    19    1
     7    19     1    1
     8     1     2    2
     9     1     3   am
    10     3     4    1
    11     4     5    1
    12     5     6    1
    13     6     7   ar
    14     7     8   ar
    15     8     9   ar
    16     9    10   ar
    17    10    11   ar
    18    11    12    1
    19    12    13    1
    20    13    14    1
    21    14    15    1
    22    15    16    1
    23    16    17    1
    24    17    18    1
    25    12     3    1
    26    18    13    1
    27    11     6   ar
    28    24    25    1
    29    20    21    1
@<TRIPOS>MOLECULE
*****
 27 29 0 0 0
SMALL
GASTEIGER

@<TRIPOS>ATOM
      1 C         -13.1038   -6.8927   17.6138 C.2     1  UNL1        0.2420
      2 O         -12.9767   -5.4188   17.8620 O.2     1  UNL1       -0.2734
      3 N         -14.3493   -7.6184   18.0290 N.am    1  UNL1       -0.2760
      4 C         -14.4765   -9.0923   17.7808 C.3     1  UNL1        0.0983
      5 C         -15.7218   -9.8180   18.1960 C.3     1  UNL1        0.0476
      6 C         -16.8401   -9.0699   18.8592 C.ar    1  UNL1       -0.0229
      7 C         -18.0855   -9.7956   19.2744 C.ar    1  UNL1       -0.0045
      8 C         -19.2036   -9.0474   19.9376 C.ar    1  UNL1       -0.0003
      9 C         -19.0764   -7.5736   20.1857 C.ar    1  UNL1       -0.0003
     10 C         -17.8311   -6.8479   19.7706 C.ar    1  UNL1       -0.0030
     11 C         -16.7129   -7.5960   19.1074 C.ar    1  UNL1       -0.0082
     12 C         -15.4675   -6.8703   18.6922 C.3     1  UNL1        0.0975
     13 C         -15.3403   -5.3964   18.9404 C.3     1  UNL1        0.0224
     14 C         -14.6786   -4.9010   20.1921 C.3     1  UNL1        0.0020
     15 C         -14.5514   -3.4271   20.4403 C.3     1  UNL1        0.0001
     16 C         -15.0859   -2.4487   19.4366 C.3     1  UNL1        0.0000
     17 C         -15.7475   -2.9442   18.1850 C.3     1  UNL1        0.0001
     18 C         -15.8747   -4.4181   17.9368 C.3     1  UNL1        0.0020
     19 C         -11.9857   -7.6408   16.9506 C.3     1  UNL1        0.1552
     20 N         -10.7415   -7.9685   17.7217 N.3     1  UNL1       -0.2878
     21 H         -10.9310   -8.8297   18.2342 H       1  UNL1        0.1238
     22 C         -10.1933   -6.9859   18.7137 C.3     1  UNL1        0.0985
     23 C          -9.7667   -5.6212   18.2603 C.3     1  UNL1        0.1262
     24 O          -9.2023   -5.4306   16.8836 O.3     1  UNL1       -0.3830
     25 H          -9.1823   -6.2832   16.4215 H       1  UNL1        0.2104
     26 C         -10.6277   -3.2147   18.7269 C.3     1  UNL1        0.0026
     27 C          -9.9046   -4.4471   19.1835 C.3     1  UNL1        0.0307
@<TRIPOS>BOND
     1    26    27    1
     2    27    23    1
     3    23    24    1
     4    23    22    1
     5    22    20    1
     6    20    19    1
     7    19     1    1
     8     1     2    2
     9     1     3   am
    10     3     4    1
    11     4     5    1
    12     5     6    1
    13     6     7   ar
    14     7     8   ar
    15     8     9   ar
    16     9    10   ar
    17    10    11   ar
    18    11    12    1
    19    12    13    1
    20    13    14    1
    21    14    15    1
    22    15    16    1
    23    16    17    1
    24    17    18    1
    25    12     3    1
    26    18    13    1
    27    11     6   ar
    28    24    25    1
    29    20    21    1
