@<TRIPOS>MOLECULE
*****
 28 30 0 0 0
SMALL
GASTEIGER

@<TRIPOS>ATOM
      1 C          -5.6298  -15.7984   24.5989 C.ar    1  UNL1        0.1416
      2 C          -5.3697  -15.5229   26.0503 C.ar    1  UNL1        0.0371
      3 C          -6.5190  -15.3512   26.9988 C.ar    1  UNL1        0.0062
      4 C          -7.9284  -15.4550   26.4959 C.ar    1  UNL1        0.0371
      5 C          -8.1884  -15.7304   25.0446 C.ar    1  UNL1        0.1422
      6 C          -7.0391  -15.9021   24.0961 C.ar    1  UNL1        0.0738
      7 O          -4.4805  -15.9701   23.6504 O.3     1  UNL1       -0.4753
      8 C          -4.1552  -17.3288   23.1045 C.3     1  UNL1        0.2078
      9 C          -2.7250  -17.7317   22.8986 C.3     1  UNL1        0.0745
     10 C          -2.2298  -18.0623   21.5219 C.3     1  UNL1        0.0966
     11 C          -2.5732  -19.5053   21.7449 C.3     1  UNL1        0.0298
     12 C          -1.8864  -16.6194   21.2988 C.3     1  UNL1        0.0298
     13 C          -0.4096  -17.8670   19.6783 C.3     1  UNL1        0.1739
     14 O          -1.7345  -18.3930   20.1452 O.3     1  UNL1       -0.3557
     15 O          -9.5978  -15.8342   24.5417 O.3     1  UNL1       -0.4689
     16 C         -10.1713  -17.1745   24.1885 C.3     1  UNL1        0.2506
     17 C          -9.6790  -17.9045   22.9741 C.2     1  UNL1        0.1013
     18 N          -8.3561  -18.6107   23.0085 N.2     1  UNL1       -0.2501
     19 C          -7.8638  -19.3407   21.7940 C.2     1  UNL1        0.0661
     20 C          -6.5409  -20.0468   21.8284 C.3     1  UNL1        0.0718
     21 C          -6.0486  -20.7768   20.6140 C.2     1  UNL1       -0.0198
     22 C          -6.8793  -20.8005   19.3652 C.2     1  UNL1       -0.0040
     23 C          -8.2021  -20.0944   19.3308 C.2     1  UNL1        0.0040
     24 C          -8.6944  -19.3644   20.5452 C.2     1  UNL1        0.0525
     25 C         -10.0174  -18.6582   20.5109 C.2     1  UNL1        0.1940
     26 O         -10.8480  -18.6820   19.2621 O.2     1  UNL1       -0.2868
     27 C         -10.5096  -17.9283   21.7253 C.2     1  UNL1        0.0342
     28 C         -11.8326  -17.2220   21.6909 C.3     1  UNL1        0.0358
@<TRIPOS>BOND
     1    13    14    1
     2    14    10    1
     3    10    11    1
     4    10    12    1
     5    10     9    1
     6     9     8    1
     7     8     7    1
     8     7     1    1
     9     1     2   ar
    10     2     3   ar
    11     3     4   ar
    12     4     5   ar
    13     5    15    1
    14    15    16    1
    15    16    17    1
    16    17    18    1
    17    18    19    2
    18    19    20    1
    19    20    21    1
    20    21    22    2
    21    22    23    1
    22    23    24    2
    23    24    25    1
    24    25    26    2
    25    25    27    1
    26    27    28    1
    27     5     6   ar
    28     6     1   ar
    29    27    17    2
    30    24    19    1
@<TRIPOS>MOLECULE
*****
 28 30 0 0 0
SMALL
GASTEIGER

@<TRIPOS>ATOM
      1 C          -4.5350  -16.7298   23.6949 C.ar    1  UNL1        0.1416
      2 C          -3.9699  -17.0875   25.0376 C.ar    1  UNL1        0.0371
      3 C          -4.6108  -16.5581   26.2862 C.ar    1  UNL1        0.0062
      4 C          -5.8168  -15.6710   26.1921 C.ar    1  UNL1        0.0371
      5 C          -6.3818  -15.3134   24.8494 C.ar    1  UNL1        0.1422
      6 C          -5.7409  -15.8428   23.6008 C.ar    1  UNL1        0.0738
      7 O          -3.8941  -17.2592   22.4463 O.3     1  UNL1       -0.4753
      8 C          -2.4029  -17.2110   22.2902 C.3     1  UNL1        0.2078
      9 C          -1.7625  -17.7348   21.0390 C.3     1  UNL1        0.0745
     10 C          -2.5140  -18.6825   20.1520 C.3     1  UNL1        0.0966
     11 C          -2.3942  -19.7538   21.1950 C.3     1  UNL1        0.0298
     12 C          -2.6338  -17.6113   19.1089 C.3     1  UNL1        0.0298
     13 C          -4.1615  -20.6713   19.8679 C.3     1  UNL1        0.1739
     14 O          -3.2655  -19.6303   19.2649 O.3     1  UNL1       -0.3557
     15 O          -7.5878  -14.4264   24.7553 O.3     1  UNL1       -0.4689
     16 C          -8.9530  -14.9854   25.0269 C.3     1  UNL1        0.2506
     17 C          -9.3828  -16.2656   24.3737 C.2     1  UNL1        0.1013
     18 N          -9.7653  -16.2759   22.9234 N.2     1  UNL1       -0.2501
     19 C         -10.1951  -17.5561   22.2701 C.2     1  UNL1        0.0661
     20 C         -10.5777  -17.5664   20.8198 C.3     1  UNL1        0.0718
     21 C         -11.0075  -18.8465   20.1667 C.2     1  UNL1       -0.0198
     22 C         -11.0547  -20.1162   20.9639 C.2     1  UNL1       -0.0040
     23 C         -10.6722  -20.1059   22.4142 C.2     1  UNL1        0.0040
     24 C         -10.2424  -18.8258   23.0674 C.2     1  UNL1        0.0525
     25 C          -9.8598  -18.8154   24.5178 C.2     1  UNL1        0.1940
     26 O          -9.9070  -20.0851   25.3150 O.2     1  UNL1       -0.2868
     27 C          -9.4300  -17.5353   25.1709 C.2     1  UNL1        0.0342
     28 C          -9.0474  -17.5249   26.6213 C.3     1  UNL1        0.0358
@<TRIPOS>BOND
     1    13    14    1
     2    14    10    1
     3    10    11    1
     4    10    12    1
     5    10     9    1
     6     9     8    1
     7     8     7    1
     8     7     1    1
     9     1     2   ar
    10     2     3   ar
    11     3     4   ar
    12     4     5   ar
    13     5    15    1
    14    15    16    1
    15    16    17    1
    16    17    18    1
    17    18    19    2
    18    19    20    1
    19    20    21    1
    20    21    22    2
    21    22    23    1
    22    23    24    2
    23    24    25    1
    24    25    26    2
    25    25    27    1
    26    27    28    1
    27     5     6   ar
    28     6     1   ar
    29    27    17    2
    30    24    19    1
@<TRIPOS>MOLECULE
*****
 28 30 0 0 0
SMALL
GASTEIGER

@<TRIPOS>ATOM
      1 C          -6.2414  -15.9282   24.8316 C.ar    1  UNL1        0.1416
      2 C          -5.7828  -15.1124   26.0039 C.ar    1  UNL1        0.0371
      3 C          -6.5825  -15.1074   27.2729 C.ar    1  UNL1        0.0062
      4 C          -7.8409  -15.9182   27.3696 C.ar    1  UNL1        0.0371
      5 C          -8.2994  -16.7339   26.1974 C.ar    1  UNL1        0.1422
      6 C          -7.4996  -16.7389   24.9283 C.ar    1  UNL1        0.0738
      7 O          -5.4416  -15.9332   23.5626 O.3     1  UNL1       -0.4753
      8 C          -4.8417  -17.2126   23.0592 C.3     1  UNL1        0.2078
      9 C          -3.3590  -17.4268   23.1359 C.3     1  UNL1        0.0745
     10 C          -2.5744  -17.6953   21.8861 C.3     1  UNL1        0.0966
     11 C          -2.9767  -19.1391   21.9437 C.3     1  UNL1        0.0298
     12 C          -2.1721  -16.2514   21.8285 C.3     1  UNL1        0.0298
     13 C          -2.4781  -18.5132   19.4220 C.3     1  UNL1        0.1739
     14 O          -1.7897  -17.9637   20.6362 O.3     1  UNL1       -0.3557
     15 O          -9.5577  -17.5446   26.2941 O.3     1  UNL1       -0.4689
     16 C          -9.7863  -18.6897   25.3526 C.3     1  UNL1        0.2506
     17 C         -10.0758  -18.4240   23.9049 C.2     1  UNL1        0.1013
     18 N         -11.0738  -17.3724   23.5204 N.2     1  UNL1       -0.2501
     19 C         -11.3634  -17.1067   22.0727 C.2     1  UNL1        0.0661
     20 C         -12.3614  -16.0550   21.6881 C.3     1  UNL1        0.0718
     21 C         -12.6508  -15.7894   20.2405 C.2     1  UNL1       -0.0198
     22 C         -11.9423  -16.5754   19.1775 C.2     1  UNL1       -0.0040
     23 C         -10.9443  -17.6271   19.5620 C.2     1  UNL1        0.0040
     24 C         -10.6548  -17.8927   21.0096 C.2     1  UNL1        0.0525
     25 C          -9.6568  -18.9445   21.3942 C.2     1  UNL1        0.1940
     26 O          -8.9483  -19.7305   20.3312 O.2     1  UNL1       -0.2868
     27 C          -9.3673  -19.2101   22.8418 C.2     1  UNL1        0.0342
     28 C          -8.3693  -20.2618   23.2264 C.3     1  UNL1        0.0358
@<TRIPOS>BOND
     1    13    14    1
     2    14    10    1
     3    10    11    1
     4    10    12    1
     5    10     9    1
     6     9     8    1
     7     8     7    1
     8     7     1    1
     9     1     2   ar
    10     2     3   ar
    11     3     4   ar
    12     4     5   ar
    13     5    15    1
    14    15    16    1
    15    16    17    1
    16    17    18    1
    17    18    19    2
    18    19    20    1
    19    20    21    1
    20    21    22    2
    21    22    23    1
    22    23    24    2
    23    24    25    1
    24    25    26    2
    25    25    27    1
    26    27    28    1
    27     5     6   ar
    28     6     1   ar
    29    27    17    2
    30    24    19    1
@<TRIPOS>MOLECULE
*****
 28 30 0 0 0
SMALL
GASTEIGER

@<TRIPOS>ATOM
      1 C         -11.0949   -6.8145   17.0349 C.ar    1  UNL1        0.1416
      2 C         -10.4162   -6.9812   18.3622 C.ar    1  UNL1        0.0371
      3 C          -9.6812   -5.8281   18.9787 C.ar    1  UNL1        0.0062
      4 C          -9.6248   -4.5084   18.2679 C.ar    1  UNL1        0.0371
      5 C         -10.3035   -4.3417   16.9407 C.ar    1  UNL1        0.1422
      6 C         -11.0385   -5.4948   16.3242 C.ar    1  UNL1        0.0738
      7 O         -11.8299   -7.9676   16.4183 O.3     1  UNL1       -0.4753
      8 C         -13.2817   -8.1835   16.7281 C.3     1  UNL1        0.2078
      9 C         -14.1144   -7.0491   17.2474 C.3     1  UNL1        0.0745
     10 C         -14.9837   -7.2477   18.4536 C.3     1  UNL1        0.0966
     11 C         -13.9916   -6.4975   19.2920 C.3     1  UNL1        0.0298
     12 C         -15.9757   -7.9978   17.6152 C.3     1  UNL1        0.0298
     13 C         -17.1492   -8.1908   19.5358 C.3     1  UNL1        0.1739
     14 O         -15.8529   -7.4463   19.6598 O.3     1  UNL1       -0.3557
     15 O         -10.2471   -3.0220   16.2300 O.3     1  UNL1       -0.4689
     16 C         -11.4525   -2.1295   16.2089 C.3     1  UNL1        0.2506
     17 C         -12.7053   -2.5440   16.9223 C.2     1  UNL1        0.1013
     18 N         -13.8223   -3.1935   16.1605 N.2     1  UNL1       -0.2501
     19 C         -15.0750   -3.6080   16.8739 C.2     1  UNL1        0.0661
     20 C         -16.1920   -4.2576   16.1121 C.3     1  UNL1        0.0718
     21 C         -17.4446   -4.6720   16.8256 C.2     1  UNL1       -0.0198
     22 C         -17.5803   -4.4369   18.3008 C.2     1  UNL1       -0.0040
     23 C         -16.4633   -3.7873   19.0626 C.2     1  UNL1        0.0040
     24 C         -15.2107   -3.3729   18.3492 C.2     1  UNL1        0.0525
     25 C         -14.0936   -2.7233   19.1110 C.2     1  UNL1        0.1940
     26 O         -14.2293   -2.4882   20.5862 O.2     1  UNL1       -0.2868
     27 C         -12.8410   -2.3089   18.3975 C.2     1  UNL1        0.0342
     28 C         -11.7239   -1.6592   19.1593 C.3     1  UNL1        0.0358
@<TRIPOS>BOND
     1    13    14    1
     2    14    10    1
     3    10    11    1
     4    10    12    1
     5    10     9    1
     6     9     8    1
     7     8     7    1
     8     7     1    1
     9     1     2   ar
    10     2     3   ar
    11     3     4   ar
    12     4     5   ar
    13     5    15    1
    14    15    16    1
    15    16    17    1
    16    17    18    1
    17    18    19    2
    18    19    20    1
    19    20    21    1
    20    21    22    2
    21    22    23    1
    22    23    24    2
    23    24    25    1
    24    25    26    2
    25    25    27    1
    26    27    28    1
    27     5     6   ar
    28     6     1   ar
    29    27    17    2
    30    24    19    1
@<TRIPOS>MOLECULE
*****
 28 30 0 0 0
SMALL
GASTEIGER

@<TRIPOS>ATOM
      1 C          -5.4694  -15.7770   24.4316 C.ar    1  UNL1        0.1416
      2 C          -4.8779  -14.9667   25.5469 C.ar    1  UNL1        0.0371
      3 C          -5.6643  -14.7325   26.8026 C.ar    1  UNL1        0.0062
      4 C          -7.0422  -15.3086   26.9429 C.ar    1  UNL1        0.0371
      5 C          -7.6336  -16.1187   25.8277 C.ar    1  UNL1        0.1422
      6 C          -6.8472  -16.3529   24.5721 C.ar    1  UNL1        0.0738
      7 O          -4.6829  -16.0112   23.1760 O.3     1  UNL1       -0.4753
      8 C          -3.8813  -17.2690   23.0167 C.3     1  UNL1        0.2078
      9 C          -3.6965  -17.8734   21.6564 C.3     1  UNL1        0.0745
     10 C          -2.3343  -18.3163   21.2112 C.3     1  UNL1        0.0966
     11 C          -2.0776  -16.9532   20.6403 C.3     1  UNL1        0.0298
     12 C          -2.5910  -19.6795   21.7820 C.3     1  UNL1        0.0298
     13 C          -0.0540  -17.7893   20.0831 C.3     1  UNL1        0.1739
     14 O          -0.9721  -18.7593   20.7660 O.3     1  UNL1       -0.3557
     15 O          -9.0115  -16.6947   25.9681 O.3     1  UNL1       -0.4689
     16 C          -9.4670  -17.7838   25.0427 C.3     1  UNL1        0.2506
     17 C         -10.2486  -17.4414   23.8089 C.2     1  UNL1        0.1013
     18 N          -9.6395  -16.5659   22.7542 N.2     1  UNL1       -0.2501
     19 C         -10.4211  -16.2235   21.5204 C.2     1  UNL1        0.0661
     20 C          -9.8121  -15.3480   20.4657 C.3     1  UNL1        0.0718
     21 C         -10.5936  -15.0057   19.2320 C.2     1  UNL1       -0.0198
     22 C         -11.9841  -15.5389   19.0531 C.2     1  UNL1       -0.0040
     23 C         -12.5931  -16.4145   20.1078 C.2     1  UNL1        0.0040
     24 C         -11.8116  -16.7568   21.3415 C.2     1  UNL1        0.0525
     25 C         -12.4206  -17.6324   22.3963 C.2     1  UNL1        0.1940
     26 O         -13.8112  -18.1656   22.2173 O.2     1  UNL1       -0.2868
     27 C         -11.6391  -17.9747   23.6299 C.2     1  UNL1        0.0342
     28 C         -12.2481  -18.8503   24.6847 C.3     1  UNL1        0.0358
@<TRIPOS>BOND
     1    13    14    1
     2    14    10    1
     3    10    11    1
     4    10    12    1
     5    10     9    1
     6     9     8    1
     7     8     7    1
     8     7     1    1
     9     1     2   ar
    10     2     3   ar
    11     3     4   ar
    12     4     5   ar
    13     5    15    1
    14    15    16    1
    15    16    17    1
    16    17    18    1
    17    18    19    2
    18    19    20    1
    19    20    21    1
    20    21    22    2
    21    22    23    1
    22    23    24    2
    23    24    25    1
    24    25    26    2
    25    25    27    1
    26    27    28    1
    27     5     6   ar
    28     6     1   ar
    29    27    17    2
    30    24    19    1
@<TRIPOS>MOLECULE
*****
 28 30 0 0 0
SMALL
GASTEIGER

@<TRIPOS>ATOM
      1 C           4.8143    0.3764   17.5055 C.ar    1  UNL1        0.1416
      2 C           5.2248    1.7908   17.7902 C.ar    1  UNL1        0.0371
      3 C           4.2170    2.7748   18.3060 C.ar    1  UNL1        0.0062
      4 C           2.7987    2.3444   18.5370 C.ar    1  UNL1        0.0371
      5 C           2.3883    0.9301   18.2523 C.ar    1  UNL1        0.1422
      6 C           3.3961   -0.0540   17.7365 C.ar    1  UNL1        0.0738
      7 O           5.8221   -0.6076   16.9897 O.3     1  UNL1       -0.4753
      8 C           6.3682   -1.6683   17.8990 C.3     1  UNL1        0.2078
      9 C           5.5233   -2.8538   18.2607 C.3     1  UNL1        0.0745
     10 C           5.8718   -3.6854   19.4595 C.3     1  UNL1        0.0966
     11 C           6.9985   -2.7490   19.7815 C.3     1  UNL1        0.0298
     12 C           4.7451   -4.6217   19.1375 C.3     1  UNL1        0.0298
     13 C           7.4705   -4.2266   21.4347 C.3     1  UNL1        0.1739
     14 O           6.2203   -4.5169   20.6582 O.3     1  UNL1       -0.3557
     15 O           0.9701    0.4997   18.4833 O.3     1  UNL1       -0.4689
     16 C           0.3617    0.6235   19.8488 C.3     1  UNL1        0.2506
     17 C           1.1773    0.2998   21.0654 C.2     1  UNL1        0.1013
     18 N           2.1508   -0.8410   21.0340 N.2     1  UNL1       -0.2501
     19 C           2.9664   -1.1647   22.2506 C.2     1  UNL1        0.0661
     20 C           3.9399   -2.3054   22.2191 C.3     1  UNL1        0.0718
     21 C           4.7555   -2.6291   23.4357 C.2     1  UNL1       -0.0198
     22 C           4.5976   -1.8120   24.6837 C.2     1  UNL1       -0.0040
     23 C           3.6241   -0.6713   24.7151 C.2     1  UNL1        0.0040
     24 C           2.8085   -0.3476   23.4986 C.2     1  UNL1        0.0525
     25 C           1.8350    0.7932   23.5299 C.2     1  UNL1        0.1940
     26 O           1.6770    1.6102   24.7779 O.2     1  UNL1       -0.2868
     27 C           1.0194    1.1168   22.3134 C.2     1  UNL1        0.0342
     28 C           0.0459    2.2576   22.3448 C.3     1  UNL1        0.0358
@<TRIPOS>BOND
     1    13    14    1
     2    14    10    1
     3    10    11    1
     4    10    12    1
     5    10     9    1
     6     9     8    1
     7     8     7    1
     8     7     1    1
     9     1     2   ar
    10     2     3   ar
    11     3     4   ar
    12     4     5   ar
    13     5    15    1
    14    15    16    1
    15    16    17    1
    16    17    18    1
    17    18    19    2
    18    19    20    1
    19    20    21    1
    20    21    22    2
    21    22    23    1
    22    23    24    2
    23    24    25    1
    24    25    26    2
    25    25    27    1
    26    27    28    1
    27     5     6   ar
    28     6     1   ar
    29    27    17    2
    30    24    19    1
@<TRIPOS>MOLECULE
*****
 28 30 0 0 0
SMALL
GASTEIGER

@<TRIPOS>ATOM
      1 C         -11.6653   -6.7619   17.3322 C.ar    1  UNL1        0.1416
      2 C         -10.6894   -7.3809   18.2886 C.ar    1  UNL1        0.0371
      3 C          -9.7250   -6.5136   19.0421 C.ar    1  UNL1        0.0062
      4 C          -9.7364   -5.0274   18.8392 C.ar    1  UNL1        0.0371
      5 C         -10.7123   -4.4085   17.8828 C.ar    1  UNL1        0.1422
      6 C         -11.6767   -5.2758   17.1293 C.ar    1  UNL1        0.0738
      7 O         -12.6297   -7.6292   16.5787 O.3     1  UNL1       -0.4753
      8 C         -14.0636   -7.7082   17.0119 C.3     1  UNL1        0.2078
      9 C         -14.5384   -8.8765   17.8242 C.3     1  UNL1        0.0745
     10 C         -15.6789   -8.7087   18.7838 C.3     1  UNL1        0.0966
     11 C         -16.1943  -10.0665   18.4087 C.3     1  UNL1        0.0298
     12 C         -15.1636   -7.3509   19.1590 C.3     1  UNL1        0.0298
     13 C         -18.0776   -9.3368   19.5597 C.3     1  UNL1        0.1739
     14 O         -16.8195   -8.5410   19.7435 O.3     1  UNL1       -0.3557
     15 O         -10.7237   -2.9224   17.6800 O.3     1  UNL1       -0.4689
     16 C         -11.2895   -2.0250   18.7404 C.3     1  UNL1        0.2506
     17 C         -12.7734   -1.8325   18.8467 C.2     1  UNL1        0.1013
     18 N         -13.6399   -2.9474   19.3528 N.2     1  UNL1       -0.2501
     19 C         -15.1238   -2.7550   19.4591 C.2     1  UNL1        0.0661
     20 C         -15.9903   -3.8698   19.9652 C.3     1  UNL1        0.0718
     21 C         -17.4741   -3.6773   20.0715 C.2     1  UNL1       -0.0198
     22 C         -18.0913   -2.3700   19.6716 C.2     1  UNL1       -0.0040
     23 C         -17.2248   -1.2552   19.1655 C.2     1  UNL1        0.0040
     24 C         -15.7410   -1.4476   19.0593 C.2     1  UNL1        0.0525
     25 C         -14.8744   -0.3327   18.5531 C.2     1  UNL1        0.1940
     26 O         -15.4917    0.9746   18.1533 O.2     1  UNL1       -0.2868
     27 C         -13.3907   -0.5252   18.4469 C.2     1  UNL1        0.0342
     28 C         -12.5241    0.5897   17.9407 C.3     1  UNL1        0.0358
@<TRIPOS>BOND
     1    13    14    1
     2    14    10    1
     3    10    11    1
     4    10    12    1
     5    10     9    1
     6     9     8    1
     7     8     7    1
     8     7     1    1
     9     1     2   ar
    10     2     3   ar
    11     3     4   ar
    12     4     5   ar
    13     5    15    1
    14    15    16    1
    15    16    17    1
    16    17    18    1
    17    18    19    2
    18    19    20    1
    19    20    21    1
    20    21    22    2
    21    22    23    1
    22    23    24    2
    23    24    25    1
    24    25    26    2
    25    25    27    1
    26    27    28    1
    27     5     6   ar
    28     6     1   ar
    29    27    17    2
    30    24    19    1
@<TRIPOS>MOLECULE
*****
 28 30 0 0 0
SMALL
GASTEIGER

@<TRIPOS>ATOM
      1 C           3.1893   -0.3461   19.1513 C.ar    1  UNL1        0.1416
      2 C           2.4901   -1.0561   20.2725 C.ar    1  UNL1        0.0371
      3 C           1.0981   -0.6551   20.6617 C.ar    1  UNL1        0.0062
      4 C           0.4052    0.4558   19.9296 C.ar    1  UNL1        0.0371
      5 C           1.1045    1.1657   18.8084 C.ar    1  UNL1        0.1422
      6 C           2.4965    0.7647   18.4192 C.ar    1  UNL1        0.0738
      7 O           4.5814   -0.7471   18.7621 O.3     1  UNL1       -0.4753
      8 C           4.7987   -1.9357   17.8731 C.3     1  UNL1        0.2078
      9 C           5.6390   -3.0838   18.3481 C.3     1  UNL1        0.0745
     10 C           5.3324   -3.7459   19.6586 C.3     1  UNL1        0.0966
     11 C           6.6314   -3.2442   20.2160 C.3     1  UNL1        0.0298
     12 C           4.0334   -4.2477   19.1012 C.3     1  UNL1        0.0298
     13 C           4.5565   -3.5862   22.1330 C.3     1  UNL1        0.1739
     14 O           5.0258   -4.4081   20.9691 O.3     1  UNL1       -0.3557
     15 O           0.4116    2.2766   18.0763 O.3     1  UNL1       -0.4689
     16 C          -0.0373    3.4994   18.8200 C.3     1  UNL1        0.2506
     17 C          -1.4673    3.6307   19.2536 C.2     1  UNL1        0.1013
     18 N          -2.5390    3.8878   18.2361 N.2     1  UNL1       -0.2501
     19 C          -3.9690    4.0191   18.6697 C.2     1  UNL1        0.0661
     20 C          -5.0406    4.2762   17.6522 C.3     1  UNL1        0.0718
     21 C          -6.4705    4.4074   18.0858 C.2     1  UNL1       -0.0198
     22 C          -6.8288    4.2816   19.5370 C.2     1  UNL1       -0.0040
     23 C          -5.7571    4.0245   20.5545 C.2     1  UNL1        0.0040
     24 C          -4.3272    3.8932   20.1209 C.2     1  UNL1        0.0525
     25 C          -3.2555    3.6361   21.1384 C.2     1  UNL1        0.1940
     26 O          -3.6137    3.5102   22.5896 O.2     1  UNL1       -0.2868
     27 C          -1.8256    3.5048   20.7048 C.2     1  UNL1        0.0342
     28 C          -0.7538    3.2477   21.7223 C.3     1  UNL1        0.0358
@<TRIPOS>BOND
     1    13    14    1
     2    14    10    1
     3    10    11    1
     4    10    12    1
     5    10     9    1
     6     9     8    1
     7     8     7    1
     8     7     1    1
     9     1     2   ar
    10     2     3   ar
    11     3     4   ar
    12     4     5   ar
    13     5    15    1
    14    15    16    1
    15    16    17    1
    16    17    18    1
    17    18    19    2
    18    19    20    1
    19    20    21    1
    20    21    22    2
    21    22    23    1
    22    23    24    2
    23    24    25    1
    24    25    26    2
    25    25    27    1
    26    27    28    1
    27     5     6   ar
    28     6     1   ar
    29    27    17    2
    30    24    19    1
@<TRIPOS>MOLECULE
*****
 28 30 0 0 0
SMALL
GASTEIGER

@<TRIPOS>ATOM
      1 C           5.1974   -2.3591   23.8316 C.ar    1  UNL1        0.1416
      2 C           6.6133   -1.8639   23.8279 C.ar    1  UNL1        0.0371
      3 C           7.5595   -2.3053   22.7508 C.ar    1  UNL1        0.0062
      4 C           7.0896   -3.2420   21.6776 C.ar    1  UNL1        0.0371
      5 C           5.6738   -3.7373   21.6813 C.ar    1  UNL1        0.1422
      6 C           4.7277   -3.2958   22.7584 C.ar    1  UNL1        0.0738
      7 O           4.2513   -1.9177   24.9086 O.3     1  UNL1       -0.4753
      8 C           3.3717   -0.7224   24.6905 C.3     1  UNL1        0.2078
      9 C           2.8978   -0.3821   23.3086 C.3     1  UNL1        0.0745
     10 C           2.8077    1.0521   22.8785 C.3     1  UNL1        0.0966
     11 C           4.1807    0.9593   22.2816 C.3     1  UNL1        0.0298
     12 C           1.4347    1.1448   23.4754 C.3     1  UNL1        0.0298
     13 C           1.4418    3.2499   22.6464 C.3     1  UNL1        0.1739
     14 O           2.7176    2.4862   22.4484 O.3     1  UNL1       -0.3557
     15 O           5.2041   -4.6740   20.6081 O.3     1  UNL1       -0.4689
     16 C           4.8474   -4.1420   19.2517 C.3     1  UNL1        0.2506
     17 C           4.3353   -2.7395   19.1070 C.2     1  UNL1        0.1013
     18 N           2.9781   -2.3785   19.6341 N.2     1  UNL1       -0.2501
     19 C           2.4660   -0.9760   19.4894 C.2     1  UNL1        0.0661
     20 C           1.1089   -0.6150   20.0165 C.3     1  UNL1        0.0718
     21 C           0.5969    0.7874   19.8718 C.2     1  UNL1       -0.0198
     22 C           1.4420    1.8289   19.2000 C.2     1  UNL1       -0.0040
     23 C           2.7991    1.4679   18.6730 C.2     1  UNL1        0.0040
     24 C           3.3111    0.0654   18.8176 C.2     1  UNL1        0.0525
     25 C           4.6683   -0.2956   18.2906 C.2     1  UNL1        0.1940
     26 O           5.5134    0.7458   17.6188 O.2     1  UNL1       -0.2868
     27 C           5.1803   -1.6981   18.4352 C.2     1  UNL1        0.0342
     28 C           6.5375   -2.0591   17.9082 C.3     1  UNL1        0.0358
@<TRIPOS>BOND
     1    13    14    1
     2    14    10    1
     3    10    11    1
     4    10    12    1
     5    10     9    1
     6     9     8    1
     7     8     7    1
     8     7     1    1
     9     1     2   ar
    10     2     3   ar
    11     3     4   ar
    12     4     5   ar
    13     5    15    1
    14    15    16    1
    15    16    17    1
    16    17    18    1
    17    18    19    2
    18    19    20    1
    19    20    21    1
    20    21    22    2
    21    22    23    1
    22    23    24    2
    23    24    25    1
    24    25    26    2
    25    25    27    1
    26    27    28    1
    27     5     6   ar
    28     6     1   ar
    29    27    17    2
    30    24    19    1
