@<TRIPOS>MOLECULE
*****
 30 32 0 0 0
SMALL
GASTEIGER

@<TRIPOS>ATOM
      1 C           8.2790   -5.2276   22.1687 C.3     1  UNL1        0.0328
      2 C           8.0295   -5.1280   23.6445 C.ar    1  UNL1        0.0004
      3 C           8.7703   -6.0239   24.5924 C.ar    1  UNL1        0.0002
      4 C           8.5209   -5.9243   26.0682 C.ar    1  UNL1        0.0340
      5 C           7.5307   -4.9289   26.5960 C.ar    1  UNL1        0.1318
      6 N           6.7899   -4.0331   25.6480 N.ar    1  UNL1       -0.2264
      7 C           7.0393   -4.1326   24.1723 C.ar    1  UNL1        0.1322
      8 N           7.2812   -4.8294   28.0717 N.pl3   1  UNL1       -0.2931
      9 C           6.7920   -3.5413   28.6645 C.3     1  UNL1        0.0946
     10 C           6.5426   -3.4417   30.1402 C.3     1  UNL1        0.0507
     11 C           6.7824   -4.6303   31.0233 C.3     1  UNL1        0.1139
     12 O           6.5330   -4.5307   32.4990 O.3     1  UNL1       -0.3843
     13 C           7.2716   -5.9184   30.4305 C.3     1  UNL1        0.0507
     14 C           7.5211   -6.0179   28.9548 C.3     1  UNL1        0.0946
     15 H           6.3168   -3.6136   32.7293 H       1  UNL1        0.2103
     16 C           6.2985   -3.2367   23.2243 C.2     1  UNL1        0.2670
     17 O           7.0043   -2.0822   22.5771 O.2     1  UNL1       -0.2682
     18 N           4.8519   -3.4953   22.9236 N.am    1  UNL1       -0.2797
     19 H           4.3887   -4.2531   23.3483 H       1  UNL1        0.1552
     20 C           4.1111   -2.5994   21.9756 C.ar    1  UNL1        0.0425
     21 C           3.4144   -1.3749   22.4906 C.ar    1  UNL1       -0.0086
     22 C           3.4585   -1.0464   23.9536 C.3     1  UNL1        0.0323
     23 C           2.6736   -0.4790   21.5427 C.ar    1  UNL1       -0.0019
     24 C           2.6295   -0.8076   20.0798 C.ar    1  UNL1        0.0134
     25 C           3.3262   -2.0321   19.5648 C.ar    1  UNL1       -0.0019
     26 C           4.0670   -2.9280   20.5127 C.ar    1  UNL1       -0.0086
     27 C           4.7637   -4.1525   19.9977 C.3     1  UNL1        0.0323
     28 C           1.8887    0.0883   19.1319 C.2     1  UNL1        0.0728
     29 O           0.4327    0.3737   19.3526 O.co2   1  UNL1       -0.5446
     30 O           2.6039    0.6988   17.9632 O.co2   1  UNL1       -0.5446
@<TRIPOS>UNITY_ATOM_ATTR
29 1
charge -1
@<TRIPOS>BOND
     1     1     2    1
     2     2     3   ar
     3     3     4   ar
     4     4     5   ar
     5     5     8    1
     6     8     9    1
     7     9    10    1
     8    10    11    1
     9    11    12    1
    10    11    13    1
    11    13    14    1
    12     5     6   ar
    13     6     7   ar
    14     7    16    1
    15    16    17    2
    16    16    18   am
    17    18    20    1
    18    20    21   ar
    19    21    22    1
    20    21    23   ar
    21    23    24   ar
    22    24    28    1
    23    28    29   ar
    24    28    30   ar
    25    24    25   ar
    26    25    26   ar
    27    26    27    1
    28     7     2   ar
    29    26    20   ar
    30    14     8    1
    31    12    15    1
    32    18    19    1
@<TRIPOS>MOLECULE
*****
 30 32 0 0 0
SMALL
GASTEIGER

@<TRIPOS>ATOM
      1 C           8.4298   -5.2422   22.1498 C.3     1  UNL1        0.0328
      2 C           8.1668   -5.1978   23.6259 C.ar    1  UNL1        0.0004
      3 C           8.9240   -6.1045   24.5502 C.ar    1  UNL1        0.0002
      4 C           8.6610   -6.0601   26.0263 C.ar    1  UNL1        0.0340
      5 C           7.6407   -5.1090   26.5781 C.ar    1  UNL1        0.1318
      6 N           6.8835   -4.2023   25.6537 N.ar    1  UNL1       -0.2264
      7 C           7.1466   -4.2467   24.1776 C.ar    1  UNL1        0.1322
      8 N           7.3777   -5.0647   28.0542 N.pl3   1  UNL1       -0.2931
      9 C           7.7457   -6.2351   28.9171 C.3     1  UNL1        0.0946
     10 C           7.4826   -6.1907   30.3932 C.3     1  UNL1        0.0507
     11 C           6.8516   -4.9759   31.0064 C.3     1  UNL1        0.1139
     12 O           6.5886   -4.9315   32.4824 O.3     1  UNL1       -0.3843
     13 C           6.4837   -3.8055   30.1434 C.3     1  UNL1        0.0507
     14 C           6.7467   -3.8498   28.6674 C.3     1  UNL1        0.0946
     15 H           6.7926   -5.7955   32.8733 H       1  UNL1        0.2103
     16 C           6.3893   -3.3399   23.2533 C.2     1  UNL1        0.2670
     17 O           7.0549   -2.1211   22.6866 O.2     1  UNL1       -0.2682
     18 N           4.9664   -3.6521   22.8957 N.am    1  UNL1       -0.2797
     19 H           4.5295   -4.4521   23.2677 H       1  UNL1        0.1552
     20 C           4.2091   -2.7453   21.9713 C.ar    1  UNL1        0.0425
     21 C           4.1180   -3.0705   20.5099 C.ar    1  UNL1       -0.0086
     22 C           4.7843   -4.3025   19.9727 C.3     1  UNL1        0.0323
     23 C           3.3608   -2.1639   19.5855 C.ar    1  UNL1       -0.0019
     24 C           2.6946   -0.9320   20.1227 C.ar    1  UNL1        0.0134
     25 C           2.7856   -0.6068   21.5842 C.ar    1  UNL1       -0.0019
     26 C           3.5429   -1.5135   22.5085 C.ar    1  UNL1       -0.0086
     27 C           3.6339   -1.1883   23.9700 C.3     1  UNL1        0.0323
     28 C           1.9373   -0.0252   19.1983 C.2     1  UNL1        0.0728
     29 O           0.5266    0.3680   19.5227 O.co2   1  UNL1       -0.5446
     30 O           2.5908    0.4883   17.9496 O.co2   1  UNL1       -0.5446
@<TRIPOS>UNITY_ATOM_ATTR
29 1
charge -1
@<TRIPOS>BOND
     1     1     2    1
     2     2     3   ar
     3     3     4   ar
     4     4     5   ar
     5     5     8    1
     6     8     9    1
     7     9    10    1
     8    10    11    1
     9    11    12    1
    10    11    13    1
    11    13    14    1
    12     5     6   ar
    13     6     7   ar
    14     7    16    1
    15    16    17    2
    16    16    18   am
    17    18    20    1
    18    20    21   ar
    19    21    22    1
    20    21    23   ar
    21    23    24   ar
    22    24    28    1
    23    28    29   ar
    24    28    30   ar
    25    24    25   ar
    26    25    26   ar
    27    26    27    1
    28     7     2   ar
    29    26    20   ar
    30    14     8    1
    31    12    15    1
    32    18    19    1
@<TRIPOS>MOLECULE
*****
 30 32 0 0 0
SMALL
GASTEIGER

@<TRIPOS>ATOM
      1 C         -10.8043   -4.7270   18.9402 C.3     1  UNL1        0.0328
      2 C         -11.6259   -3.4768   18.8304 C.ar    1  UNL1        0.0004
      3 C         -10.9506   -2.1475   18.6668 C.ar    1  UNL1        0.0002
      4 C         -11.7722   -0.8974   18.5570 C.ar    1  UNL1        0.0340
      5 C         -13.2691   -0.9765   18.6108 C.ar    1  UNL1        0.1318
      6 N         -13.9444   -2.3058   18.7744 N.ar    1  UNL1       -0.2264
      7 C         -13.1228   -3.5560   18.8842 C.ar    1  UNL1        0.1322
      8 N         -14.0907    0.2736   18.5010 N.pl3   1  UNL1       -0.2931
      9 C         -13.5936    1.4284   17.6829 C.3     1  UNL1        0.0946
     10 C         -14.4152    2.6786   17.5731 C.3     1  UNL1        0.0507
     11 C         -15.7340    2.7740   18.2814 C.3     1  UNL1        0.1139
     12 O         -16.5556    4.0241   18.1716 O.3     1  UNL1       -0.3843
     13 C         -16.2311    1.6192   19.0994 C.3     1  UNL1        0.0507
     14 C         -15.4095    0.3690   19.2092 C.3     1  UNL1        0.0946
     15 H         -16.0520    4.7010   17.6928 H       1  UNL1        0.2103
     16 C         -13.7982   -4.8854   19.0479 C.2     1  UNL1        0.2670
     17 O         -13.7304   -5.6043   20.3626 O.2     1  UNL1       -0.2682
     18 N         -14.5413   -5.4958   17.8968 N.am    1  UNL1       -0.2797
     19 H         -14.5859   -5.0240   17.0338 H       1  UNL1        0.1552
     20 C         -15.2167   -6.8252   18.0604 C.ar    1  UNL1        0.0425
     21 C         -14.4962   -8.0844   17.6795 C.ar    1  UNL1       -0.0086
     22 C         -13.1002   -8.0143   17.1349 C.3     1  UNL1        0.0323
     23 C         -15.1715   -9.4137   17.8431 C.ar    1  UNL1       -0.0019
     24 C         -16.5673   -9.4838   18.3876 C.ar    1  UNL1        0.0134
     25 C         -17.2879   -8.2246   18.7685 C.ar    1  UNL1       -0.0019
     26 C         -16.6126   -6.8953   18.6049 C.ar    1  UNL1       -0.0086
     27 C         -17.3332   -5.6360   18.9858 C.3     1  UNL1        0.0323
     28 C         -17.2427  -10.8132   18.5513 C.2     1  UNL1        0.0728
     29 O         -16.4436  -12.0152   18.9593 O.co2   1  UNL1       -0.5446
     30 O         -18.7172  -10.9404   18.3068 O.co2   1  UNL1       -0.5446
@<TRIPOS>UNITY_ATOM_ATTR
29 1
charge -1
@<TRIPOS>BOND
     1     1     2    1
     2     2     3   ar
     3     3     4   ar
     4     4     5   ar
     5     5     8    1
     6     8     9    1
     7     9    10    1
     8    10    11    1
     9    11    12    1
    10    11    13    1
    11    13    14    1
    12     5     6   ar
    13     6     7   ar
    14     7    16    1
    15    16    17    2
    16    16    18   am
    17    18    20    1
    18    20    21   ar
    19    21    22    1
    20    21    23   ar
    21    23    24   ar
    22    24    28    1
    23    28    29   ar
    24    28    30   ar
    25    24    25   ar
    26    25    26   ar
    27    26    27    1
    28     7     2   ar
    29    26    20   ar
    30    14     8    1
    31    12    15    1
    32    18    19    1
@<TRIPOS>MOLECULE
*****
 30 32 0 0 0
SMALL
GASTEIGER

@<TRIPOS>ATOM
      1 C           7.9733   -2.0460   18.8855 C.3     1  UNL1        0.0328
      2 C           7.8984   -2.8805   20.1298 C.ar    1  UNL1        0.0004
      3 C           8.9462   -3.9192   20.4004 C.ar    1  UNL1        0.0002
      4 C           8.8713   -4.7536   21.6446 C.ar    1  UNL1        0.0340
      5 C           7.7487   -4.5493   22.6182 C.ar    1  UNL1        0.1318
      6 N           6.7010   -3.5106   22.3476 N.ar    1  UNL1       -0.2264
      7 C           6.7759   -2.6762   21.1034 C.ar    1  UNL1        0.1322
      8 N           7.6738   -5.3837   23.8625 N.pl3   1  UNL1       -0.2931
      9 C           6.9862   -4.8492   25.0837 C.3     1  UNL1        0.0946
     10 C           6.9113   -5.6836   26.3280 C.3     1  UNL1        0.0507
     11 C           7.5241   -7.0525   26.3510 C.3     1  UNL1        0.1139
     12 O           7.4492   -7.8870   27.5952 O.3     1  UNL1       -0.3843
     13 C           8.2118   -7.5870   25.1298 C.3     1  UNL1        0.0507
     14 C           8.2866   -6.7526   23.8855 C.3     1  UNL1        0.0946
     15 H           7.0628   -7.3622   28.3137 H       1  UNL1        0.2103
     16 C           5.7280   -1.6374   20.8328 C.2     1  UNL1        0.2670
     17 O           6.0088   -0.1940   21.1292 O.2     1  UNL1       -0.2682
     18 N           4.3996   -2.0420   20.2658 N.am    1  UNL1       -0.2797
     19 H           4.2154   -2.9894   20.0713 H       1  UNL1        0.1552
     20 C           3.3518   -1.0033   19.9953 C.ar    1  UNL1        0.0425
     21 C           2.5452   -0.4391   21.1271 C.ar    1  UNL1       -0.0086
     22 C           2.7863   -0.9137   22.5295 C.3     1  UNL1        0.0323
     23 C           1.4974    0.5996   20.8566 C.ar    1  UNL1       -0.0019
     24 C           1.2563    1.0742   19.4542 C.ar    1  UNL1        0.0134
     25 C           2.0629    0.5100   18.3224 C.ar    1  UNL1       -0.0019
     26 C           3.1107   -0.5287   18.5929 C.ar    1  UNL1       -0.0086
     27 C           3.9173   -1.0929   17.4611 C.3     1  UNL1        0.0323
     28 C           0.2085    2.1129   19.1836 C.2     1  UNL1        0.0728
     29 O           0.1703    2.8119   17.8570 O.co2   1  UNL1       -0.5446
     30 O          -0.8011    2.4526   20.2397 O.co2   1  UNL1       -0.5446
@<TRIPOS>UNITY_ATOM_ATTR
29 1
charge -1
@<TRIPOS>BOND
     1     1     2    1
     2     2     3   ar
     3     3     4   ar
     4     4     5   ar
     5     5     8    1
     6     8     9    1
     7     9    10    1
     8    10    11    1
     9    11    12    1
    10    11    13    1
    11    13    14    1
    12     5     6   ar
    13     6     7   ar
    14     7    16    1
    15    16    17    2
    16    16    18   am
    17    18    20    1
    18    20    21   ar
    19    21    22    1
    20    21    23   ar
    21    23    24   ar
    22    24    28    1
    23    28    29   ar
    24    28    30   ar
    25    24    25   ar
    26    25    26   ar
    27    26    27    1
    28     7     2   ar
    29    26    20   ar
    30    14     8    1
    31    12    15    1
    32    18    19    1
@<TRIPOS>MOLECULE
*****
 30 32 0 0 0
SMALL
GASTEIGER

@<TRIPOS>ATOM
      1 C           8.0481   -8.0294   27.4531 C.3     1  UNL1        0.0328
      2 C           8.0569   -7.1999   26.2034 C.ar    1  UNL1        0.0004
      3 C           8.6692   -7.7436   24.9466 C.ar    1  UNL1        0.0002
      4 C           8.6780   -6.9141   23.6969 C.ar    1  UNL1        0.0340
      5 C           8.0746   -5.5409   23.7039 C.ar    1  UNL1        0.1318
      6 N           7.4623   -4.9972   24.9607 N.ar    1  UNL1       -0.2264
      7 C           7.4535   -5.8267   26.2104 C.ar    1  UNL1        0.1322
      8 N           8.0834   -4.7114   22.4542 N.pl3   1  UNL1       -0.2931
      9 C           6.8658   -3.9256   22.0670 C.3     1  UNL1        0.0946
     10 C           6.8746   -3.0961   20.8172 C.3     1  UNL1        0.0507
     11 C           8.1010   -3.0524   19.9547 C.3     1  UNL1        0.1139
     12 O           8.1098   -2.2229   18.7049 O.3     1  UNL1       -0.3843
     13 C           9.3186   -3.8383   20.3418 C.3     1  UNL1        0.0507
     14 C           9.3098   -4.6678   21.5916 C.3     1  UNL1        0.0946
     15 H           7.2231   -1.8612   18.5507 H       1  UNL1        0.2103
     16 C           6.8412   -5.2829   27.4672 C.2     1  UNL1        0.2670
     17 O           5.4669   -5.7184   27.8813 O.2     1  UNL1       -0.2682
     18 N           7.6033   -4.3035   28.3099 N.am    1  UNL1       -0.2797
     19 H           8.5053   -4.0176   28.0381 H       1  UNL1        0.1552
     20 C           6.9910   -3.7597   29.5667 C.ar    1  UNL1        0.0425
     21 C           7.0953   -4.5335   30.8474 C.ar    1  UNL1       -0.0086
     22 C           7.8119   -5.8511   30.8714 C.3     1  UNL1        0.0323
     23 C           6.4830   -3.9898   32.1042 C.ar    1  UNL1       -0.0019
     24 C           5.7665   -2.6723   32.0802 C.ar    1  UNL1        0.0134
     25 C           5.6622   -1.8984   30.7994 C.ar    1  UNL1       -0.0019
     26 C           6.2745   -2.4422   29.5427 C.ar    1  UNL1       -0.0086
     27 C           6.1702   -1.6684   28.2619 C.3     1  UNL1        0.0323
     28 C           5.1542   -2.1285   33.3370 C.2     1  UNL1        0.0728
     29 O           5.8416   -1.0292   34.0913 O.co2   1  UNL1       -0.5446
     30 O           3.8546   -2.6840   33.8393 O.co2   1  UNL1       -0.5446
@<TRIPOS>UNITY_ATOM_ATTR
29 1
charge -1
@<TRIPOS>BOND
     1     1     2    1
     2     2     3   ar
     3     3     4   ar
     4     4     5   ar
     5     5     8    1
     6     8     9    1
     7     9    10    1
     8    10    11    1
     9    11    12    1
    10    11    13    1
    11    13    14    1
    12     5     6   ar
    13     6     7   ar
    14     7    16    1
    15    16    17    2
    16    16    18   am
    17    18    20    1
    18    20    21   ar
    19    21    22    1
    20    21    23   ar
    21    23    24   ar
    22    24    28    1
    23    28    29   ar
    24    28    30   ar
    25    24    25   ar
    26    25    26   ar
    27    26    27    1
    28     7     2   ar
    29    26    20   ar
    30    14     8    1
    31    12    15    1
    32    18    19    1
@<TRIPOS>MOLECULE
*****
 30 32 0 0 0
SMALL
GASTEIGER

@<TRIPOS>ATOM
      1 C          -1.3756    3.5598   23.9776 C.3     1  UNL1        0.0328
      2 C          -0.5459    2.7659   23.0125 C.ar    1  UNL1        0.0004
      3 C           0.6380    1.9875   23.5048 C.ar    1  UNL1        0.0002
      4 C           1.4676    1.1937   22.5396 C.ar    1  UNL1        0.0340
      5 C           1.1134    1.1783   21.0822 C.ar    1  UNL1        0.1318
      6 N          -0.0705    1.9567   20.5899 N.ar    1  UNL1       -0.2264
      7 C          -0.9002    2.7505   21.5550 C.ar    1  UNL1        0.1322
      8 N           1.9430    0.3844   20.1170 N.pl3   1  UNL1       -0.2931
      9 C           2.3401    0.9832   18.8003 C.3     1  UNL1        0.0946
     10 C           3.1698    0.1893   17.8351 C.3     1  UNL1        0.0507
     11 C           3.6023   -1.2032   18.1867 C.3     1  UNL1        0.1139
     12 O           4.4320   -1.9971   17.2216 O.3     1  UNL1       -0.3843
     13 C           3.2052   -1.8020   19.5034 C.3     1  UNL1        0.0507
     14 C           2.3756   -1.0081   20.4686 C.3     1  UNL1        0.0946
     15 H           4.5167   -1.5070   16.3888 H       1  UNL1        0.2103
     16 C          -2.0841    3.5289   21.0626 C.2     1  UNL1        0.2670
     17 O          -2.0262    5.0268   21.0064 O.2     1  UNL1       -0.2682
     18 N          -3.3260    2.8096   20.6265 N.am    1  UNL1       -0.2797
     19 H          -3.3640    1.8265   20.6633 H       1  UNL1        0.1552
     20 C          -4.5099    3.5880   20.1341 C.ar    1  UNL1        0.0425
     21 C          -5.6245    3.9340   21.0764 C.ar    1  UNL1       -0.0086
     22 C          -5.5552    3.5015   22.5111 C.3     1  UNL1        0.0323
     23 C          -6.8084    4.7124   20.5841 C.ar    1  UNL1       -0.0019
     24 C          -6.8777    5.1448   19.1495 C.ar    1  UNL1        0.0134
     25 C          -5.7631    4.7988   18.2072 C.ar    1  UNL1       -0.0019
     26 C          -4.5792    4.0204   18.6995 C.ar    1  UNL1       -0.0086
     27 C          -3.4646    3.6744   17.7572 C.3     1  UNL1        0.0323
     28 C          -8.0617    5.9232   18.6571 C.2     1  UNL1        0.0728
     29 O          -8.9883    6.5791   19.6374 O.co2   1  UNL1       -0.5446
     30 O          -8.3189    6.0457   17.1844 O.co2   1  UNL1       -0.5446
@<TRIPOS>UNITY_ATOM_ATTR
29 1
charge -1
@<TRIPOS>BOND
     1     1     2    1
     2     2     3   ar
     3     3     4   ar
     4     4     5   ar
     5     5     8    1
     6     8     9    1
     7     9    10    1
     8    10    11    1
     9    11    12    1
    10    11    13    1
    11    13    14    1
    12     5     6   ar
    13     6     7   ar
    14     7    16    1
    15    16    17    2
    16    16    18   am
    17    18    20    1
    18    20    21   ar
    19    21    22    1
    20    21    23   ar
    21    23    24   ar
    22    24    28    1
    23    28    29   ar
    24    28    30   ar
    25    24    25   ar
    26    25    26   ar
    27    26    27    1
    28     7     2   ar
    29    26    20   ar
    30    14     8    1
    31    12    15    1
    32    18    19    1
@<TRIPOS>MOLECULE
*****
 30 32 0 0 0
SMALL
GASTEIGER

@<TRIPOS>ATOM
      1 C           0.4532    2.8986   18.5108 C.3     1  UNL1        0.0328
      2 C          -0.2803    3.1518   19.7945 C.ar    1  UNL1        0.0004
      3 C          -1.0755    4.4117   19.9680 C.ar    1  UNL1        0.0002
      4 C          -1.8090    4.6649   21.2517 C.ar    1  UNL1        0.0340
      5 C          -1.7473    3.6582   22.3619 C.ar    1  UNL1        0.1318
      6 N          -0.9521    2.3982   22.1884 N.ar    1  UNL1       -0.2264
      7 C          -0.2186    2.1450   20.9047 C.ar    1  UNL1        0.1322
      8 N          -2.4808    3.9114   23.6456 N.pl3   1  UNL1       -0.2931
      9 C          -1.7698    4.5483   24.8026 C.3     1  UNL1        0.0946
     10 C          -2.5033    4.8015   26.0863 C.3     1  UNL1        0.0507
     11 C          -3.9478    4.4177   26.2130 C.3     1  UNL1        0.1139
     12 O          -4.6813    4.6709   27.4967 O.3     1  UNL1       -0.3843
     13 C          -4.6588    3.7808   25.0560 C.3     1  UNL1        0.0507
     14 C          -3.9253    3.5276   23.7723 C.3     1  UNL1        0.0946
     15 H          -4.0586    4.9941   28.1666 H       1  UNL1        0.2103
     16 C           0.5766    0.8850   20.7313 C.2     1  UNL1        0.2670
     17 O          -0.1269   -0.4222   20.5161 O.2     1  UNL1       -0.2682
     18 N           2.0753    0.9322   20.7729 N.am    1  UNL1       -0.2797
     19 H           2.5370    1.7902   20.9141 H       1  UNL1        0.1552
     20 C           2.8705   -0.3278   20.5995 C.ar    1  UNL1        0.0425
     21 C           3.2487   -0.7927   19.2244 C.ar    1  UNL1       -0.0086
     22 C           2.8316    0.0025   18.0228 C.3     1  UNL1        0.0323
     23 C           4.0439   -2.0526   19.0509 C.ar    1  UNL1       -0.0019
     24 C           4.4609   -2.8477   20.2525 C.ar    1  UNL1        0.0134
     25 C           4.0827   -2.3828   21.6276 C.ar    1  UNL1       -0.0019
     26 C           3.2875   -1.1229   21.8011 C.ar    1  UNL1       -0.0086
     27 C           2.9093   -0.6580   23.1762 C.3     1  UNL1        0.0323
     28 C           5.2561   -4.1077   20.0790 C.2     1  UNL1        0.0728
     29 O           6.5949   -4.2468   20.7410 O.co2   1  UNL1       -0.5446
     30 O           4.7125   -5.2287   19.2436 O.co2   1  UNL1       -0.5446
@<TRIPOS>UNITY_ATOM_ATTR
29 1
charge -1
@<TRIPOS>BOND
     1     1     2    1
     2     2     3   ar
     3     3     4   ar
     4     4     5   ar
     5     5     8    1
     6     8     9    1
     7     9    10    1
     8    10    11    1
     9    11    12    1
    10    11    13    1
    11    13    14    1
    12     5     6   ar
    13     6     7   ar
    14     7    16    1
    15    16    17    2
    16    16    18   am
    17    18    20    1
    18    20    21   ar
    19    21    22    1
    20    21    23   ar
    21    23    24   ar
    22    24    28    1
    23    28    29   ar
    24    28    30   ar
    25    24    25   ar
    26    25    26   ar
    27    26    27    1
    28     7     2   ar
    29    26    20   ar
    30    14     8    1
    31    12    15    1
    32    18    19    1
@<TRIPOS>MOLECULE
*****
 30 32 0 0 0
SMALL
GASTEIGER

@<TRIPOS>ATOM
      1 C           1.6309    3.4900   18.9447 C.3     1  UNL1        0.0328
      2 C           0.2562    3.5684   19.5395 C.ar    1  UNL1        0.0004
      3 C          -0.5443    4.8308   19.4145 C.ar    1  UNL1        0.0002
      4 C          -1.9191    4.9092   20.0093 C.ar    1  UNL1        0.0340
      5 C          -2.4934    3.7252   20.7292 C.ar    1  UNL1        0.1318
      6 N          -1.6930    2.4629   20.8543 N.ar    1  UNL1       -0.2264
      7 C          -0.3182    2.3845   20.2595 C.ar    1  UNL1        0.1322
      8 N          -3.8682    3.8036   21.3240 N.pl3   1  UNL1       -0.2931
      9 C          -4.0791    3.4722   22.7717 C.3     1  UNL1        0.0946
     10 C          -5.4538    3.5506   23.3665 C.3     1  UNL1        0.0507
     11 C          -6.6178    3.9604   22.5137 C.3     1  UNL1        0.1139
     12 O          -7.9925    4.0388   23.1085 O.3     1  UNL1       -0.3843
     13 C          -6.4069    4.2918   21.0661 C.3     1  UNL1        0.0507
     14 C          -5.0321    4.2134   20.4712 C.3     1  UNL1        0.0946
     15 H          -7.9710    3.7024   24.0181 H       1  UNL1        0.2103
     16 C           0.4823    1.1220   20.3846 C.2     1  UNL1        0.2670
     17 O          -0.2146   -0.2048   20.4471 O.2     1  UNL1       -0.2682
     18 N           1.9795    1.1864   20.4472 N.am    1  UNL1       -0.2797
     19 H           2.4369    2.0572   20.4061 H       1  UNL1        0.1552
     20 C           2.7800   -0.0760   20.5723 C.ar    1  UNL1        0.0425
     21 C           3.3157   -0.7493   19.3435 C.ar    1  UNL1       -0.0086
     22 C           3.0509   -0.1601   17.9897 C.3     1  UNL1        0.0323
     23 C           4.1161   -2.0117   19.4686 C.ar    1  UNL1       -0.0019
     24 C           4.3808   -2.6008   20.8224 C.ar    1  UNL1        0.0134
     25 C           3.8452   -1.9275   22.0511 C.ar    1  UNL1       -0.0019
     26 C           3.0447   -0.6652   21.9261 C.ar    1  UNL1       -0.0086
     27 C           2.5090    0.0081   23.1548 C.3     1  UNL1        0.0323
     28 C           5.1813   -3.8632   20.9475 C.2     1  UNL1        0.0728
     29 O           5.4339   -4.7140   19.7383 O.co2   1  UNL1       -0.5446
     30 O           5.7291   -4.2748   22.2819 O.co2   1  UNL1       -0.5446
@<TRIPOS>UNITY_ATOM_ATTR
29 1
charge -1
@<TRIPOS>BOND
     1     1     2    1
     2     2     3   ar
     3     3     4   ar
     4     4     5   ar
     5     5     8    1
     6     8     9    1
     7     9    10    1
     8    10    11    1
     9    11    12    1
    10    11    13    1
    11    13    14    1
    12     5     6   ar
    13     6     7   ar
    14     7    16    1
    15    16    17    2
    16    16    18   am
    17    18    20    1
    18    20    21   ar
    19    21    22    1
    20    21    23   ar
    21    23    24   ar
    22    24    28    1
    23    28    29   ar
    24    28    30   ar
    25    24    25   ar
    26    25    26   ar
    27    26    27    1
    28     7     2   ar
    29    26    20   ar
    30    14     8    1
    31    12    15    1
    32    18    19    1
@<TRIPOS>MOLECULE
*****
 30 32 0 0 0
SMALL
GASTEIGER

@<TRIPOS>ATOM
      1 C          -1.3352    3.4461   21.4861 C.3     1  UNL1        0.0328
      2 C          -1.0872    3.1705   22.9395 C.ar    1  UNL1        0.0004
      3 C          -2.0790    3.6248   23.9689 C.ar    1  UNL1        0.0002
      4 C          -1.8310    3.3492   25.4224 C.ar    1  UNL1        0.0340
      5 C          -0.5912    2.6193   25.8464 C.ar    1  UNL1        0.1318
      6 N           0.4007    2.1649   24.8170 N.ar    1  UNL1       -0.2264
      7 C           0.1527    2.4405   23.3636 C.ar    1  UNL1        0.1322
      8 N          -0.3432    2.3437   27.2999 N.pl3   1  UNL1       -0.2931
      9 C           0.4330    3.3247   28.1275 C.3     1  UNL1        0.0946
     10 C           0.6810    3.0491   29.5810 C.3     1  UNL1        0.0507
     11 C           0.1529    1.7925   30.2068 C.3     1  UNL1        0.1139
     12 O           0.4009    1.5169   31.6603 O.3     1  UNL1       -0.3843
     13 C          -0.6233    0.8114   29.3792 C.3     1  UNL1        0.0507
     14 C          -0.8713    1.0870   27.9257 C.3     1  UNL1        0.0946
     15 H           0.9941    2.1941   32.0211 H       1  UNL1        0.2103
     16 C           1.1446    1.9861   22.3341 C.2     1  UNL1        0.2670
     17 O           2.3421    2.8335   22.0211 O.2     1  UNL1       -0.2682
     18 N           0.9391    0.6843   21.6178 N.am    1  UNL1       -0.2797
     19 H           0.1531    0.1282   21.8233 H       1  UNL1        0.1552
     20 C           1.9310    0.2299   20.5884 C.ar    1  UNL1        0.0425
     21 C           3.0435   -0.6981   20.9772 C.ar    1  UNL1       -0.0086
     22 C           3.1640   -1.1717   22.3954 C.3     1  UNL1        0.0323
     23 C           4.0354   -1.1525   19.9478 C.ar    1  UNL1       -0.0019
     24 C           3.9148   -0.6789   18.5297 C.ar    1  UNL1        0.0134
     25 C           2.8023    0.2491   18.1409 C.ar    1  UNL1       -0.0019
     26 C           1.8104    0.7035   19.1703 C.ar    1  UNL1       -0.0086
     27 C           0.6979    1.6316   18.7815 C.3     1  UNL1        0.0323
     28 C           4.9067   -1.1333   17.5003 C.2     1  UNL1        0.0728
     29 O           5.3373   -0.1981   16.4095 O.co2   1  UNL1       -0.5446
     30 O           5.4680   -2.5230   17.5617 O.co2   1  UNL1       -0.5446
@<TRIPOS>UNITY_ATOM_ATTR
29 1
charge -1
@<TRIPOS>BOND
     1     1     2    1
     2     2     3   ar
     3     3     4   ar
     4     4     5   ar
     5     5     8    1
     6     8     9    1
     7     9    10    1
     8    10    11    1
     9    11    12    1
    10    11    13    1
    11    13    14    1
    12     5     6   ar
    13     6     7   ar
    14     7    16    1
    15    16    17    2
    16    16    18   am
    17    18    20    1
    18    20    21   ar
    19    21    22    1
    20    21    23   ar
    21    23    24   ar
    22    24    28    1
    23    28    29   ar
    24    28    30   ar
    25    24    25   ar
    26    25    26   ar
    27    26    27    1
    28     7     2   ar
    29    26    20   ar
    30    14     8    1
    31    12    15    1
    32    18    19    1
