@<TRIPOS>MOLECULE
*****
 33 37 0 0 0
SMALL
GASTEIGER

@<TRIPOS>ATOM
      1 C         -11.9208   -5.8808   17.8361 C.ar    1  UNL1        0.0536
      2 C         -12.8019   -6.4451   16.7612 C.ar    1  UNL1        0.0045
      3 C         -14.2578   -6.6826   17.0327 C.ar    1  UNL1        0.0001
      4 C         -14.8327   -6.3558   18.3792 C.ar    1  UNL1       -0.0001
      5 C         -13.9517   -5.7916   19.4540 C.ar    1  UNL1        0.0001
      6 C         -12.4957   -5.5541   19.1825 C.ar    1  UNL1        0.0045
      7 C         -16.2887   -6.5934   18.6507 C.2     1  UNL1        0.0020
      8 C         -16.8743   -7.9608   18.4574 C.2     1  UNL1        0.0130
      9 C         -18.3303   -8.1983   18.7290 C.3     1  UNL1        0.1542
     10 C         -17.4600   -9.3281   18.2642 C.3     1  UNL1        0.0614
     11 C         -18.0456  -10.6955   18.0710 C.3     1  UNL1        0.0725
     12 N         -19.5016  -10.9330   18.3425 N.3     1  UNL1       -0.2972
     13 C         -20.3719   -9.8032   18.8073 C.3     1  UNL1        0.0725
     14 C         -19.7863   -8.4359   19.0005 C.3     1  UNL1        0.0614
     15 O         -19.2007   -7.0684   19.1937 O.3     1  UNL1       -0.4785
     16 C         -18.6150   -5.7011   19.3869 C.ar    1  UNL1        0.1386
     17 C         -19.4854   -4.5712   19.8517 C.ar    1  UNL1        0.0369
     18 C         -18.8997   -3.2039   20.0449 C.ar    1  UNL1        0.0031
     19 C         -17.4438   -2.9663   19.7734 C.ar    1  UNL1        0.0002
     20 C         -16.5734   -4.0961   19.3086 C.ar    1  UNL1        0.0030
     21 C         -17.1591   -5.4636   19.1154 C.ar    1  UNL1        0.0338
     22 H         -19.5532  -11.6580   19.0581 H       1  UNL1        0.1233
     23 C          -8.5865   -4.2728   16.4054 C.3     1  UNL1        0.1155
     24 N         -10.0425   -4.5103   16.6769 N.am    1  UNL1       -0.2702
     25 C         -10.4648   -5.6432   17.5646 C.2     1  UNL1        0.2493
     26 O          -9.4311   -6.5387   18.1809 O.2     1  UNL1       -0.2699
     27 C         -11.0762   -3.6148   16.0606 C.3     1  UNL1        0.1205
     28 C         -11.9819   -2.8011   16.9367 C.ar    1  UNL1       -0.0023
     29 C         -13.4543   -2.7535   16.6543 C.ar    1  UNL1       -0.0026
     30 C         -14.3601   -1.9397   17.5303 C.ar    1  UNL1       -0.0003
     31 C         -13.7934   -1.1736   18.6887 C.ar    1  UNL1       -0.0000
     32 C         -12.3209   -1.2212   18.9711 C.ar    1  UNL1       -0.0003
     33 C         -11.4152   -2.0350   18.0951 C.ar    1  UNL1       -0.0026
@<TRIPOS>BOND
     1    23    24    1
     2    24    27    1
     3    27    28    1
     4    28    29   ar
     5    29    30   ar
     6    30    31   ar
     7    31    32   ar
     8    32    33   ar
     9    24    25   am
    10    25    26    2
    11    25     1    1
    12     1     2   ar
    13     2     3   ar
    14     3     4   ar
    15     4     7    1
    16     7     8    2
    17     8     9    1
    18     9    10    1
    19    10    11    1
    20    11    12    1
    21    12    13    1
    22    13    14    1
    23     9    15    1
    24    15    16    1
    25    16    17   ar
    26    17    18   ar
    27    18    19   ar
    28    19    20   ar
    29    20    21   ar
    30     4     5   ar
    31     5     6   ar
    32    33    28   ar
    33     6     1   ar
    34    21     7    1
    35    14     9    1
    36    21    16   ar
    37    12    22    1
@<TRIPOS>MOLECULE
*****
 33 37 0 0 0
SMALL
GASTEIGER

@<TRIPOS>ATOM
      1 C         -12.9935   -5.5666   18.6774 C.ar    1  UNL1        0.0536
      2 C         -13.6344   -4.9267   17.4816 C.ar    1  UNL1        0.0045
      3 C         -14.6590   -3.8472   17.6676 C.ar    1  UNL1        0.0001
      4 C         -15.0429   -3.4075   19.0494 C.ar    1  UNL1       -0.0001
      5 C         -14.4021   -4.0473   20.2452 C.ar    1  UNL1        0.0001
      6 C         -13.3774   -5.1269   20.0592 C.ar    1  UNL1        0.0045
      7 C         -16.0676   -2.3279   19.2354 C.2     1  UNL1        0.0020
      8 C         -15.6550   -0.8864   19.1905 C.2     1  UNL1        0.0130
      9 C         -16.6796    0.1931   19.3765 C.3     1  UNL1        0.1542
     10 C         -15.2424    0.5550   19.1455 C.3     1  UNL1        0.0614
     11 C         -14.8299    1.9964   19.1006 C.3     1  UNL1        0.0725
     12 N         -15.8545    3.0759   19.2866 N.3     1  UNL1       -0.2972
     13 C         -17.2918    2.7141   19.5175 C.3     1  UNL1        0.0725
     14 C         -17.7043    1.2727   19.5625 C.3     1  UNL1        0.0614
     15 O         -18.1169   -0.1688   19.6074 O.3     1  UNL1       -0.4785
     16 C         -18.5295   -1.6102   19.6523 C.ar    1  UNL1        0.1386
     17 C         -19.9668   -1.9722   19.8833 C.ar    1  UNL1        0.0369
     18 C         -20.3793   -3.4136   19.9282 C.ar    1  UNL1        0.0031
     19 C         -19.3546   -4.4932   19.7422 C.ar    1  UNL1        0.0002
     20 C         -17.9174   -4.1313   19.5113 C.ar    1  UNL1        0.0030
     21 C         -17.5048   -2.6898   19.4663 C.ar    1  UNL1        0.0338
     22 H         -15.8279    3.6550   18.4473 H       1  UNL1        0.1233
     23 C          -9.4960   -7.4390   18.5711 C.3     1  UNL1        0.1155
     24 N         -10.5207   -6.3595   18.7571 N.am    1  UNL1       -0.2702
     25 C         -11.9688   -6.6461   18.4914 C.2     1  UNL1        0.2493
     26 O         -12.3924   -8.0124   18.0397 O.2     1  UNL1       -0.2699
     27 C         -10.0971   -4.9932   19.2088 C.3     1  UNL1        0.1205
     28 C         -10.2169   -3.8244   18.2763 C.ar    1  UNL1       -0.0023
     29 C         -11.0060   -2.6162   18.6857 C.ar    1  UNL1       -0.0026
     30 C         -11.1257   -1.4473   17.7532 C.ar    1  UNL1       -0.0003
     31 C         -10.4564   -1.4867   16.4114 C.ar    1  UNL1       -0.0000
     32 C          -9.6673   -2.6949   16.0021 C.ar    1  UNL1       -0.0003
     33 C          -9.5475   -3.8637   16.9346 C.ar    1  UNL1       -0.0026
@<TRIPOS>BOND
     1    23    24    1
     2    24    27    1
     3    27    28    1
     4    28    29   ar
     5    29    30   ar
     6    30    31   ar
     7    31    32   ar
     8    32    33   ar
     9    24    25   am
    10    25    26    2
    11    25     1    1
    12     1     2   ar
    13     2     3   ar
    14     3     4   ar
    15     4     7    1
    16     7     8    2
    17     8     9    1
    18     9    10    1
    19    10    11    1
    20    11    12    1
    21    12    13    1
    22    13    14    1
    23     9    15    1
    24    15    16    1
    25    16    17   ar
    26    17    18   ar
    27    18    19   ar
    28    19    20   ar
    29    20    21   ar
    30     4     5   ar
    31     5     6   ar
    32    33    28   ar
    33     6     1   ar
    34    21     7    1
    35    14     9    1
    36    21    16   ar
    37    12    22    1
@<TRIPOS>MOLECULE
*****
 33 37 0 0 0
SMALL
GASTEIGER

@<TRIPOS>ATOM
      1 C         -13.2174   -2.8753   18.0795 C.ar    1  UNL1        0.0536
      2 C         -14.2208   -3.1800   17.0069 C.ar    1  UNL1        0.0045
      3 C         -15.2170   -4.2840   17.2036 C.ar    1  UNL1        0.0001
      4 C         -15.2098   -5.0833   18.4730 C.ar    1  UNL1       -0.0001
      5 C         -14.2065   -4.7786   19.5455 C.ar    1  UNL1        0.0001
      6 C         -13.2102   -3.6745   19.3488 C.ar    1  UNL1        0.0045
      7 C         -16.2060   -6.1873   18.6697 C.2     1  UNL1        0.0020
      8 C         -15.7844   -7.6169   18.5007 C.2     1  UNL1        0.0130
      9 C         -16.7806   -8.7209   18.6974 C.3     1  UNL1        0.1542
     10 C         -15.3628   -9.0465   18.3317 C.3     1  UNL1        0.0614
     11 C         -14.9412  -10.4760   18.1627 C.3     1  UNL1        0.0725
     12 N         -15.9374  -11.5800   18.3594 N.3     1  UNL1       -0.2972
     13 C         -17.3552  -11.2545   18.7251 C.3     1  UNL1        0.0725
     14 C         -17.7768   -9.8249   18.8941 C.3     1  UNL1        0.0614
     15 O         -18.1985   -8.3953   19.0631 O.3     1  UNL1       -0.4785
     16 C         -18.6200   -6.9658   19.2321 C.ar    1  UNL1        0.1386
     17 C         -20.0379   -6.6402   19.5979 C.ar    1  UNL1        0.0369
     18 C         -20.4595   -5.2106   19.7669 C.ar    1  UNL1        0.0031
     19 C         -19.4633   -4.1066   19.5702 C.ar    1  UNL1        0.0002
     20 C         -18.0455   -4.4322   19.2044 C.ar    1  UNL1        0.0030
     21 C         -17.6238   -5.8618   19.0354 C.ar    1  UNL1        0.0338
     22 H         -15.5719  -12.1778   19.1007 H       1  UNL1        0.1233
     23 C         -10.0447   -0.8740   16.7837 C.3     1  UNL1        0.1155
     24 N         -11.0409   -1.9780   16.9804 N.am    1  UNL1       -0.2702
     25 C         -12.2211   -1.7713   17.8828 C.2     1  UNL1        0.2493
     26 O         -12.4052   -0.4604   18.5885 O.2     1  UNL1       -0.2699
     27 C         -10.8569   -3.2889   16.2747 C.3     1  UNL1        0.1205
     28 C         -10.7043   -4.5527   17.0680 C.ar    1  UNL1       -0.0023
     29 C          -9.7274   -4.6114   18.2047 C.ar    1  UNL1       -0.0026
     30 C          -9.5748   -5.8754   18.9980 C.ar    1  UNL1       -0.0003
     31 C         -10.3992   -7.0806   18.6545 C.ar    1  UNL1       -0.0000
     32 C         -11.3762   -7.0218   17.5178 C.ar    1  UNL1       -0.0003
     33 C         -11.5287   -5.7579   16.7245 C.ar    1  UNL1       -0.0026
@<TRIPOS>BOND
     1    23    24    1
     2    24    27    1
     3    27    28    1
     4    28    29   ar
     5    29    30   ar
     6    30    31   ar
     7    31    32   ar
     8    32    33   ar
     9    24    25   am
    10    25    26    2
    11    25     1    1
    12     1     2   ar
    13     2     3   ar
    14     3     4   ar
    15     4     7    1
    16     7     8    2
    17     8     9    1
    18     9    10    1
    19    10    11    1
    20    11    12    1
    21    12    13    1
    22    13    14    1
    23     9    15    1
    24    15    16    1
    25    16    17   ar
    26    17    18   ar
    27    18    19   ar
    28    19    20   ar
    29    20    21   ar
    30     4     5   ar
    31     5     6   ar
    32    33    28   ar
    33     6     1   ar
    34    21     7    1
    35    14     9    1
    36    21    16   ar
    37    12    22    1
@<TRIPOS>MOLECULE
*****
 33 37 0 0 0
SMALL
GASTEIGER

@<TRIPOS>ATOM
      1 C         -15.0675   -0.4205   18.6857 C.ar    1  UNL1        0.0536
      2 C         -14.5662   -1.0298   17.4100 C.ar    1  UNL1        0.0045
      3 C         -14.1938   -2.4822   17.3682 C.ar    1  UNL1        0.0001
      4 C         -14.3226   -3.3253   18.6022 C.ar    1  UNL1       -0.0001
      5 C         -14.8238   -2.7160   19.8779 C.ar    1  UNL1        0.0001
      6 C         -15.1963   -1.2636   19.9196 C.ar    1  UNL1        0.0045
      7 C         -13.9501   -4.7777   18.5604 C.2     1  UNL1        0.0020
      8 C         -15.0135   -5.8197   18.3771 C.2     1  UNL1        0.0130
      9 C         -14.6411   -7.2722   18.3353 C.3     1  UNL1        0.1542
     10 C         -16.0768   -6.8617   18.1938 C.3     1  UNL1        0.0614
     11 C         -17.1401   -7.9037   18.0106 C.3     1  UNL1        0.0725
     12 N         -16.7677   -9.3561   17.9688 N.3     1  UNL1       -0.2972
     13 C         -15.3319   -9.7666   18.1103 C.3     1  UNL1        0.0725
     14 C         -14.2686   -8.7246   18.2936 C.3     1  UNL1        0.0614
     15 O         -13.2052   -7.6826   18.4768 O.3     1  UNL1       -0.4785
     16 C         -12.1419   -6.6406   18.6601 C.ar    1  UNL1        0.1386
     17 C         -10.7060   -7.0510   18.8016 C.ar    1  UNL1        0.0369
     18 C          -9.6427   -6.0091   18.9849 C.ar    1  UNL1        0.0031
     19 C         -10.0152   -4.5566   19.0267 C.ar    1  UNL1        0.0002
     20 C         -11.4510   -4.1462   18.8852 C.ar    1  UNL1        0.0030
     21 C         -12.5144   -5.1882   18.7019 C.ar    1  UNL1        0.0338
     22 H         -17.0899   -9.7170   17.0709 H       1  UNL1        0.1233
     23 C         -17.1247    2.9387   18.2022 C.3     1  UNL1        0.1155
     24 N         -16.7522    1.4863   18.1605 N.am    1  UNL1       -0.2702
     25 C         -15.4400    1.0319   18.7275 C.2     1  UNL1        0.2493
     26 O         -14.5001    2.0300   19.3364 O.2     1  UNL1       -0.2699
     27 C         -17.6920    0.4882   17.5516 C.3     1  UNL1        0.1205
     28 C         -18.1718   -0.6805   18.3602 C.ar    1  UNL1       -0.0023
     29 C         -18.7516   -0.4601   19.7259 C.ar    1  UNL1       -0.0026
     30 C         -19.2314   -1.6289   20.5345 C.ar    1  UNL1       -0.0003
     31 C         -19.1313   -3.0180   19.9774 C.ar    1  UNL1       -0.0000
     32 C         -18.5515   -3.2383   18.6116 C.ar    1  UNL1       -0.0003
     33 C         -18.0717   -2.0696   17.8030 C.ar    1  UNL1       -0.0026
@<TRIPOS>BOND
     1    23    24    1
     2    24    27    1
     3    27    28    1
     4    28    29   ar
     5    29    30   ar
     6    30    31   ar
     7    31    32   ar
     8    32    33   ar
     9    24    25   am
    10    25    26    2
    11    25     1    1
    12     1     2   ar
    13     2     3   ar
    14     3     4   ar
    15     4     7    1
    16     7     8    2
    17     8     9    1
    18     9    10    1
    19    10    11    1
    20    11    12    1
    21    12    13    1
    22    13    14    1
    23     9    15    1
    24    15    16    1
    25    16    17   ar
    26    17    18   ar
    27    18    19   ar
    28    19    20   ar
    29    20    21   ar
    30     4     5   ar
    31     5     6   ar
    32    33    28   ar
    33     6     1   ar
    34    21     7    1
    35    14     9    1
    36    21    16   ar
    37    12    22    1
@<TRIPOS>MOLECULE
*****
 33 37 0 0 0
SMALL
GASTEIGER

@<TRIPOS>ATOM
      1 C           6.4684   -2.2360   20.0347 C.ar    1  UNL1        0.0536
      2 C           7.7041   -1.8718   20.8032 C.ar    1  UNL1        0.0045
      3 C           7.9305   -2.4406   22.1726 C.ar    1  UNL1        0.0001
      4 C           6.9213   -3.3737   22.7734 C.ar    1  UNL1       -0.0001
      5 C           5.6857   -3.7378   22.0049 C.ar    1  UNL1        0.0001
      6 C           5.4593   -3.1690   20.6355 C.ar    1  UNL1        0.0045
      7 C           7.1477   -3.9425   24.1428 C.2     1  UNL1        0.0020
      8 C           6.6590   -3.2024   25.3526 C.2     1  UNL1        0.0130
      9 C           6.8854   -3.7712   26.7220 C.3     1  UNL1        0.1542
     10 C           6.1704   -2.4623   26.5623 C.3     1  UNL1        0.0614
     11 C           5.6817   -1.7223   27.7721 C.3     1  UNL1        0.0725
     12 N           5.9081   -2.2911   29.1414 N.3     1  UNL1       -0.2972
     13 C           6.6232   -3.6000   29.3011 C.3     1  UNL1        0.0725
     14 C           7.1118   -4.3400   28.0913 C.3     1  UNL1        0.0614
     15 O           7.6005   -5.0801   26.8815 O.3     1  UNL1       -0.4785
     16 C           8.0891   -5.8202   25.6718 C.ar    1  UNL1        0.1386
     17 C           8.8042   -7.1291   25.8314 C.ar    1  UNL1        0.0369
     18 C           9.2928   -7.8692   24.6216 C.ar    1  UNL1        0.0031
     19 C           9.0664   -7.3004   23.2523 C.ar    1  UNL1        0.0002
     20 C           8.3514   -5.9915   23.0926 C.ar    1  UNL1        0.0030
     21 C           7.8627   -5.2514   24.3024 C.ar    1  UNL1        0.0338
     22 H           4.9890   -2.4036   29.5692 H       1  UNL1        0.1233
     23 C           5.2417    0.1760   17.1317 C.3     1  UNL1        0.1155
     24 N           5.4681   -0.3929   18.5011 N.am    1  UNL1       -0.2702
     25 C           6.2420   -1.6672   18.6653 C.2     1  UNL1        0.2493
     26 O           6.7897   -2.3727   17.4601 O.2     1  UNL1       -0.2699
     27 C           4.9204    0.3127   19.7062 C.3     1  UNL1        0.1205
     28 C           3.4387    0.3726   19.9314 C.ar    1  UNL1       -0.0023
     29 C           2.7613    1.6980   20.1171 C.ar    1  UNL1       -0.0026
     30 C           1.2795    1.7580   20.3422 C.ar    1  UNL1       -0.0003
     31 C           0.4750    0.4926   20.3816 C.ar    1  UNL1       -0.0000
     32 C           1.1525   -0.8329   20.1958 C.ar    1  UNL1       -0.0003
     33 C           2.6342   -0.8928   19.9707 C.ar    1  UNL1       -0.0026
@<TRIPOS>BOND
     1    23    24    1
     2    24    27    1
     3    27    28    1
     4    28    29   ar
     5    29    30   ar
     6    30    31   ar
     7    31    32   ar
     8    32    33   ar
     9    24    25   am
    10    25    26    2
    11    25     1    1
    12     1     2   ar
    13     2     3   ar
    14     3     4   ar
    15     4     7    1
    16     7     8    2
    17     8     9    1
    18     9    10    1
    19    10    11    1
    20    11    12    1
    21    12    13    1
    22    13    14    1
    23     9    15    1
    24    15    16    1
    25    16    17   ar
    26    17    18   ar
    27    18    19   ar
    28    19    20   ar
    29    20    21   ar
    30     4     5   ar
    31     5     6   ar
    32    33    28   ar
    33     6     1   ar
    34    21     7    1
    35    14     9    1
    36    21    16   ar
    37    12    22    1
@<TRIPOS>MOLECULE
*****
 33 37 0 0 0
SMALL
GASTEIGER

@<TRIPOS>ATOM
      1 C           4.6861   -0.5044   21.8975 C.ar    1  UNL1        0.0536
      2 C           4.0547   -1.4583   22.8678 C.ar    1  UNL1        0.0045
      3 C           3.0769   -0.9536   23.8872 C.ar    1  UNL1        0.0001
      4 C           2.7306    0.5051   23.9363 C.ar    1  UNL1       -0.0001
      5 C           3.3620    1.4590   22.9661 C.ar    1  UNL1        0.0001
      6 C           4.3398    0.9542   21.9467 C.ar    1  UNL1        0.0045
      7 C           1.7528    1.0099   24.9557 C.2     1  UNL1        0.0020
      8 C           1.9469    0.6838   26.4070 C.2     1  UNL1        0.0130
      9 C           0.9691    1.1886   27.4264 C.3     1  UNL1        0.1542
     10 C           2.1410    0.3579   27.8582 C.3     1  UNL1        0.0614
     11 C           2.3351    0.0319   29.3094 C.3     1  UNL1        0.0725
     12 N           1.3573    0.5366   30.3287 N.3     1  UNL1       -0.2972
     13 C           0.1854    1.3674   29.8969 C.3     1  UNL1        0.0725
     14 C          -0.0087    1.6933   28.4457 C.3     1  UNL1        0.0614
     15 O          -0.2028    2.0194   26.9945 O.3     1  UNL1       -0.4785
     16 C          -0.3969    2.3453   25.5433 C.ar    1  UNL1        0.1386
     17 C          -1.5689    3.1761   25.1114 C.ar    1  UNL1        0.0369
     18 C          -1.7630    3.5021   23.6602 C.ar    1  UNL1        0.0031
     19 C          -0.7852    2.9973   22.6408 C.ar    1  UNL1        0.0002
     20 C           0.3867    2.1666   23.0726 C.ar    1  UNL1        0.0030
     21 C           0.5809    1.8406   24.5239 C.ar    1  UNL1        0.0338
     22 H           1.8887    1.0997   30.9929 H       1  UNL1        0.1233
     23 C           6.1540   -2.2909   18.6721 C.3     1  UNL1        0.1155
     24 N           5.1762   -1.7862   19.6915 N.am    1  UNL1       -0.2702
     25 C           5.6639   -1.0091   20.8782 C.2     1  UNL1        0.2493
     26 O           7.1295   -0.7368   21.0455 O.2     1  UNL1       -0.2699
     27 C           3.7106   -2.0585   19.5241 C.3     1  UNL1        0.1205
     28 C           2.7431   -0.9172   19.4174 C.ar    1  UNL1       -0.0023
     29 C           3.0328    0.2275   18.4924 C.ar    1  UNL1       -0.0026
     30 C           2.0652    1.3689   18.3857 C.ar    1  UNL1       -0.0003
     31 C           0.8081    1.3654   19.2040 C.ar    1  UNL1       -0.0000
     32 C           0.5185    0.2206   20.1290 C.ar    1  UNL1       -0.0003
     33 C           1.4860   -0.9207   20.2357 C.ar    1  UNL1       -0.0026
@<TRIPOS>BOND
     1    23    24    1
     2    24    27    1
     3    27    28    1
     4    28    29   ar
     5    29    30   ar
     6    30    31   ar
     7    31    32   ar
     8    32    33   ar
     9    24    25   am
    10    25    26    2
    11    25     1    1
    12     1     2   ar
    13     2     3   ar
    14     3     4   ar
    15     4     7    1
    16     7     8    2
    17     8     9    1
    18     9    10    1
    19    10    11    1
    20    11    12    1
    21    12    13    1
    22    13    14    1
    23     9    15    1
    24    15    16    1
    25    16    17   ar
    26    17    18   ar
    27    18    19   ar
    28    19    20   ar
    29    20    21   ar
    30     4     5   ar
    31     5     6   ar
    32    33    28   ar
    33     6     1   ar
    34    21     7    1
    35    14     9    1
    36    21    16   ar
    37    12    22    1
@<TRIPOS>MOLECULE
*****
 33 37 0 0 0
SMALL
GASTEIGER

@<TRIPOS>ATOM
      1 C         -12.5005   -3.6751   18.8756 C.ar    1  UNL1        0.0536
      2 C         -13.3578   -3.1689   17.7535 C.ar    1  UNL1        0.0045
      3 C         -14.6900   -2.5465   18.0496 C.ar    1  UNL1        0.0001
      4 C         -15.1650   -2.4302   19.4677 C.ar    1  UNL1       -0.0001
      5 C         -14.3077   -2.9364   20.5897 C.ar    1  UNL1        0.0001
      6 C         -12.9755   -3.5588   20.2936 C.ar    1  UNL1        0.0045
      7 C         -16.4972   -1.8077   19.7638 C.2     1  UNL1        0.0020
      8 C         -16.5850   -0.3486   20.1007 C.2     1  UNL1        0.0130
      9 C         -17.9173    0.2739   20.3968 C.3     1  UNL1        0.1542
     10 C         -16.6729    1.1104   20.4377 C.3     1  UNL1        0.0614
     11 C         -16.7608    2.5694   20.7746 C.3     1  UNL1        0.0725
     12 N         -18.0930    3.1918   21.0707 N.3     1  UNL1       -0.2972
     13 C         -19.3374    2.3553   21.0298 C.3     1  UNL1        0.0725
     14 C         -19.2495    0.8963   20.6929 C.3     1  UNL1        0.0614
     15 O         -19.1617   -0.5628   20.3559 O.3     1  UNL1       -0.4785
     16 C         -19.0738   -2.0217   20.0190 C.ar    1  UNL1        0.1386
     17 C         -20.3183   -2.8584   19.9781 C.ar    1  UNL1        0.0369
     18 C         -20.2304   -4.3174   19.6412 C.ar    1  UNL1        0.0031
     19 C         -18.8982   -4.9398   19.3451 C.ar    1  UNL1        0.0002
     20 C         -17.6538   -4.1033   19.3860 C.ar    1  UNL1        0.0030
     21 C         -17.7416   -2.6442   19.7229 C.ar    1  UNL1        0.0338
     22 H         -18.2225    3.9454   20.3955 H       1  UNL1        0.1233
     23 C          -9.6422   -6.3968   18.4608 C.3     1  UNL1        0.1155
     24 N         -10.9744   -5.7744   18.7569 N.am    1  UNL1       -0.2702
     25 C         -11.1683   -4.2976   18.5795 C.2     1  UNL1        0.2493
     26 O         -10.0298   -3.4432   18.1060 O.2     1  UNL1       -0.2699
     27 C         -12.1128   -6.6288   19.2304 C.3     1  UNL1        0.1205
     28 C         -13.3119   -6.8340   18.3529 C.ar    1  UNL1       -0.0023
     29 C         -13.1338   -7.0670   16.8819 C.ar    1  UNL1       -0.0026
     30 C         -14.3330   -7.2723   16.0044 C.ar    1  UNL1       -0.0003
     31 C         -15.7102   -7.2446   16.5980 C.ar    1  UNL1       -0.0000
     32 C         -15.8883   -7.0116   18.0691 C.ar    1  UNL1       -0.0003
     33 C         -14.6892   -6.8063   18.9465 C.ar    1  UNL1       -0.0026
@<TRIPOS>BOND
     1    23    24    1
     2    24    27    1
     3    27    28    1
     4    28    29   ar
     5    29    30   ar
     6    30    31   ar
     7    31    32   ar
     8    32    33   ar
     9    24    25   am
    10    25    26    2
    11    25     1    1
    12     1     2   ar
    13     2     3   ar
    14     3     4   ar
    15     4     7    1
    16     7     8    2
    17     8     9    1
    18     9    10    1
    19    10    11    1
    20    11    12    1
    21    12    13    1
    22    13    14    1
    23     9    15    1
    24    15    16    1
    25    16    17   ar
    26    17    18   ar
    27    18    19   ar
    28    19    20   ar
    29    20    21   ar
    30     4     5   ar
    31     5     6   ar
    32    33    28   ar
    33     6     1   ar
    34    21     7    1
    35    14     9    1
    36    21    16   ar
    37    12    22    1
@<TRIPOS>MOLECULE
*****
 33 37 0 0 0
SMALL
GASTEIGER

@<TRIPOS>ATOM
      1 C           5.3482   -0.0664   24.6223 C.ar    1  UNL1        0.0536
      2 C           6.6837   -0.7112   24.3965 C.ar    1  UNL1        0.0045
      3 C           7.0929   -1.8966   25.2196 C.ar    1  UNL1        0.0001
      4 C           6.1666   -2.4371   26.2685 C.ar    1  UNL1       -0.0001
      5 C           4.8313   -1.7922   26.4942 C.ar    1  UNL1        0.0001
      6 C           4.4221   -0.6069   25.6711 C.ar    1  UNL1        0.0045
      7 C           6.5759   -3.6224   27.0916 C.2     1  UNL1        0.0020
      8 C           6.4731   -3.5685   28.5872 C.2     1  UNL1        0.0130
      9 C           6.8823   -4.7538   29.4103 C.3     1  UNL1        0.1542
     10 C           6.3704   -3.5146   30.0827 C.3     1  UNL1        0.0614
     11 C           6.2677   -3.4607   31.5781 C.3     1  UNL1        0.0725
     12 N           6.6769   -4.6460   32.4012 N.3     1  UNL1       -0.2972
     13 C           7.1888   -5.8853   31.7289 C.3     1  UNL1        0.0725
     14 C           7.2915   -5.9392   30.2334 C.3     1  UNL1        0.0614
     15 O           7.3943   -5.9931   28.7378 O.3     1  UNL1       -0.4785
     16 C           7.4970   -6.0470   27.2424 C.ar    1  UNL1        0.1386
     17 C           8.0090   -7.2863   26.5699 C.ar    1  UNL1        0.0369
     18 C           8.1117   -7.3402   25.0744 C.ar    1  UNL1        0.0031
     19 C           7.7025   -6.1549   24.2513 C.ar    1  UNL1        0.0002
     20 C           7.1906   -4.9156   24.9237 C.ar    1  UNL1        0.0030
     21 C           7.0878   -4.8617   26.4193 C.ar    1  UNL1        0.0338
     22 H           5.8599   -4.9225   32.9458 H       1  UNL1        0.1233
     23 C           3.3186    2.2234   22.0951 C.3     1  UNL1        0.1155
     24 N           3.7278    1.0381   22.9182 N.am    1  UNL1       -0.2702
     25 C           4.9390    1.1189   23.7992 C.2     1  UNL1        0.2493
     26 O           5.7411    2.3852   23.8572 O.2     1  UNL1       -0.2699
     27 C           2.9256   -0.2282   22.8602 C.3     1  UNL1        0.1205
     28 C           3.3694   -1.3574   21.9783 C.ar    1  UNL1       -0.0023
     29 C           4.1440   -2.5030   22.5593 C.ar    1  UNL1       -0.0026
     30 C           4.5878   -3.6323   21.6774 C.ar    1  UNL1       -0.0003
     31 C           4.2571   -3.6159   20.2144 C.ar    1  UNL1       -0.0000
     32 C           3.4825   -2.4703   19.6333 C.ar    1  UNL1       -0.0003
     33 C           3.0387   -1.3410   20.5153 C.ar    1  UNL1       -0.0026
@<TRIPOS>BOND
     1    23    24    1
     2    24    27    1
     3    27    28    1
     4    28    29   ar
     5    29    30   ar
     6    30    31   ar
     7    31    32   ar
     8    32    33   ar
     9    24    25   am
    10    25    26    2
    11    25     1    1
    12     1     2   ar
    13     2     3   ar
    14     3     4   ar
    15     4     7    1
    16     7     8    2
    17     8     9    1
    18     9    10    1
    19    10    11    1
    20    11    12    1
    21    12    13    1
    22    13    14    1
    23     9    15    1
    24    15    16    1
    25    16    17   ar
    26    17    18   ar
    27    18    19   ar
    28    19    20   ar
    29    20    21   ar
    30     4     5   ar
    31     5     6   ar
    32    33    28   ar
    33     6     1   ar
    34    21     7    1
    35    14     9    1
    36    21    16   ar
    37    12    22    1
@<TRIPOS>MOLECULE
*****
 33 37 0 0 0
SMALL
GASTEIGER

@<TRIPOS>ATOM
      1 C           5.5776   -2.5467   20.3110 C.ar    1  UNL1        0.0536
      2 C           6.9346   -2.3029   20.9020 C.ar    1  UNL1        0.0045
      3 C           7.2165   -2.6980   22.3213 C.ar    1  UNL1        0.0001
      4 C           6.1413   -3.3368   23.1496 C.ar    1  UNL1       -0.0001
      5 C           4.7844   -3.5806   22.5586 C.ar    1  UNL1        0.0001
      6 C           4.5026   -3.1856   21.1393 C.ar    1  UNL1        0.0045
      7 C           6.4231   -3.7318   24.5690 C.2     1  UNL1        0.0020
      8 C           7.0297   -5.0707   24.8685 C.2     1  UNL1        0.0130
      9 C           7.3115   -5.4657   26.2879 C.3     1  UNL1        0.1542
     10 C           7.6362   -6.4095   25.1681 C.3     1  UNL1        0.0614
     11 C           8.2427   -7.7482   25.4677 C.3     1  UNL1        0.0725
     12 N           8.5246   -8.1432   26.8870 N.3     1  UNL1       -0.2972
     13 C           8.1999   -7.1995   28.0068 C.3     1  UNL1        0.0725
     14 C           7.5934   -5.8607   27.7072 C.3     1  UNL1        0.0614
     15 O           6.9868   -4.5219   27.4077 O.3     1  UNL1       -0.4785
     16 C           6.3803   -3.1831   27.1081 C.ar    1  UNL1        0.1386
     17 C           6.0556   -2.2393   28.2279 C.ar    1  UNL1        0.0369
     18 C           5.4491   -0.9005   27.9283 C.ar    1  UNL1        0.0031
     19 C           5.1673   -0.5055   26.5089 C.ar    1  UNL1        0.0002
     20 C           5.4919   -1.4492   25.3892 C.ar    1  UNL1        0.0030
     21 C           6.0985   -2.7881   25.6887 C.ar    1  UNL1        0.0338
     22 H           9.5243   -8.3370   26.9458 H       1  UNL1        0.1233
     23 C           4.4706   -0.3923   17.1673 C.3     1  UNL1        0.1155
     24 N           4.7525   -0.7873   18.5866 N.am    1  UNL1       -0.2702
     25 C           5.2958   -2.1517   18.8916 C.2     1  UNL1        0.2493
     26 O           5.5573   -3.1212   17.7772 O.2     1  UNL1       -0.2699
     27 C           4.4909    0.1822   19.7010 C.3     1  UNL1        0.1205
     28 C           3.0817    0.4884   20.1135 C.ar    1  UNL1       -0.0023
     29 C           2.0204   -0.5652   19.9969 C.ar    1  UNL1       -0.0026
     30 C           0.6111   -0.2591   20.4094 C.ar    1  UNL1       -0.0003
     31 C           0.2631    1.1006   20.9385 C.ar    1  UNL1       -0.0000
     32 C           1.3244    2.1543   21.0551 C.ar    1  UNL1       -0.0003
     33 C           2.7337    1.8481   20.6426 C.ar    1  UNL1       -0.0026
@<TRIPOS>BOND
     1    23    24    1
     2    24    27    1
     3    27    28    1
     4    28    29   ar
     5    29    30   ar
     6    30    31   ar
     7    31    32   ar
     8    32    33   ar
     9    24    25   am
    10    25    26    2
    11    25     1    1
    12     1     2   ar
    13     2     3   ar
    14     3     4   ar
    15     4     7    1
    16     7     8    2
    17     8     9    1
    18     9    10    1
    19    10    11    1
    20    11    12    1
    21    12    13    1
    22    13    14    1
    23     9    15    1
    24    15    16    1
    25    16    17   ar
    26    17    18   ar
    27    18    19   ar
    28    19    20   ar
    29    20    21   ar
    30     4     5   ar
    31     5     6   ar
    32    33    28   ar
    33     6     1   ar
    34    21     7    1
    35    14     9    1
    36    21    16   ar
    37    12    22    1
