@<TRIPOS>MOLECULE
*****
 43 47 0 0 0
SMALL
GASTEIGER

@<TRIPOS>ATOM
      1 C           0.8808    2.8908   24.5231 C.3     1  UNL1        0.0771
      2 C          -0.0285    2.6741   25.6961 C.3     1  UNL1        0.0370
      3 C          -1.4989    2.9390   25.5642 C.3     1  UNL1        0.0737
      4 N          -2.0601    3.4207   24.2592 N.3     1  UNL1       -0.2737
      5 C          -1.1508    3.6374   23.0861 C.3     1  UNL1        0.0750
      6 C           0.3196    3.3725   23.2180 C.3     1  UNL1        0.0500
      7 C          -3.5307    3.6856   24.1273 C.3     1  UNL1        0.0603
      8 C          -4.3105    4.1901   25.3051 C.3     1  UNL1        0.0333
      9 C          -5.7811    4.4550   25.1732 C.3     1  UNL1        0.0735
     10 N          -6.4718    4.2155   23.8634 N.3     1  UNL1       -0.2714
     11 C          -7.9422    4.4804   23.7315 C.3     1  UNL1        0.0896
     12 C          -5.6919    3.7109   22.6855 C.3     1  UNL1        0.0735
     13 C          -4.2214    3.4460   22.8175 C.3     1  UNL1        0.0333
     14 N           4.3563    0.9754   24.5751 N.am    1  UNL1       -0.2485
     15 C           2.8858    1.2404   24.4433 C.2     1  UNL1        0.3058
     16 O           1.9496    0.1198   24.0997 O.2     1  UNL1       -0.2524
     17 N           2.3514    2.6259   24.6550 N.am    1  UNL1       -0.2901
     18 H           4.9707    1.7109   24.8007 H       1  UNL1        0.1583
     19 H           2.9658    3.3614   24.8805 H       1  UNL1        0.1509
     20 C           5.5357   -2.4994   23.3102 C.ar    1  UNL1        0.0803
     21 S           4.9179   -1.1553   23.0620 S.2     1  UNL1       -0.0488
     22 C           4.8907   -0.4101   24.3635 C.ar    1  UNL1        0.1664
     23 N           5.4917   -1.2936   25.4161 N.ar    1  UNL1       -0.2282
     24 C           5.8903   -2.5849   24.7652 C.ar    1  UNL1        0.0701
     25 C           6.5311   -3.7561   25.4491 C.3     1  UNL1        0.0528
     26 C           7.1056   -3.7215   21.6394 C.3     1  UNL1        0.0779
     27 C           5.7596   -3.5700   22.2837 C.2     1  UNL1        0.1807
     28 O           4.6375   -4.4891   21.9016 O.2     1  UNL1       -0.2908
     29 C           1.2290    3.5892   22.0449 C.3     1  UNL1        0.0751
     30 N           1.1712    2.6593   20.8693 N.3     1  UNL1       -0.2726
     31 C           0.6203    3.1398   19.5594 C.3     1  UNL1        0.0721
     32 C           0.5625    2.2099   18.3838 C.3     1  UNL1        0.0174
     33 C           1.0556    0.7996   18.5182 C.3     1  UNL1        0.0031
     34 C           1.6064    0.3192   19.8280 C.3     1  UNL1        0.0204
     35 C           1.6642    1.2491   21.0036 C.3     1  UNL1        0.0724
     36 C           2.0995   -1.0911   19.9624 C.3     1  UNL1        0.0277
     37 C           3.4609   -1.4614   19.4530 C.ar    1  UNL1       -0.0220
     38 C           4.5486   -0.4297   19.4018 C.ar    1  UNL1       -0.0020
     39 C           5.9100   -0.8000   18.8924 C.ar    1  UNL1        0.0293
     40 C           6.1837   -2.2019   18.4343 C.ar    1  UNL1        0.1401
     41 F           7.5451   -2.5721   17.9249 F       1  UNL1       -0.2042
     42 C           5.0960   -3.2334   18.4855 C.ar    1  UNL1        0.0293
     43 C           3.7346   -2.8632   18.9949 C.ar    1  UNL1       -0.0020
@<TRIPOS>BOND
     1    26    27    1
     2    27    28    2
     3    27    20    1
     4    20    21   ar
     5    21    22   ar
     6    22    14    1
     7    14    15   am
     8    15    16    2
     9    15    17   am
    10     1    17    1
    11     1     2    1
    12     2     3    1
    13     3     4    1
    14     4     7    1
    15     7     8    1
    16     8     9    1
    17     9    10    1
    18    10    11    1
    19    10    12    1
    20    12    13    1
    21     4     5    1
    22     5     6    1
    23     6    29    1
    24    29    30    1
    25    30    31    1
    26    31    32    1
    27    32    33    1
    28    33    34    1
    29    34    36    1
    30    36    37    1
    31    37    38   ar
    32    38    39   ar
    33    39    40   ar
    34    40    41    1
    35    40    42   ar
    36    42    43   ar
    37    34    35    1
    38    22    23   ar
    39    23    24   ar
    40    24    25    1
    41    24    20   ar
    42     6     1    1
    43    35    30    1
    44    13     7    1
    45    43    37   ar
    46    14    18    1
    47    17    19    1
@<TRIPOS>MOLECULE
*****
 43 47 0 0 0
SMALL
GASTEIGER

@<TRIPOS>ATOM
      1 C           4.7533    0.4986   26.8284 C.3     1  UNL1        0.0771
      2 C           3.8286    0.8794   27.9463 C.3     1  UNL1        0.0370
      3 C           2.4649    1.4235   27.6393 C.3     1  UNL1        0.0737
      4 N           2.0259    1.5867   26.2143 N.3     1  UNL1       -0.2737
      5 C           2.9506    1.2059   25.0963 C.3     1  UNL1        0.0750
      6 C           4.3143    0.6618   25.4034 C.3     1  UNL1        0.0500
      7 C           0.6622    2.1308   25.9072 C.3     1  UNL1        0.0603
      8 C          -0.3256    2.3478   27.0150 C.3     1  UNL1        0.0333
      9 C          -1.6893    2.8919   26.7080 C.3     1  UNL1        0.0735
     10 N          -2.0653    3.2190   25.2932 N.3     1  UNL1       -0.2714
     11 C          -3.4290    3.7630   24.9861 C.3     1  UNL1        0.0896
     12 C          -1.0774    3.0019   24.1854 C.3     1  UNL1        0.0735
     13 C           0.2862    2.4578   24.4924 C.3     1  UNL1        0.0333
     14 N           7.6312   -1.9920   27.9529 N.am    1  UNL1       -0.2485
     15 C           6.2675   -1.4479   27.6458 C.2     1  UNL1        0.3058
     16 O           5.0543   -2.3063   27.8492 O.2     1  UNL1       -0.2524
     17 N           6.1171   -0.0455   27.1354 N.am    1  UNL1       -0.2901
     18 H           8.4275   -1.4287   27.8193 H       1  UNL1        0.1583
     19 H           6.9133    0.5178   27.0019 H       1  UNL1        0.1509
     20 C           7.9628   -5.3015   29.9537 C.ar    1  UNL1        0.0803
     21 S           7.7884   -3.8125   29.9038 S.2     1  UNL1       -0.0488
     22 C           7.7817   -3.3945   28.4633 C.ar    1  UNL1        0.1664
     23 N           7.9519   -4.6252   27.6228 N.ar    1  UNL1       -0.2282
     24 C           8.0638   -5.8038   28.5439 C.ar    1  UNL1        0.0701
     25 C           8.2449   -7.2336   28.1282 C.3     1  UNL1        0.0528
     26 C           9.3237   -6.7630   31.6155 C.3     1  UNL1        0.0779
     27 C           8.0251   -6.1408   31.1953 C.2     1  UNL1        0.1807
     28 O           6.7890   -6.3579   32.0167 O.2     1  UNL1       -0.2908
     29 C           5.2391    0.2809   24.2854 C.3     1  UNL1        0.0751
     30 N           5.0577   -1.0277   23.5749 N.3     1  UNL1       -0.2726
     31 C           5.5761   -2.2935   24.1906 C.3     1  UNL1        0.0721
     32 C           5.3948   -3.6021   23.4801 C.3     1  UNL1        0.0174
     33 C           4.6950   -3.6448   22.1540 C.3     1  UNL1        0.0031
     34 C           4.1766   -2.3790   21.5384 C.3     1  UNL1        0.0204
     35 C           4.3580   -1.0704   22.2488 C.3     1  UNL1        0.0724
     36 C           3.4769   -2.4217   20.2122 C.3     1  UNL1        0.0277
     37 C           2.7441   -1.2124   19.7116 C.ar    1  UNL1       -0.0220
     38 C           3.3739   -0.3294   18.6755 C.ar    1  UNL1       -0.0020
     39 C           2.6411    0.8799   18.1749 C.ar    1  UNL1        0.0293
     40 C           1.2784    1.2062   18.7104 C.ar    1  UNL1        0.1401
     41 F           0.5456    2.4155   18.2098 F       1  UNL1       -0.2042
     42 C           0.6486    0.3231   19.7465 C.ar    1  UNL1        0.0293
     43 C           1.3814   -0.8862   20.2471 C.ar    1  UNL1       -0.0020
@<TRIPOS>BOND
     1    26    27    1
     2    27    28    2
     3    27    20    1
     4    20    21   ar
     5    21    22   ar
     6    22    14    1
     7    14    15   am
     8    15    16    2
     9    15    17   am
    10     1    17    1
    11     1     2    1
    12     2     3    1
    13     3     4    1
    14     4     7    1
    15     7     8    1
    16     8     9    1
    17     9    10    1
    18    10    11    1
    19    10    12    1
    20    12    13    1
    21     4     5    1
    22     5     6    1
    23     6    29    1
    24    29    30    1
    25    30    31    1
    26    31    32    1
    27    32    33    1
    28    33    34    1
    29    34    36    1
    30    36    37    1
    31    37    38   ar
    32    38    39   ar
    33    39    40   ar
    34    40    41    1
    35    40    42   ar
    36    42    43   ar
    37    34    35    1
    38    22    23   ar
    39    23    24   ar
    40    24    25    1
    41    24    20   ar
    42     6     1    1
    43    35    30    1
    44    13     7    1
    45    43    37   ar
    46    14    18    1
    47    17    19    1
@<TRIPOS>MOLECULE
*****
 43 47 0 0 0
SMALL
GASTEIGER

@<TRIPOS>ATOM
      1 C           0.8828    2.9847   24.4423 C.3     1  UNL1        0.0771
      2 C          -0.0386    2.6778   25.5853 C.3     1  UNL1        0.0370
      3 C          -1.5128    2.9166   25.4452 C.3     1  UNL1        0.0737
      4 N          -2.0655    3.4624   24.1620 N.3     1  UNL1       -0.2737
      5 C          -1.1441    3.7694   23.0189 C.3     1  UNL1        0.0750
      6 C           0.3301    3.5305   23.1591 C.3     1  UNL1        0.0500
      7 C          -3.5398    3.7013   24.0219 C.3     1  UNL1        0.0603
      8 C          -4.2030    3.5348   22.6869 C.3     1  UNL1        0.0333
      9 C          -5.6773    3.7736   22.5468 C.3     1  UNL1        0.0735
     10 N          -6.4883    4.1790   23.7418 N.3     1  UNL1       -0.2714
     11 C          -7.9624    4.4179   23.6017 C.3     1  UNL1        0.0896
     12 C          -5.8249    4.3455   25.0769 C.3     1  UNL1        0.0735
     13 C          -4.3508    4.1067   25.2169 C.3     1  UNL1        0.0333
     14 N           4.3743    1.1102   24.6574 N.am    1  UNL1       -0.2485
     15 C           2.9001    1.3491   24.5173 C.2     1  UNL1        0.3058
     16 O           1.9688    0.1912   24.3121 O.2     1  UNL1       -0.2524
     17 N           2.3571    2.7458   24.5824 N.am    1  UNL1       -0.2901
     18 H           4.9855    1.8701   24.7920 H       1  UNL1        0.1583
     19 H           2.9683    3.5058   24.7170 H       1  UNL1        0.1509
     20 C           6.0547   -2.3504   25.1733 C.ar    1  UNL1        0.0803
     21 S           5.7249   -0.9691   25.6562 S.2     1  UNL1       -0.0488
     22 C           4.9172   -0.2866   24.5923 C.ar    1  UNL1        0.1664
     23 N           4.7479   -1.2461   23.4519 N.ar    1  UNL1       -0.2282
     24 C           5.4509   -2.5216   23.8109 C.ar    1  UNL1        0.0701
     25 C           5.5353   -3.7523   22.9575 C.3     1  UNL1        0.0528
     26 C           6.4701   -3.7437   27.3265 C.3     1  UNL1        0.0779
     27 C           6.8489   -3.3797   25.9215 C.2     1  UNL1        0.1807
     28 O           8.0218   -4.0451   25.2647 O.2     1  UNL1       -0.2908
     29 C           1.2517    3.8374   22.0160 C.3     1  UNL1        0.0751
     30 N           1.5546    2.7831   20.9929 N.3     1  UNL1       -0.2726
     31 C           0.5569    2.4742   19.9162 C.3     1  UNL1        0.0721
     32 C           0.8599    1.4199   18.8931 C.3     1  UNL1        0.0174
     33 C           2.1605    0.6745   18.9468 C.3     1  UNL1        0.0031
     34 C           3.1581    0.9833   20.0236 C.3     1  UNL1        0.0204
     35 C           2.8551    2.0377   21.0466 C.3     1  UNL1        0.0724
     36 C           4.4587    0.2379   20.0773 C.3     1  UNL1        0.0277
     37 C           4.5230   -1.1915   19.6271 C.ar    1  UNL1       -0.0220
     38 C           5.5504   -1.6150   18.6196 C.ar    1  UNL1       -0.0020
     39 C           5.6147   -3.0445   18.1694 C.ar    1  UNL1        0.0293
     40 C           4.6516   -4.0503   18.7268 C.ar    1  UNL1        0.1401
     41 F           4.7158   -5.4798   18.2766 F       1  UNL1       -0.2042
     42 C           3.6242   -3.6268   19.7342 C.ar    1  UNL1        0.0293
     43 C           3.5599   -2.1974   20.1844 C.ar    1  UNL1       -0.0020
@<TRIPOS>BOND
     1    26    27    1
     2    27    28    2
     3    27    20    1
     4    20    21   ar
     5    21    22   ar
     6    22    14    1
     7    14    15   am
     8    15    16    2
     9    15    17   am
    10     1    17    1
    11     1     2    1
    12     2     3    1
    13     3     4    1
    14     4     7    1
    15     7     8    1
    16     8     9    1
    17     9    10    1
    18    10    11    1
    19    10    12    1
    20    12    13    1
    21     4     5    1
    22     5     6    1
    23     6    29    1
    24    29    30    1
    25    30    31    1
    26    31    32    1
    27    32    33    1
    28    33    34    1
    29    34    36    1
    30    36    37    1
    31    37    38   ar
    32    38    39   ar
    33    39    40   ar
    34    40    41    1
    35    40    42   ar
    36    42    43   ar
    37    34    35    1
    38    22    23   ar
    39    23    24   ar
    40    24    25    1
    41    24    20   ar
    42     6     1    1
    43    35    30    1
    44    13     7    1
    45    43    37   ar
    46    14    18    1
    47    17    19    1
@<TRIPOS>MOLECULE
*****
 43 47 0 0 0
SMALL
GASTEIGER

@<TRIPOS>ATOM
      1 C           2.3629    1.4994   19.5388 C.3     1  UNL1        0.0771
      2 C           2.4173    0.2690   18.6826 C.3     1  UNL1        0.0370
      3 C           3.3915   -0.8254   19.0033 C.3     1  UNL1        0.0737
      4 N           4.3114   -0.6896   20.1803 N.3     1  UNL1       -0.2737
      5 C           4.2570    0.5408   21.0366 C.3     1  UNL1        0.0750
      6 C           3.2828    1.6353   20.7159 C.3     1  UNL1        0.0500
      7 C           5.2856   -1.7841   20.5011 C.3     1  UNL1        0.0603
      8 C           4.9906   -2.7494   21.6106 C.3     1  UNL1        0.0333
      9 C           5.9649   -3.8440   21.9313 C.3     1  UNL1        0.0735
     10 N           7.2342   -3.9732   21.1425 N.3     1  UNL1       -0.2714
     11 C           8.2084   -5.0677   21.4632 C.3     1  UNL1        0.0896
     12 C           7.5292   -3.0078   20.0329 C.3     1  UNL1        0.0735
     13 C           6.5549   -1.9133   19.7122 C.3     1  UNL1        0.0333
     14 N          -0.9798    3.6368   19.4485 N.am    1  UNL1       -0.2485
     15 C          -0.0055    2.5423   19.7692 C.2     1  UNL1        0.3058
     16 O          -0.4254    1.3961   20.6411 O.2     1  UNL1       -0.2524
     17 N           1.3886    2.5940   19.2181 N.am    1  UNL1       -0.2901
     18 H          -0.7042    4.3891   18.8763 H       1  UNL1        0.1583
     19 H           1.6642    3.3462   18.6459 H       1  UNL1        0.1509
     20 C          -4.7904    3.7196   20.1820 C.ar    1  UNL1        0.0803
     21 S          -3.6320    3.9008   19.2463 S.2     1  UNL1       -0.0488
     22 C          -2.3739    3.5852   19.9996 C.ar    1  UNL1        0.1664
     23 N          -2.7547    3.2089   21.4008 N.ar    1  UNL1       -0.2282
     24 C          -4.2482    3.2919   21.5135 C.ar    1  UNL1        0.0701
     25 C          -5.0573    2.9988   22.7421 C.3     1  UNL1        0.0528
     26 C          -6.8522    3.1949   18.6909 C.3     1  UNL1        0.0779
     27 C          -6.2370    3.9291   19.8451 C.2     1  UNL1        0.1807
     28 O          -7.0682    4.8729   20.6624 O.2     1  UNL1       -0.2908
     29 C           3.2283    2.8657   21.5721 C.3     1  UNL1        0.0751
     30 N           2.0316    3.1240   22.4388 N.3     1  UNL1       -0.2726
     31 C           1.3026    4.4313   22.3406 C.3     1  UNL1        0.0721
     32 C           0.1058    4.6896   23.2073 C.3     1  UNL1        0.0174
     33 C          -0.3619    3.6405   24.1721 C.3     1  UNL1        0.0031
     34 C           0.3670    2.3333   24.2702 C.3     1  UNL1        0.0204
     35 C           1.5638    2.0750   23.4035 C.3     1  UNL1        0.0724
     36 C          -0.1007    1.2842   25.2350 C.3     1  UNL1        0.0277
     37 C           0.1778    1.4360   26.7011 C.ar    1  UNL1       -0.0220
     38 C          -0.6508    0.6881   27.7032 C.ar    1  UNL1       -0.0020
     39 C          -0.3723    0.8399   29.1693 C.ar    1  UNL1        0.0293
     40 C           0.7347    1.7395   29.6332 C.ar    1  UNL1        0.1401
     41 F           1.0132    1.8913   31.0993 F       1  UNL1       -0.2042
     42 C           1.5632    2.4873   28.6311 C.ar    1  UNL1        0.0293
     43 C           1.2847    2.3356   27.1650 C.ar    1  UNL1       -0.0020
@<TRIPOS>BOND
     1    26    27    1
     2    27    28    2
     3    27    20    1
     4    20    21   ar
     5    21    22   ar
     6    22    14    1
     7    14    15   am
     8    15    16    2
     9    15    17   am
    10     1    17    1
    11     1     2    1
    12     2     3    1
    13     3     4    1
    14     4     7    1
    15     7     8    1
    16     8     9    1
    17     9    10    1
    18    10    11    1
    19    10    12    1
    20    12    13    1
    21     4     5    1
    22     5     6    1
    23     6    29    1
    24    29    30    1
    25    30    31    1
    26    31    32    1
    27    32    33    1
    28    33    34    1
    29    34    36    1
    30    36    37    1
    31    37    38   ar
    32    38    39   ar
    33    39    40   ar
    34    40    41    1
    35    40    42   ar
    36    42    43   ar
    37    34    35    1
    38    22    23   ar
    39    23    24   ar
    40    24    25    1
    41    24    20   ar
    42     6     1    1
    43    35    30    1
    44    13     7    1
    45    43    37   ar
    46    14    18    1
    47    17    19    1
@<TRIPOS>MOLECULE
*****
 43 47 0 0 0
SMALL
GASTEIGER

@<TRIPOS>ATOM
      1 C           1.1974   -0.0017   28.6597 C.3     1  UNL1        0.0771
      2 C          -0.2535    0.2152   28.9721 C.3     1  UNL1        0.0370
      3 C          -1.0791    1.1223   28.1087 C.3     1  UNL1        0.0737
      4 N          -0.4538    1.8125   26.9329 N.3     1  UNL1       -0.2737
      5 C           0.9971    1.5956   26.6205 C.3     1  UNL1        0.0750
      6 C           1.8228    0.6885   27.4839 C.3     1  UNL1        0.0500
      7 C          -1.2795    2.7196   26.0695 C.3     1  UNL1        0.0603
      8 C          -2.4669    3.4300   26.6484 C.3     1  UNL1        0.0333
      9 C          -3.2926    4.3372   25.7850 C.3     1  UNL1        0.0735
     10 N          -2.9308    4.5338   24.3427 N.3     1  UNL1       -0.2714
     11 C          -3.7564    5.4409   23.4793 C.3     1  UNL1        0.0896
     12 C          -1.7433    3.8234   23.7637 C.3     1  UNL1        0.0735
     13 C          -0.9177    2.9163   24.6271 C.3     1  UNL1        0.0333
     14 N           3.6609   -1.2460   31.5116 N.am    1  UNL1       -0.2485
     15 C           2.8352   -0.3390   30.6482 C.2     1  UNL1        0.3058
     16 O           2.8217    1.1380   30.9098 O.2     1  UNL1       -0.2524
     17 N           2.0231   -0.9088   29.5231 N.am    1  UNL1       -0.2901
     18 H           3.6698   -2.2154   31.3398 H       1  UNL1        0.1583
     19 H           2.0320   -1.8782   29.3514 H       1  UNL1        0.1509
     20 C           5.2686   -0.1312   34.8639 C.ar    1  UNL1        0.0803
     21 S           4.2156   -0.8784   34.1004 S.2     1  UNL1       -0.0488
     22 C           4.4730   -0.6761   32.6366 C.ar    1  UNL1        0.1664
     23 N           5.6851    0.1961   32.4954 N.ar    1  UNL1       -0.2282
     24 C           6.1769    0.5329   33.8719 C.ar    1  UNL1        0.0701
     25 C           7.3677    1.3842   34.1989 C.3     1  UNL1        0.0528
     26 C           4.2968    0.5625   37.1713 C.3     1  UNL1        0.0779
     27 C           5.3918   -0.0606   36.3571 C.2     1  UNL1        0.1807
     28 O           6.6098   -0.6130   37.0362 O.2     1  UNL1       -0.2908
     29 C           3.2738    0.4716   27.1715 C.3     1  UNL1        0.0751
     30 N           3.7491    0.5131   25.7494 N.3     1  UNL1       -0.2726
     31 C           4.5871    1.6620   25.2719 C.3     1  UNL1        0.0721
     32 C           5.0624    1.7035   23.8498 C.3     1  UNL1        0.0174
     33 C           4.6998    0.5961   22.9052 C.3     1  UNL1        0.0031
     34 C           3.8619   -0.5528   23.3827 C.3     1  UNL1        0.0204
     35 C           3.3866   -0.5943   24.8048 C.3     1  UNL1        0.0724
     36 C           3.4993   -1.6602   22.4381 C.3     1  UNL1        0.0277
     37 C           3.5342   -1.4243   20.9572 C.ar    1  UNL1       -0.0220
     38 C           4.6117   -2.0515   20.1230 C.ar    1  UNL1       -0.0020
     39 C           4.6466   -1.8156   18.6421 C.ar    1  UNL1        0.0293
     40 C           3.6040   -0.9525   17.9953 C.ar    1  UNL1        0.1401
     41 F           3.6389   -0.7166   16.5144 F       1  UNL1       -0.2042
     42 C           2.5266   -0.3254   18.8295 C.ar    1  UNL1        0.0293
     43 C           2.4917   -0.5613   20.3104 C.ar    1  UNL1       -0.0020
@<TRIPOS>BOND
     1    26    27    1
     2    27    28    2
     3    27    20    1
     4    20    21   ar
     5    21    22   ar
     6    22    14    1
     7    14    15   am
     8    15    16    2
     9    15    17   am
    10     1    17    1
    11     1     2    1
    12     2     3    1
    13     3     4    1
    14     4     7    1
    15     7     8    1
    16     8     9    1
    17     9    10    1
    18    10    11    1
    19    10    12    1
    20    12    13    1
    21     4     5    1
    22     5     6    1
    23     6    29    1
    24    29    30    1
    25    30    31    1
    26    31    32    1
    27    32    33    1
    28    33    34    1
    29    34    36    1
    30    36    37    1
    31    37    38   ar
    32    38    39   ar
    33    39    40   ar
    34    40    41    1
    35    40    42   ar
    36    42    43   ar
    37    34    35    1
    38    22    23   ar
    39    23    24   ar
    40    24    25    1
    41    24    20   ar
    42     6     1    1
    43    35    30    1
    44    13     7    1
    45    43    37   ar
    46    14    18    1
    47    17    19    1
@<TRIPOS>MOLECULE
*****
 43 47 0 0 0
SMALL
GASTEIGER

@<TRIPOS>ATOM
      1 C           1.4066    0.0181   28.5493 C.3     1  UNL1        0.0771
      2 C          -0.0764   -0.0687   28.7572 C.3     1  UNL1        0.0370
      3 C          -0.9953    0.8364   27.9914 C.3     1  UNL1        0.0737
      4 N          -0.4312    1.8282   27.0177 N.3     1  UNL1       -0.2737
      5 C           1.0517    1.9150   26.8098 C.3     1  UNL1        0.0750
      6 C           1.9706    1.0100   27.5756 C.3     1  UNL1        0.0500
      7 C          -1.3502    2.7333   26.2519 C.3     1  UNL1        0.0603
      8 C          -1.0933    3.0087   24.8000 C.3     1  UNL1        0.0333
      9 C          -2.0123    3.9138   24.0342 C.3     1  UNL1        0.0735
     10 N          -3.1881    4.5435   24.7205 N.3     1  UNL1       -0.2714
     11 C          -4.1071    5.4485   23.9547 C.3     1  UNL1        0.0896
     12 C          -3.4450    4.2681   26.1725 C.3     1  UNL1        0.0735
     13 C          -2.5260    3.3630   26.9382 C.3     1  UNL1        0.0333
     14 N           3.8747   -1.3161   31.3561 N.am    1  UNL1       -0.2485
     15 C           2.9557   -0.4111   30.5904 C.2     1  UNL1        0.3058
     16 O           2.6669    0.9699   31.0999 O.2     1  UNL1       -0.2524
     17 N           2.3256   -0.8870   29.3151 N.am    1  UNL1       -0.2901
     18 H           4.0642   -2.2224   31.0217 H       1  UNL1        0.1583
     19 H           2.5151   -1.7933   28.9806 H       1  UNL1        0.1509
     20 C           6.0965    0.0769   34.2177 C.ar    1  UNL1        0.0803
     21 S           5.8816   -0.2616   32.7723 S.2     1  UNL1       -0.0488
     22 C           4.5048   -0.8402   32.6315 C.ar    1  UNL1        0.1664
     23 N           3.8689   -0.8593   33.9898 N.ar    1  UNL1       -0.2282
     24 C           4.8526   -0.2925   34.9702 C.ar    1  UNL1        0.0701
     25 C           4.6313   -0.1246   36.4443 C.3     1  UNL1        0.0528
     26 C           8.1966   -0.1298   35.7333 C.3     1  UNL1        0.0779
     27 C           7.3375    0.6790   34.8071 C.2     1  UNL1        0.1807
     28 O           7.7194    2.0899   34.4704 O.2     1  UNL1       -0.2908
     29 C           3.4537    1.0967   27.3677 C.3     1  UNL1        0.0751
     30 N           4.1879   -0.0394   26.7196 N.3     1  UNL1       -0.2726
     31 C           3.7043   -0.5972   25.4137 C.3     1  UNL1        0.0721
     32 C           4.4385   -1.7333   24.7656 C.3     1  UNL1        0.0174
     33 C           5.6562   -2.3118   25.4233 C.3     1  UNL1        0.0031
     34 C           6.1397   -1.7541   26.7291 C.3     1  UNL1        0.0204
     35 C           5.4055   -0.6179   27.3772 C.3     1  UNL1        0.0724
     36 C           7.3575   -2.3326   27.3869 C.3     1  UNL1        0.0277
     37 C           7.2079   -3.3009   28.5226 C.ar    1  UNL1       -0.0220
     38 C           6.9028   -2.7973   29.9023 C.ar    1  UNL1       -0.0020
     39 C           6.7531   -3.7656   31.0381 C.ar    1  UNL1        0.0293
     40 C           6.9086   -5.2375   30.7942 C.ar    1  UNL1        0.1401
     41 F           6.7590   -6.2058   31.9299 F       1  UNL1       -0.2042
     42 C           7.2137   -5.7410   29.4146 C.ar    1  UNL1        0.0293
     43 C           7.3633   -4.7727   28.2788 C.ar    1  UNL1       -0.0020
@<TRIPOS>BOND
     1    26    27    1
     2    27    28    2
     3    27    20    1
     4    20    21   ar
     5    21    22   ar
     6    22    14    1
     7    14    15   am
     8    15    16    2
     9    15    17   am
    10     1    17    1
    11     1     2    1
    12     2     3    1
    13     3     4    1
    14     4     7    1
    15     7     8    1
    16     8     9    1
    17     9    10    1
    18    10    11    1
    19    10    12    1
    20    12    13    1
    21     4     5    1
    22     5     6    1
    23     6    29    1
    24    29    30    1
    25    30    31    1
    26    31    32    1
    27    32    33    1
    28    33    34    1
    29    34    36    1
    30    36    37    1
    31    37    38   ar
    32    38    39   ar
    33    39    40   ar
    34    40    41    1
    35    40    42   ar
    36    42    43   ar
    37    34    35    1
    38    22    23   ar
    39    23    24   ar
    40    24    25    1
    41    24    20   ar
    42     6     1    1
    43    35    30    1
    44    13     7    1
    45    43    37   ar
    46    14    18    1
    47    17    19    1
@<TRIPOS>MOLECULE
*****
 43 47 0 0 0
SMALL
GASTEIGER

@<TRIPOS>ATOM
      1 C         -16.0264   -0.3862   19.7395 C.3     1  UNL1        0.0771
      2 C         -15.2707    0.8194   19.2647 C.3     1  UNL1        0.0370
      3 C         -16.0095    1.9805   18.6681 C.3     1  UNL1        0.0737
      4 N         -17.5039    1.9360   18.5463 N.3     1  UNL1       -0.2737
      5 C         -18.2595    0.7304   19.0211 C.3     1  UNL1        0.0750
      6 C         -17.5208   -0.4307   19.6177 C.3     1  UNL1        0.0500
      7 C         -18.2426    3.0973   17.9497 C.3     1  UNL1        0.0603
      8 C         -19.6091    2.8962   17.3647 C.3     1  UNL1        0.0333
      9 C         -20.3478    4.0574   16.7680 C.3     1  UNL1        0.0735
     10 N         -19.7200    5.4197   16.7565 N.3     1  UNL1       -0.2714
     11 C         -20.4587    6.5809   16.1599 C.3     1  UNL1        0.0896
     12 C         -18.3535    5.6207   17.3416 C.3     1  UNL1        0.0735
     13 C         -17.6148    4.4595   17.9382 C.3     1  UNL1        0.0333
     14 N         -13.5294   -3.4477   20.1175 N.am    1  UNL1       -0.2485
     15 C         -14.2682   -2.2865   19.5210 C.2     1  UNL1        0.3058
     16 O         -13.9875   -1.8644   18.1092 O.2     1  UNL1       -0.2524
     17 N         -15.2876   -1.5475   20.3361 N.am    1  UNL1       -0.2901
     18 H         -13.7137   -3.7248   21.0441 H       1  UNL1        0.1583
     19 H         -15.4719   -1.8245   21.2627 H       1  UNL1        0.1509
     20 C         -11.3352   -5.9571   18.1290 C.ar    1  UNL1        0.0803
     21 S         -12.5483   -5.6454   18.9544 S.2     1  UNL1       -0.0488
     22 C         -12.5100   -4.1868   19.3023 C.ar    1  UNL1        0.1664
     23 N         -11.2732   -3.5970   18.6919 N.ar    1  UNL1       -0.2282
     24 C         -10.5472   -4.6911   17.9668 C.ar    1  UNL1        0.0701
     25 C          -9.2592   -4.5449   17.2119 C.3     1  UNL1        0.0528
     26 C         -11.8405   -7.9299   16.5158 C.3     1  UNL1        0.0779
     27 C         -10.9737   -7.2991   17.5649 C.2     1  UNL1        0.1807
     28 O          -9.7454   -8.0103   18.0499 O.2     1  UNL1       -0.2908
     29 C         -18.2764   -1.6364   20.0925 C.3     1  UNL1        0.0751
     30 N         -18.2429   -2.9053   19.2932 N.3     1  UNL1       -0.2726
     31 C         -17.6601   -2.9058   17.9110 C.3     1  UNL1        0.0721
     32 C         -17.6266   -4.1746   17.1116 C.3     1  UNL1        0.0174
     33 C         -18.1759   -5.4429   17.6945 C.3     1  UNL1        0.0031
     34 C         -18.7587   -5.4424   19.0766 C.3     1  UNL1        0.0204
     35 C         -18.7922   -4.1736   19.8759 C.3     1  UNL1        0.0724
     36 C         -19.3080   -6.7107   19.6595 C.3     1  UNL1        0.0277
     37 C         -18.6187   -8.0169   19.3970 C.ar    1  UNL1       -0.0220
     38 C         -19.1937   -8.9819   18.4030 C.ar    1  UNL1       -0.0020
     39 C         -18.5044  -10.2880   18.1405 C.ar    1  UNL1        0.0293
     40 C         -17.2401  -10.6291   18.8722 C.ar    1  UNL1        0.1401
     41 F         -16.5508  -11.9353   18.6097 F       1  UNL1       -0.2042
     42 C         -16.6651   -9.6641   19.8662 C.ar    1  UNL1        0.0293
     43 C         -17.3544   -8.3580   20.1286 C.ar    1  UNL1       -0.0020
@<TRIPOS>BOND
     1    26    27    1
     2    27    28    2
     3    27    20    1
     4    20    21   ar
     5    21    22   ar
     6    22    14    1
     7    14    15   am
     8    15    16    2
     9    15    17   am
    10     1    17    1
    11     1     2    1
    12     2     3    1
    13     3     4    1
    14     4     7    1
    15     7     8    1
    16     8     9    1
    17     9    10    1
    18    10    11    1
    19    10    12    1
    20    12    13    1
    21     4     5    1
    22     5     6    1
    23     6    29    1
    24    29    30    1
    25    30    31    1
    26    31    32    1
    27    32    33    1
    28    33    34    1
    29    34    36    1
    30    36    37    1
    31    37    38   ar
    32    38    39   ar
    33    39    40   ar
    34    40    41    1
    35    40    42   ar
    36    42    43   ar
    37    34    35    1
    38    22    23   ar
    39    23    24   ar
    40    24    25    1
    41    24    20   ar
    42     6     1    1
    43    35    30    1
    44    13     7    1
    45    43    37   ar
    46    14    18    1
    47    17    19    1
@<TRIPOS>MOLECULE
*****
 43 47 0 0 0
SMALL
GASTEIGER

@<TRIPOS>ATOM
      1 C           0.6189    1.7907   30.0530 C.3     1  UNL1        0.0771
      2 C          -0.2369    0.8259   29.2870 C.3     1  UNL1        0.0370
      3 C          -0.8350    1.2336   27.9733 C.3     1  UNL1        0.0737
      4 N          -0.5774    2.6060   27.4255 N.3     1  UNL1       -0.2737
      5 C           0.2784    3.5708   28.1915 C.3     1  UNL1        0.0750
      6 C           0.8765    3.1631   29.5053 C.3     1  UNL1        0.0500
      7 C          -1.1756    3.0136   26.1117 C.3     1  UNL1        0.0603
      8 C          -0.3849    2.8569   24.8467 C.3     1  UNL1        0.0333
      9 C          -0.9831    3.2646   23.5329 C.3     1  UNL1        0.0735
     10 N          -2.3720    3.8289   23.4841 N.3     1  UNL1       -0.2714
     11 C          -2.9702    4.2365   22.1704 C.3     1  UNL1        0.0896
     12 C          -3.1627    3.9856   24.7492 C.3     1  UNL1        0.0735
     13 C          -2.5645    3.5780   26.0629 C.3     1  UNL1        0.0333
     14 N           3.1119    0.2219   32.7127 N.am    1  UNL1       -0.2485
     15 C           2.5137    0.6296   31.3990 C.2     1  UNL1        0.3058
     16 O           3.2121    0.2837   30.1173 O.2     1  UNL1       -0.2524
     17 N           1.2171    1.3831   31.3668 N.am    1  UNL1       -0.2901
     18 H           2.6535    0.4489   33.5539 H       1  UNL1        0.1583
     19 H           0.7587    1.6101   32.2080 H       1  UNL1        0.1509
     20 C           6.0797   -2.2642   32.4352 C.ar    1  UNL1        0.0803
     21 S           4.6462   -1.9018   32.1828 S.2     1  UNL1       -0.0488
     22 C           4.4086   -0.5316   32.7448 C.ar    1  UNL1        0.1664
     23 N           5.6952   -0.0471   33.3446 N.ar    1  UNL1       -0.2282
     24 C           6.7281   -1.1179   33.1533 C.ar    1  UNL1        0.0701
     25 C           8.1581   -1.0537   33.6013 C.3     1  UNL1        0.0528
     26 C           7.8310   -3.5402   31.0019 C.3     1  UNL1        0.0779
     27 C           6.7476   -3.5476   32.0392 C.2     1  UNL1        0.1807
     28 O           6.3320   -4.8383   32.6804 O.2     1  UNL1       -0.2908
     29 C           1.7323    4.1279   30.2713 C.3     1  UNL1        0.0751
     30 N           1.3349    4.5474   31.6556 N.3     1  UNL1       -0.2726
     31 C          -0.0424    5.0841   31.9102 C.3     1  UNL1        0.0721
     32 C          -0.4398    5.5035   33.2945 C.3     1  UNL1        0.0174
     33 C           0.5401    5.3862   34.4241 C.3     1  UNL1        0.0031
     34 C           1.9174    4.8494   34.1694 C.3     1  UNL1        0.0204
     35 C           2.3148    4.4300   32.7852 C.3     1  UNL1        0.0724
     36 C           2.8974    4.7321   35.2990 C.3     1  UNL1        0.0277
     37 C           2.7295    3.6543   36.3287 C.ar    1  UNL1       -0.0220
     38 C           3.5100    2.3785   36.2132 C.ar    1  UNL1       -0.0020
     39 C           3.3421    1.3007   37.2428 C.ar    1  UNL1        0.0293
     40 C           2.3936    1.4987   38.3880 C.ar    1  UNL1        0.1401
     41 F           2.2256    0.4209   39.4176 F       1  UNL1       -0.2042
     42 C           1.6131    2.7744   38.5034 C.ar    1  UNL1        0.0293
     43 C           1.7811    3.8522   37.4738 C.ar    1  UNL1       -0.0020
@<TRIPOS>BOND
     1    26    27    1
     2    27    28    2
     3    27    20    1
     4    20    21   ar
     5    21    22   ar
     6    22    14    1
     7    14    15   am
     8    15    16    2
     9    15    17   am
    10     1    17    1
    11     1     2    1
    12     2     3    1
    13     3     4    1
    14     4     7    1
    15     7     8    1
    16     8     9    1
    17     9    10    1
    18    10    11    1
    19    10    12    1
    20    12    13    1
    21     4     5    1
    22     5     6    1
    23     6    29    1
    24    29    30    1
    25    30    31    1
    26    31    32    1
    27    32    33    1
    28    33    34    1
    29    34    36    1
    30    36    37    1
    31    37    38   ar
    32    38    39   ar
    33    39    40   ar
    34    40    41    1
    35    40    42   ar
    36    42    43   ar
    37    34    35    1
    38    22    23   ar
    39    23    24   ar
    40    24    25    1
    41    24    20   ar
    42     6     1    1
    43    35    30    1
    44    13     7    1
    45    43    37   ar
    46    14    18    1
    47    17    19    1
@<TRIPOS>MOLECULE
*****
 43 47 0 0 0
SMALL
GASTEIGER

@<TRIPOS>ATOM
      1 C          -1.1370    3.4902   20.9107 C.3     1  UNL1        0.0771
      2 C          -2.4450    3.2059   20.2338 C.3     1  UNL1        0.0370
      3 C          -3.7337    3.5721   20.9083 C.3     1  UNL1        0.0737
      4 N          -3.7144    4.2227   22.2597 N.3     1  UNL1       -0.2737
      5 C          -2.4064    4.5071   22.9366 C.3     1  UNL1        0.0750
      6 C          -1.1177    4.1408   22.2621 C.3     1  UNL1        0.0500
      7 C          -5.0032    4.5890   22.9342 C.3     1  UNL1        0.0603
      8 C          -4.9832    5.3329   24.2365 C.3     1  UNL1        0.0333
      9 C          -6.2720    5.6991   24.9110 C.3     1  UNL1        0.0735
     10 N          -7.5808    5.3214   24.2831 N.3     1  UNL1       -0.2714
     11 C          -8.8696    5.6876   24.9576 C.3     1  UNL1        0.0896
     12 C          -7.6008    4.5775   22.9807 C.3     1  UNL1        0.0735
     13 C          -6.3121    4.2113   22.3063 C.3     1  UNL1        0.0333
     14 N           2.0758    1.4257   19.8308 N.am    1  UNL1       -0.2485
     15 C           0.7870    1.7920   20.5052 C.2     1  UNL1        0.3058
     16 O           0.1334    0.8262   21.4487 O.2     1  UNL1       -0.2524
     17 N           0.1519    3.1240   20.2362 N.am    1  UNL1       -0.2901
     18 H           2.5048    2.0595   19.2115 H       1  UNL1        0.1583
     19 H           0.5808    3.7578   19.6169 H       1  UNL1        0.1509
     20 C           3.6659   -2.1147   19.7811 C.ar    1  UNL1        0.0803
     21 S           3.0479   -0.9460   19.0724 S.2     1  UNL1       -0.0488
     22 C           2.7109    0.0937   20.0998 C.ar    1  UNL1        0.1664
     23 N           3.1207   -0.4324   21.4434 N.ar    1  UNL1       -0.2282
     24 C           3.7109   -1.7973   21.2464 C.ar    1  UNL1        0.0701
     25 C           4.2511   -2.6883   22.3254 C.3     1  UNL1        0.0528
     26 C           3.4425   -4.6742   19.3955 C.3     1  UNL1        0.0779
     27 C           4.1534   -3.3789   19.1374 C.2     1  UNL1        0.1807
     28 O           5.3516   -3.3476   18.2358 O.2     1  UNL1       -0.2908
     29 C           0.1904    4.4252   22.9390 C.3     1  UNL1        0.0751
     30 N           0.8533    3.3636   23.7659 N.3     1  UNL1       -0.2726
     31 C           2.2505    2.9241   23.4422 C.3     1  UNL1        0.0721
     32 C           2.9133    1.8626   24.2691 C.3     1  UNL1        0.0174
     33 C           2.1790    1.2406   25.4197 C.3     1  UNL1        0.0031
     34 C           0.7819    1.6801   25.7434 C.3     1  UNL1        0.0204
     35 C           0.1190    2.7416   24.9165 C.3     1  UNL1        0.0724
     36 C           0.0476    1.0581   26.8941 C.3     1  UNL1        0.0277
     37 C           0.6925    0.9902   28.2467 C.ar    1  UNL1       -0.0220
     38 C           1.4268   -0.2487   28.6661 C.ar    1  UNL1       -0.0020
     39 C           2.0717   -0.3166   30.0187 C.ar    1  UNL1        0.0293
     40 C           1.9823    0.8545   30.9518 C.ar    1  UNL1        0.1401
     41 F           2.6272    0.7867   32.3044 F       1  UNL1       -0.2042
     42 C           1.2480    2.0934   30.5324 C.ar    1  UNL1        0.0293
     43 C           0.6031    2.1612   29.1798 C.ar    1  UNL1       -0.0020
@<TRIPOS>BOND
     1    26    27    1
     2    27    28    2
     3    27    20    1
     4    20    21   ar
     5    21    22   ar
     6    22    14    1
     7    14    15   am
     8    15    16    2
     9    15    17   am
    10     1    17    1
    11     1     2    1
    12     2     3    1
    13     3     4    1
    14     4     7    1
    15     7     8    1
    16     8     9    1
    17     9    10    1
    18    10    11    1
    19    10    12    1
    20    12    13    1
    21     4     5    1
    22     5     6    1
    23     6    29    1
    24    29    30    1
    25    30    31    1
    26    31    32    1
    27    32    33    1
    28    33    34    1
    29    34    36    1
    30    36    37    1
    31    37    38   ar
    32    38    39   ar
    33    39    40   ar
    34    40    41    1
    35    40    42   ar
    36    42    43   ar
    37    34    35    1
    38    22    23   ar
    39    23    24   ar
    40    24    25    1
    41    24    20   ar
    42     6     1    1
    43    35    30    1
    44    13     7    1
    45    43    37   ar
    46    14    18    1
    47    17    19    1
