@<TRIPOS>MOLECULE
*****
 41 47 0 0 0
SMALL
GASTEIGER

@<TRIPOS>ATOM
      1 C           4.0115   -0.2457   31.4536 C.3     1  UNL1        0.1707
      2 N           4.6575   -1.5289   31.0225 N.3     1  UNL1       -0.2797
      3 C           5.4611   -2.3304   32.0032 C.3     1  UNL1        0.1167
      4 C           5.6186   -1.8488   33.4150 C.3     1  UNL1        0.0511
      5 C           4.9726   -0.5656   33.8461 C.2     1  UNL1       -0.0037
      6 C           4.1690    0.2360   32.8655 C.2     1  UNL1        0.0800
      7 N           3.6524    1.4528   33.5744 N.2     1  UNL1       -0.2519
      8 C           4.1368    1.4032   34.9932 C.2     1  UNL1        0.0627
      9 C           3.9402    2.3328   36.1539 C.3     1  UNL1        0.0717
     10 C           4.5596    2.0150   37.4825 C.2     1  UNL1       -0.0198
     11 C           5.3756    0.7675   37.6504 C.2     1  UNL1       -0.0042
     12 C           5.5721   -0.1620   36.4898 C.2     1  UNL1        0.0006
     13 C           4.9527    0.1558   35.1611 C.2     1  UNL1        0.0111
     14 H           5.2812   -1.2991   30.2488 H       1  UNL1        0.1246
     15 C           3.2145    1.0234   31.3864 C.ar    1  UNL1        0.2493
     16 N           3.7038    2.3457   30.8745 N.ar    1  UNL1       -0.1285
     17 N           2.5800    3.3324   30.9911 N.ar    1  UNL1       -0.1809
     18 C           2.6311    4.7778   30.5935 C.3     1  UNL1        0.1605
     19 C           1.3963    2.6199   31.5750 C.ar    1  UNL1        0.4389
     20 O           0.0557    3.2278   31.8639 O.2     1  UNL1       -0.2210
     21 O           1.7884    1.1928   31.8194 O.2     1  UNL1       -0.3896
     22 C           6.1072   -3.6137   31.5720 C.ar    1  UNL1        0.1319
     23 N           6.5033   -3.9741   30.1709 N.ar    1  UNL1       -0.2282
     24 C           7.1115   -5.3450   30.1992 C.ar    1  UNL1        0.1171
     25 C           7.0914   -5.8318   31.6178 C.ar    1  UNL1        0.0942
     26 N           6.4707   -4.7618   32.4663 N.ar    1  UNL1       -0.3385
     27 H           6.3271   -4.8054   33.4393 H       1  UNL1        0.1672
     28 C           7.6460   -6.0970   29.0165 C.ar    1  UNL1        0.1006
     29 C           7.0729   -5.8540   27.6517 C.ar    1  UNL1        0.0230
     30 C           7.6073   -6.6060   26.4690 C.ar    1  UNL1        0.0328
     31 C           8.7150   -7.6009   26.6510 C.ar    1  UNL1        0.1592
     32 F           9.2496   -8.3529   25.4683 F       1  UNL1       -0.2025
     33 C           9.2882   -7.8438   28.0158 C.ar    1  UNL1        0.1284
     34 N           8.7537   -7.0919   29.1985 N.ar    1  UNL1       -0.2399
     35 N           3.6128   -0.2093   27.5929 N.ar    1  UNL1       -0.2497
     36 C           4.4611   -0.0838   28.8237 C.ar    1  UNL1        0.0944
     37 C           3.5772   -0.2865   30.0185 C.ar    1  UNL1        0.0439
     38 C           2.1826   -0.5374   29.5262 C.ar    1  UNL1        0.1194
     39 N           2.2047   -0.4897   28.0271 N.ar    1  UNL1       -0.1679
     40 C           3.8007   -1.1649   25.1843 C.3     1  UNL1        0.0284
     41 C           4.0891   -0.0777   26.1766 C.3     1  UNL1        0.1276
@<TRIPOS>BOND
     1    40    41    1
     2    41    35    1
     3    35    36   ar
     4    36    37   ar
     5     1    37    1
     6     1    15    1
     7    15    16   ar
     8    16    17   ar
     9    17    18    1
    10    17    19   ar
    11    19    20    2
    12    19    21   ar
    13     1     2    1
    14     2     3    1
    15     3    22    1
    16    22    23   ar
    17    23    24   ar
    18    24    28    1
    19    28    29   ar
    20    29    30   ar
    21    30    31   ar
    22    31    32    1
    23    31    33   ar
    24    33    34   ar
    25    24    25   ar
    26    25    26   ar
    27     3     4    1
    28     4     5    1
    29     5     6    2
    30     6     7    1
    31     7     8    2
    32     8     9    1
    33     9    10    1
    34    10    11    2
    35    11    12    1
    36    12    13    2
    37    37    38   ar
    38    38    39   ar
    39    39    35   ar
    40     6     1    1
    41    13     8    1
    42    21    15   ar
    43    26    22   ar
    44    13     5    1
    45    34    28   ar
    46     2    14    1
    47    26    27    1
@<TRIPOS>MOLECULE
*****
 41 47 0 0 0
SMALL
GASTEIGER

@<TRIPOS>ATOM
      1 C           5.9691   -2.8145   24.7949 C.3     1  UNL1        0.1707
      2 N           5.4257   -2.4180   26.1356 N.3     1  UNL1       -0.2797
      3 C           4.1726   -1.5983   26.2244 C.3     1  UNL1        0.1167
      4 C           3.4628   -1.1752   24.9725 C.3     1  UNL1        0.0511
      5 C           4.0062   -1.5718   23.6318 C.2     1  UNL1       -0.0037
      6 C           5.2593   -2.3914   23.5430 C.2     1  UNL1        0.0800
      7 N           5.5551   -2.6301   22.0920 N.2     1  UNL1       -0.2519
      8 C           4.4849   -1.9580   21.2840 C.2     1  UNL1        0.0627
      9 C           4.2583   -1.8571   19.8047 C.3     1  UNL1        0.0717
     10 C           3.0745   -1.1021   19.2770 C.2     1  UNL1       -0.0198
     11 C           2.1172   -0.4480   20.2287 C.2     1  UNL1       -0.0042
     12 C           2.3437   -0.5489   21.7080 C.2     1  UNL1        0.0006
     13 C           3.5275   -1.3039   22.2357 C.2     1  UNL1        0.0111
     14 H           6.1590   -1.8866   26.6051 H       1  UNL1        0.1246
     15 C           6.8673   -3.4325   23.7646 C.ar    1  UNL1        0.2493
     16 N           7.8109   -2.6953   22.8614 N.ar    1  UNL1       -0.1285
     17 N           8.5063   -3.7035   21.9953 N.ar    1  UNL1       -0.1809
     18 C           9.5350   -3.4039   20.9456 C.3     1  UNL1        0.1605
     19 C           7.9923   -5.0638   22.3633 C.ar    1  UNL1        0.4389
     20 O           8.4168   -6.3634   21.7461 O.2     1  UNL1       -0.2210
     21 O           6.9793   -4.8963   23.4568 O.2     1  UNL1       -0.3896
     22 C           3.6292   -1.2018   27.5652 C.ar    1  UNL1        0.1319
     23 N           4.3287   -1.3618   28.8824 N.ar    1  UNL1       -0.2282
     24 C           3.4228   -0.8345   29.9553 C.ar    1  UNL1        0.1171
     25 C           2.1634   -0.3486   29.3013 C.ar    1  UNL1        0.0942
     26 N           2.2910   -0.5756   27.8240 N.ar    1  UNL1       -0.3385
     27 H           1.6151   -0.3527   27.1438 H       1  UNL1        0.1672
     28 C           3.7235   -0.7993   31.4245 C.ar    1  UNL1        0.1006
     29 C           3.6307    0.4942   32.1783 C.ar    1  UNL1        0.0230
     30 C           3.9314    0.5295   33.6474 C.ar    1  UNL1        0.0328
     31 C           4.3249   -0.7288   34.3627 C.ar    1  UNL1        0.1592
     32 F           4.6256   -0.6936   35.8319 F       1  UNL1       -0.2025
     33 C           4.4177   -2.0224   33.6090 C.ar    1  UNL1        0.1284
     34 N           4.1170   -2.0576   32.1399 N.ar    1  UNL1       -0.2399
     35 N           8.0775   -4.9809   27.2293 N.ar    1  UNL1       -0.2497
     36 C           6.8056   -4.7127   26.4807 C.ar    1  UNL1        0.0944
     37 C           6.9908   -3.4522   25.6890 C.ar    1  UNL1        0.0439
     38 C           8.3771   -2.9414   25.9483 C.ar    1  UNL1        0.1194
     39 N           9.0487   -3.8862   26.9003 N.ar    1  UNL1       -0.1679
     40 C           7.7319   -6.1568   29.5202 C.3     1  UNL1        0.0284
     41 C           8.3332   -6.1404   28.1461 C.3     1  UNL1        0.1276
@<TRIPOS>BOND
     1    40    41    1
     2    41    35    1
     3    35    36   ar
     4    36    37   ar
     5     1    37    1
     6     1    15    1
     7    15    16   ar
     8    16    17   ar
     9    17    18    1
    10    17    19   ar
    11    19    20    2
    12    19    21   ar
    13     1     2    1
    14     2     3    1
    15     3    22    1
    16    22    23   ar
    17    23    24   ar
    18    24    28    1
    19    28    29   ar
    20    29    30   ar
    21    30    31   ar
    22    31    32    1
    23    31    33   ar
    24    33    34   ar
    25    24    25   ar
    26    25    26   ar
    27     3     4    1
    28     4     5    1
    29     5     6    2
    30     6     7    1
    31     7     8    2
    32     8     9    1
    33     9    10    1
    34    10    11    2
    35    11    12    1
    36    12    13    2
    37    37    38   ar
    38    38    39   ar
    39    39    35   ar
    40     6     1    1
    41    13     8    1
    42    21    15   ar
    43    26    22   ar
    44    13     5    1
    45    34    28   ar
    46     2    14    1
    47    26    27    1
@<TRIPOS>MOLECULE
*****
 41 47 0 0 0
SMALL
GASTEIGER

@<TRIPOS>ATOM
      1 C           5.5508   -2.4962   22.9514 C.3     1  UNL1        0.1707
      2 N           6.0069   -2.3587   24.3737 N.3     1  UNL1       -0.2797
      3 C           5.2653   -1.4568   25.3153 C.3     1  UNL1        0.1167
      4 C           4.0675   -0.6924   24.8345 C.3     1  UNL1        0.0511
      5 C           3.6115   -0.8298   23.4121 C.2     1  UNL1       -0.0037
      6 C           4.3531   -1.7318   22.4706 C.2     1  UNL1        0.0800
      7 N           3.6742   -1.6662   21.1346 N.2     1  UNL1       -0.2519
      8 C           2.5130   -0.7238   21.2505 C.2     1  UNL1        0.0627
      9 C           1.4859   -0.2696   20.2562 C.3     1  UNL1        0.0717
     10 C           0.4201    0.7016   20.6694 C.2     1  UNL1       -0.0198
     11 C           0.3813    1.2185   22.0770 C.2     1  UNL1       -0.0042
     12 C           1.4084    0.7643   23.0713 C.2     1  UNL1        0.0006
     13 C           2.4742   -0.2069   22.6581 C.2     1  UNL1        0.0111
     14 H           6.9701   -2.0244   24.3431 H       1  UNL1        0.1246
     15 C           5.5052   -2.9544   21.5238 C.ar    1  UNL1        0.2493
     16 N           4.8790   -4.2226   21.0245 N.ar    1  UNL1       -0.1285
     17 N           5.0645   -4.2768   19.5369 N.ar    1  UNL1       -0.1809
     18 C           4.5922   -5.3733   18.6289 C.3     1  UNL1        0.1605
     19 C           5.8054   -3.0420   19.1170 C.ar    1  UNL1        0.4389
     20 O           6.2039   -2.6869   17.7152 O.2     1  UNL1       -0.2210
     21 O           6.0777   -2.2247   20.3450 O.2     1  UNL1       -0.3896
     22 C           5.7213   -1.3193   26.7377 C.ar    1  UNL1        0.1319
     23 N           4.8843   -1.5594   27.9590 N.ar    1  UNL1       -0.2282
     24 C           5.7401   -1.3060   29.1646 C.ar    1  UNL1        0.1171
     25 C           7.1060   -0.9093   28.6883 C.ar    1  UNL1        0.0942
     26 N           7.0944   -0.9175   27.1884 N.ar    1  UNL1       -0.3385
     27 H           7.8546   -0.6978   26.6026 H       1  UNL1        0.1672
     28 C           5.3061   -1.4279   30.5953 C.ar    1  UNL1        0.1006
     29 C           5.8499   -2.5322   31.4525 C.ar    1  UNL1        0.0230
     30 C           5.4160   -2.6542   32.8831 C.ar    1  UNL1        0.0328
     31 C           4.4382   -1.6719   33.4566 C.ar    1  UNL1        0.1592
     32 F           4.0042   -1.7938   34.8873 F       1  UNL1       -0.2025
     33 C           3.8943   -0.5676   32.5994 C.ar    1  UNL1        0.1284
     34 N           4.3282   -0.4456   31.1687 N.ar    1  UNL1       -0.2399
     35 N           8.1568   -5.3521   23.2946 N.ar    1  UNL1       -0.2497
     36 C           6.7888   -4.7897   23.5447 C.ar    1  UNL1        0.0944
     37 C           6.7326   -3.4198   22.9364 C.ar    1  UNL1        0.0439
     38 C           8.0659   -3.1355   22.3104 C.ar    1  UNL1        0.1194
     39 N           8.9460   -4.3298   22.5318 N.ar    1  UNL1       -0.1679
     40 C           8.0080   -7.3912   24.8977 C.3     1  UNL1        0.0284
     41 C           8.6491   -6.7003   23.7309 C.3     1  UNL1        0.1276
@<TRIPOS>BOND
     1    40    41    1
     2    41    35    1
     3    35    36   ar
     4    36    37   ar
     5     1    37    1
     6     1    15    1
     7    15    16   ar
     8    16    17   ar
     9    17    18    1
    10    17    19   ar
    11    19    20    2
    12    19    21   ar
    13     1     2    1
    14     2     3    1
    15     3    22    1
    16    22    23   ar
    17    23    24   ar
    18    24    28    1
    19    28    29   ar
    20    29    30   ar
    21    30    31   ar
    22    31    32    1
    23    31    33   ar
    24    33    34   ar
    25    24    25   ar
    26    25    26   ar
    27     3     4    1
    28     4     5    1
    29     5     6    2
    30     6     7    1
    31     7     8    2
    32     8     9    1
    33     9    10    1
    34    10    11    2
    35    11    12    1
    36    12    13    2
    37    37    38   ar
    38    38    39   ar
    39    39    35   ar
    40     6     1    1
    41    13     8    1
    42    21    15   ar
    43    26    22   ar
    44    13     5    1
    45    34    28   ar
    46     2    14    1
    47    26    27    1
@<TRIPOS>MOLECULE
*****
 41 47 0 0 0
SMALL
GASTEIGER

@<TRIPOS>ATOM
      1 C           5.6822   -2.6216   23.9735 C.3     1  UNL1        0.1707
      2 N           5.2267   -1.9017   25.2081 N.3     1  UNL1       -0.2797
      3 C           5.6469   -2.3939   26.5613 C.3     1  UNL1        0.1167
      4 C           6.5225   -3.6061   26.6799 C.3     1  UNL1        0.0511
      5 C           6.9780   -4.3260   25.4453 C.2     1  UNL1       -0.0037
      6 C           6.5578   -3.8337   24.0921 C.2     1  UNL1        0.0800
      7 N           7.1589   -4.7425   23.0612 N.2     1  UNL1       -0.2519
      8 C           7.9505   -5.7964   23.7772 C.2     1  UNL1        0.0627
      9 C           8.7587   -6.9572   23.2779 C.3     1  UNL1        0.0717
     10 C           9.4551   -7.8605   24.2520 C.2     1  UNL1       -0.0198
     11 C           9.3433   -7.6030   25.7255 C.2     1  UNL1       -0.0042
     12 C           8.5351   -6.4423   26.2249 C.2     1  UNL1        0.0006
     13 C           7.8387   -5.5389   25.2507 C.2     1  UNL1        0.0111
     14 H           4.2069   -1.9109   25.1950 H       1  UNL1        0.1246
     15 C           5.8544   -2.9616   22.5227 C.ar    1  UNL1        0.2493
     16 N           6.7895   -2.2865   21.5639 N.ar    1  UNL1       -0.1285
     17 N           6.6346   -2.9441   20.2246 N.ar    1  UNL1       -0.1809
     18 C           7.3799   -2.5834   18.9739 C.3     1  UNL1        0.1605
     19 C           5.6037   -4.0257   20.3559 C.ar    1  UNL1        0.4389
     20 O           5.1369   -4.9366   19.2593 O.2     1  UNL1       -0.2210
     21 O           5.1214   -4.0365   21.7762 O.2     1  UNL1       -0.3896
     22 C           5.1915   -1.6740   27.7960 C.ar    1  UNL1        0.1319
     23 N           5.6177   -1.9781   29.2016 N.ar    1  UNL1       -0.2282
     24 C           4.9195   -1.0157   30.1162 C.ar    1  UNL1        0.1171
     25 C           4.0618   -0.1168   29.2757 C.ar    1  UNL1        0.0942
     26 N           4.2299   -0.5237   27.8418 N.ar    1  UNL1       -0.3385
     27 H           3.7869   -0.1086   27.0668 H       1  UNL1        0.1672
     28 C           5.0552   -0.9617   31.6091 C.ar    1  UNL1        0.1006
     29 C           6.1181   -0.1083   32.2352 C.ar    1  UNL1        0.0230
     30 C           6.2538   -0.0542   33.7280 C.ar    1  UNL1        0.0328
     31 C           5.3267   -0.8537   34.5948 C.ar    1  UNL1        0.1592
     32 F           5.4624   -0.7997   36.0877 F       1  UNL1       -0.2025
     33 C           4.2639   -1.7071   33.9687 C.ar    1  UNL1        0.1284
     34 N           4.1281   -1.7611   32.4759 N.ar    1  UNL1       -0.2399
     35 N           3.0837   -0.3434   22.2064 N.ar    1  UNL1       -0.2497
     36 C           3.5336   -1.6927   22.6829 C.ar    1  UNL1        0.0944
     37 C           4.8664   -1.5276   23.3511 C.ar    1  UNL1        0.0439
     38 C           5.2401   -0.0762   23.2875 C.ar    1  UNL1        0.1194
     39 N           4.1383    0.6556   22.5800 N.ar    1  UNL1       -0.1679
     40 C           1.5093   -0.7143   20.1732 C.3     1  UNL1        0.0284
     41 C           1.8037   -0.0455   21.4831 C.3     1  UNL1        0.1276
@<TRIPOS>BOND
     1    40    41    1
     2    41    35    1
     3    35    36   ar
     4    36    37   ar
     5     1    37    1
     6     1    15    1
     7    15    16   ar
     8    16    17   ar
     9    17    18    1
    10    17    19   ar
    11    19    20    2
    12    19    21   ar
    13     1     2    1
    14     2     3    1
    15     3    22    1
    16    22    23   ar
    17    23    24   ar
    18    24    28    1
    19    28    29   ar
    20    29    30   ar
    21    30    31   ar
    22    31    32    1
    23    31    33   ar
    24    33    34   ar
    25    24    25   ar
    26    25    26   ar
    27     3     4    1
    28     4     5    1
    29     5     6    2
    30     6     7    1
    31     7     8    2
    32     8     9    1
    33     9    10    1
    34    10    11    2
    35    11    12    1
    36    12    13    2
    37    37    38   ar
    38    38    39   ar
    39    39    35   ar
    40     6     1    1
    41    13     8    1
    42    21    15   ar
    43    26    22   ar
    44    13     5    1
    45    34    28   ar
    46     2    14    1
    47    26    27    1
@<TRIPOS>MOLECULE
*****
 41 47 0 0 0
SMALL
GASTEIGER

@<TRIPOS>ATOM
      1 C          -1.2878    3.0408   23.3955 C.3     1  UNL1        0.1707
      2 N          -1.1358    2.7634   24.8618 N.3     1  UNL1       -0.2797
      3 C          -0.1265    1.7594   25.3344 C.3     1  UNL1        0.1167
      4 C           0.7307    1.0328   24.3408 C.3     1  UNL1        0.0511
      5 C           0.5786    1.3102   22.8745 C.2     1  UNL1       -0.0037
      6 C          -0.4306    2.3142   22.4019 C.2     1  UNL1        0.0800
      7 N          -0.3553    2.3778   20.9052 N.2     1  UNL1       -0.2519
      8 C           0.7005    1.4131   20.4528 C.2     1  UNL1        0.0627
      9 C           1.2109    1.0503   19.0898 C.3     1  UNL1        0.0717
     10 C           2.2985    0.0276   18.9439 C.2     1  UNL1       -0.0198
     11 C           2.8757   -0.6322   20.1611 C.2     1  UNL1       -0.0042
     12 C           2.3653   -0.2693   21.5241 C.2     1  UNL1        0.0006
     13 C           1.2777    0.7533   21.6699 C.2     1  UNL1        0.0111
     14 H          -2.0455    2.4469   25.1975 H       1  UNL1        0.1246
     15 C          -1.7993    3.6432   22.1205 C.ar    1  UNL1        0.2493
     16 N          -2.9058    3.0959   21.2685 N.ar    1  UNL1       -0.1285
     17 N          -3.0842    4.0132   20.0951 N.ar    1  UNL1       -0.1809
     18 C          -4.0835    3.8456   18.9891 C.3     1  UNL1        0.1605
     19 C          -2.0880    5.1273   20.2219 C.ar    1  UNL1        0.4389
     20 O          -1.9161    6.2696   19.2650 O.2     1  UNL1       -0.2210
     21 O          -1.2938    4.8986   21.4738 O.2     1  UNL1       -0.3896
     22 C           0.0255    1.4820   26.8007 C.ar    1  UNL1        0.1319
     23 N           0.4138    2.4799   27.8511 N.ar    1  UNL1       -0.2282
     24 C           0.4443    1.7727   29.1736 C.ar    1  UNL1        0.1171
     25 C           0.0749    0.3377   28.9405 C.ar    1  UNL1        0.0942
     26 N          -0.1839    0.1581   27.4739 N.ar    1  UNL1       -0.3385
     27 H          -0.4454   -0.6814   27.0310 H       1  UNL1        0.1672
     28 C           0.7845    2.3918   30.4969 C.ar    1  UNL1        0.1006
     29 C           0.6830    3.8773   30.6782 C.ar    1  UNL1        0.0230
     30 C           1.0231    4.4964   32.0014 C.ar    1  UNL1        0.0328
     31 C           1.4648    3.6300   33.1433 C.ar    1  UNL1        0.1592
     32 F           1.8050    4.2491   34.4667 F       1  UNL1       -0.2025
     33 C           1.5663    2.1444   32.9621 C.ar    1  UNL1        0.1284
     34 N           1.2261    1.5253   31.6389 N.ar    1  UNL1       -0.2399
     35 N          -4.4259    4.8683   24.7661 N.ar    1  UNL1       -0.2497
     36 C          -3.7574    3.6392   24.2250 C.ar    1  UNL1        0.0944
     37 C          -2.3227    3.9766   23.9463 C.ar    1  UNL1        0.0439
     38 C          -2.1044    5.4141   24.3151 C.ar    1  UNL1        0.1194
     39 N          -3.4043    5.9652   24.8217 N.ar    1  UNL1       -0.1679
     40 C          -6.9522    4.7925   24.1643 C.3     1  UNL1        0.0284
     41 C          -5.8636    4.9806   25.1790 C.3     1  UNL1        0.1276
@<TRIPOS>BOND
     1    40    41    1
     2    41    35    1
     3    35    36   ar
     4    36    37   ar
     5     1    37    1
     6     1    15    1
     7    15    16   ar
     8    16    17   ar
     9    17    18    1
    10    17    19   ar
    11    19    20    2
    12    19    21   ar
    13     1     2    1
    14     2     3    1
    15     3    22    1
    16    22    23   ar
    17    23    24   ar
    18    24    28    1
    19    28    29   ar
    20    29    30   ar
    21    30    31   ar
    22    31    32    1
    23    31    33   ar
    24    33    34   ar
    25    24    25   ar
    26    25    26   ar
    27     3     4    1
    28     4     5    1
    29     5     6    2
    30     6     7    1
    31     7     8    2
    32     8     9    1
    33     9    10    1
    34    10    11    2
    35    11    12    1
    36    12    13    2
    37    37    38   ar
    38    38    39   ar
    39    39    35   ar
    40     6     1    1
    41    13     8    1
    42    21    15   ar
    43    26    22   ar
    44    13     5    1
    45    34    28   ar
    46     2    14    1
    47    26    27    1
@<TRIPOS>MOLECULE
*****
 41 47 0 0 0
SMALL
GASTEIGER

@<TRIPOS>ATOM
      1 C           3.2899   -0.7409   22.0499 C.3     1  UNL1        0.1707
      2 N           2.3545    0.1857   22.7686 N.3     1  UNL1       -0.2797
      3 C           2.3959    0.2809   24.2650 C.3     1  UNL1        0.1167
      4 C           3.3726   -0.5505   25.0427 C.3     1  UNL1        0.0511
      5 C           4.3079   -1.4771   24.3240 C.2     1  UNL1       -0.0037
      6 C           4.2666   -1.5723   22.8276 C.2     1  UNL1        0.0800
      7 N           5.3037   -2.5670   22.3977 N.2     1  UNL1       -0.2519
      8 C           5.9860   -3.0866   23.6283 C.2     1  UNL1        0.0627
      9 C           7.0882   -4.0861   23.8187 C.3     1  UNL1        0.0717
     10 C           7.5749   -4.4119   25.1995 C.2     1  UNL1       -0.0198
     11 C           6.9594   -3.7383   26.3901 C.2     1  UNL1       -0.0042
     12 C           5.8573   -2.7389   26.1998 C.2     1  UNL1        0.0006
     13 C           5.3706   -2.4130   24.8189 C.2     1  UNL1        0.0111
     14 H           1.4077   -0.0988   22.5176 H       1  UNL1        0.1246
     15 C           3.9679   -1.4663   20.9255 C.ar    1  UNL1        0.2493
     16 N           5.1126   -0.9490   20.1059 N.ar    1  UNL1       -0.1285
     17 N           5.4724   -1.9994   19.0972 N.ar    1  UNL1       -0.1809
     18 C           6.5630   -1.9007   18.0722 C.3     1  UNL1        0.1605
     19 C           4.5499   -3.1658   19.2935 C.ar    1  UNL1        0.4389
     20 O           4.5562   -4.4383   18.4993 O.2     1  UNL1       -0.2210
     21 O           3.6201   -2.8363   20.4235 O.2     1  UNL1       -0.3896
     22 C           1.4605    1.2075   24.9837 C.ar    1  UNL1        0.1319
     23 N           0.0587    1.5422   24.5678 N.ar    1  UNL1       -0.2282
     24 C          -0.5055    2.5036   25.5715 C.ar    1  UNL1        0.1171
     25 C           0.5476    2.7630   26.6077 C.ar    1  UNL1        0.0942
     26 N           1.7626    1.9620   26.2444 N.ar    1  UNL1       -0.3385
     27 H           2.6097    1.9360   26.7454 H       1  UNL1        0.1672
     28 C          -1.8813    3.1007   25.5439 C.ar    1  UNL1        0.1006
     29 C          -2.5974    3.3944   26.8288 C.ar    1  UNL1        0.0230
     30 C          -3.9731    3.9914   26.8012 C.ar    1  UNL1        0.0328
     31 C          -4.6327    4.2949   25.4887 C.ar    1  UNL1        0.1592
     32 F          -6.0085    4.8920   25.4610 F       1  UNL1       -0.2025
     33 C          -3.9167    4.0013   24.2037 C.ar    1  UNL1        0.1284
     34 N          -2.5409    3.4042   24.2313 N.ar    1  UNL1       -0.2399
     35 N           1.8085    1.3616   19.1430 N.ar    1  UNL1       -0.2497
     36 C           2.7610    1.2008   20.2906 C.ar    1  UNL1        0.0944
     37 C           2.5487   -0.1614   20.8817 C.ar    1  UNL1        0.0439
     38 C           1.4650   -0.8424   20.0994 C.ar    1  UNL1        0.1194
     39 N           1.0076    0.0989   19.0248 N.ar    1  UNL1       -0.1679
     40 C           2.5711    3.7581   18.4908 C.3     1  UNL1        0.0284
     41 C           1.6797    2.5727   18.2673 C.3     1  UNL1        0.1276
@<TRIPOS>BOND
     1    40    41    1
     2    41    35    1
     3    35    36   ar
     4    36    37   ar
     5     1    37    1
     6     1    15    1
     7    15    16   ar
     8    16    17   ar
     9    17    18    1
    10    17    19   ar
    11    19    20    2
    12    19    21   ar
    13     1     2    1
    14     2     3    1
    15     3    22    1
    16    22    23   ar
    17    23    24   ar
    18    24    28    1
    19    28    29   ar
    20    29    30   ar
    21    30    31   ar
    22    31    32    1
    23    31    33   ar
    24    33    34   ar
    25    24    25   ar
    26    25    26   ar
    27     3     4    1
    28     4     5    1
    29     5     6    2
    30     6     7    1
    31     7     8    2
    32     8     9    1
    33     9    10    1
    34    10    11    2
    35    11    12    1
    36    12    13    2
    37    37    38   ar
    38    38    39   ar
    39    39    35   ar
    40     6     1    1
    41    13     8    1
    42    21    15   ar
    43    26    22   ar
    44    13     5    1
    45    34    28   ar
    46     2    14    1
    47    26    27    1
@<TRIPOS>MOLECULE
*****
 41 47 0 0 0
SMALL
GASTEIGER

@<TRIPOS>ATOM
      1 C           2.8552    0.4245   24.0306 C.3     1  UNL1        0.1707
      2 N           3.4294    0.1192   25.3823 N.3     1  UNL1       -0.2797
      3 C           4.2761   -1.1034   25.5787 C.3     1  UNL1        0.1167
      4 C           4.5485   -2.0206   24.4235 C.3     1  UNL1        0.0511
      5 C           3.9743   -1.7152   23.0718 C.2     1  UNL1       -0.0037
      6 C           3.1276   -0.4927   22.8754 C.2     1  UNL1        0.0800
      7 N           2.7003   -0.4509   21.4382 N.2     1  UNL1       -0.2519
      8 C           3.2828   -1.6476   20.7463 C.2     1  UNL1        0.0627
      9 C           3.1980   -2.1267   19.3275 C.3     1  UNL1        0.0717
     10 C           3.9006   -3.3872   18.9183 C.2     1  UNL1       -0.0198
     11 C           4.6880   -4.1686   19.9279 C.2     1  UNL1       -0.0042
     12 C           4.7728   -3.6895   21.3468 C.2     1  UNL1        0.0006
     13 C           4.0702   -2.4290   21.7560 C.2     1  UNL1        0.0111
     14 H           2.6418    0.0384   26.0254 H       1  UNL1        0.1246
     15 C           2.0946    1.1340   22.9497 C.ar    1  UNL1        0.2493
     16 N           2.6526    2.1561   22.0045 N.ar    1  UNL1       -0.1285
     17 N           1.5453    2.5996   21.0949 N.ar    1  UNL1       -0.1809
     18 C           1.6603    3.6133   19.9952 C.3     1  UNL1        0.1605
     19 C           0.3030    1.8514   21.4781 C.ar    1  UNL1        0.4389
     20 O          -1.0426    1.9856   20.8289 O.2     1  UNL1       -0.2210
     21 O           0.6425    0.9456   22.6245 O.2     1  UNL1       -0.3896
     22 C           4.8503   -1.4088   26.9304 C.ar    1  UNL1        0.1319
     23 N           5.6132   -2.6446   27.3055 N.ar    1  UNL1       -0.2282
     24 C           5.9969   -2.5316   28.7512 C.ar    1  UNL1        0.1171
     25 C           5.4711   -1.2259   29.2696 C.ar    1  UNL1        0.0942
     26 N           4.7625   -0.5320   28.1443 N.ar    1  UNL1       -0.3385
     27 H           4.3178    0.3450   28.1937 H       1  UNL1        0.1672
     28 C           6.7706   -3.5462   29.5400 C.ar    1  UNL1        0.1006
     29 C           6.6730   -5.0015   29.1900 C.ar    1  UNL1        0.0230
     30 C           7.4466   -6.0161   29.9787 C.ar    1  UNL1        0.0328
     31 C           8.3177   -5.5753   31.1174 C.ar    1  UNL1        0.1592
     32 F           9.0914   -6.5899   31.9062 F       1  UNL1       -0.2025
     33 C           8.4153   -4.1200   31.4674 C.ar    1  UNL1        0.1284
     34 N           7.6417   -3.1054   30.6787 N.ar    1  UNL1       -0.2399
     35 N           0.8948    2.9712   26.2069 N.ar    1  UNL1       -0.2497
     36 C           1.0353    1.6127   25.5867 C.ar    1  UNL1        0.0944
     37 C           2.3187    1.5881   24.8104 C.ar    1  UNL1        0.0439
     38 C           2.9712    2.9314   24.9510 C.ar    1  UNL1        0.1194
     39 N           2.0912    3.7862   25.8141 N.ar    1  UNL1       -0.1679
     40 C          -1.6355    2.9483   26.7962 C.3     1  UNL1        0.0284
     41 C          -0.2425    3.4336   27.0688 C.3     1  UNL1        0.1276
@<TRIPOS>BOND
     1    40    41    1
     2    41    35    1
     3    35    36   ar
     4    36    37   ar
     5     1    37    1
     6     1    15    1
     7    15    16   ar
     8    16    17   ar
     9    17    18    1
    10    17    19   ar
    11    19    20    2
    12    19    21   ar
    13     1     2    1
    14     2     3    1
    15     3    22    1
    16    22    23   ar
    17    23    24   ar
    18    24    28    1
    19    28    29   ar
    20    29    30   ar
    21    30    31   ar
    22    31    32    1
    23    31    33   ar
    24    33    34   ar
    25    24    25   ar
    26    25    26   ar
    27     3     4    1
    28     4     5    1
    29     5     6    2
    30     6     7    1
    31     7     8    2
    32     8     9    1
    33     9    10    1
    34    10    11    2
    35    11    12    1
    36    12    13    2
    37    37    38   ar
    38    38    39   ar
    39    39    35   ar
    40     6     1    1
    41    13     8    1
    42    21    15   ar
    43    26    22   ar
    44    13     5    1
    45    34    28   ar
    46     2    14    1
    47    26    27    1
@<TRIPOS>MOLECULE
*****
 41 47 0 0 0
SMALL
GASTEIGER

@<TRIPOS>ATOM
      1 C          -0.4826    2.6578   22.2231 C.3     1  UNL1        0.1707
      2 N           0.6474    1.8625   22.8066 N.3     1  UNL1       -0.2797
      3 C           0.7067    1.6172   24.2852 C.3     1  UNL1        0.1167
      4 C          -0.3639    2.1673   25.1803 C.3     1  UNL1        0.0511
      5 C          -1.4939    2.9627   24.5967 C.2     1  UNL1       -0.0037
      6 C          -1.5532    3.2079   23.1181 C.2     1  UNL1        0.0800
      7 N          -2.7799    4.0225   22.8323 N.2     1  UNL1       -0.2519
      8 C          -3.4787    4.2807   24.1342 C.2     1  UNL1        0.0627
      9 C          -4.7360    5.0276   24.4676 C.3     1  UNL1        0.0717
     10 C          -5.1985    5.1195   25.8915 C.2     1  UNL1       -0.0198
     11 C          -4.4037    4.4645   26.9821 C.2     1  UNL1       -0.0042
     12 C          -3.1464    3.7176   26.6487 C.2     1  UNL1        0.0006
     13 C          -2.6839    3.6257   25.2247 C.2     1  UNL1        0.0111
     14 H           1.5092    2.3458   22.5535 H       1  UNL1        0.1246
     15 C          -1.3448    3.3451   21.2060 C.ar    1  UNL1        0.2493
     16 N          -1.1621    4.7437   20.6959 N.ar    1  UNL1       -0.1285
     17 N          -2.2455    5.0173   19.6951 N.ar    1  UNL1       -0.1809
     18 C          -2.4421    6.2960   18.9360 C.3     1  UNL1        0.1605
     19 C          -3.0977    3.7877   19.5868 C.ar    1  UNL1        0.4389
     20 O          -4.2962    3.6209   18.7003 O.2     1  UNL1       -0.2210
     21 O          -2.5410    2.7542   20.5206 O.2     1  UNL1       -0.3896
     22 C           1.8367    0.8218   24.8688 C.ar    1  UNL1        0.1319
     23 N           2.6088   -0.2572   24.1692 N.ar    1  UNL1       -0.2282
     24 C           3.6422   -0.7801   25.1224 C.ar    1  UNL1        0.1171
     25 C           3.5088   -0.0242   26.4111 C.ar    1  UNL1        0.0942
     26 N           2.3929    0.9658   26.2544 N.ar    1  UNL1       -0.3385
     27 H           2.0804    1.5990   26.9405 H       1  UNL1        0.1672
     28 C           4.6349   -1.8680   24.8370 C.ar    1  UNL1        0.1006
     29 C           4.6154   -2.5725   23.5129 C.ar    1  UNL1        0.0230
     30 C           5.6079   -3.6603   23.2275 C.ar    1  UNL1        0.0328
     31 C           6.6200   -4.0435   24.2661 C.ar    1  UNL1        0.1592
     32 F           7.6126   -5.1313   23.9807 F       1  UNL1       -0.2025
     33 C           6.6395   -3.3389   25.5902 C.ar    1  UNL1        0.1284
     34 N           5.6469   -2.2512   25.8756 N.ar    1  UNL1       -0.2399
     35 N           1.9196    2.4578   19.1809 N.ar    1  UNL1       -0.2497
     36 C           1.4609    3.1191   20.4467 C.ar    1  UNL1        0.0944
     37 C           0.2886    2.3464   20.9748 C.ar    1  UNL1        0.0439
     38 C           0.0229    1.2076   20.0353 C.ar    1  UNL1        0.1194
     39 N           1.0310    1.2765   18.9266 N.ar    1  UNL1       -0.1679
     40 C           4.3848    2.1908   18.4053 C.3     1  UNL1        0.0284
     41 C           3.0659    2.9002   18.3204 C.3     1  UNL1        0.1276
@<TRIPOS>BOND
     1    40    41    1
     2    41    35    1
     3    35    36   ar
     4    36    37   ar
     5     1    37    1
     6     1    15    1
     7    15    16   ar
     8    16    17   ar
     9    17    18    1
    10    17    19   ar
    11    19    20    2
    12    19    21   ar
    13     1     2    1
    14     2     3    1
    15     3    22    1
    16    22    23   ar
    17    23    24   ar
    18    24    28    1
    19    28    29   ar
    20    29    30   ar
    21    30    31   ar
    22    31    32    1
    23    31    33   ar
    24    33    34   ar
    25    24    25   ar
    26    25    26   ar
    27     3     4    1
    28     4     5    1
    29     5     6    2
    30     6     7    1
    31     7     8    2
    32     8     9    1
    33     9    10    1
    34    10    11    2
    35    11    12    1
    36    12    13    2
    37    37    38   ar
    38    38    39   ar
    39    39    35   ar
    40     6     1    1
    41    13     8    1
    42    21    15   ar
    43    26    22   ar
    44    13     5    1
    45    34    28   ar
    46     2    14    1
    47    26    27    1
@<TRIPOS>MOLECULE
*****
 41 47 0 0 0
SMALL
GASTEIGER

@<TRIPOS>ATOM
      1 C           2.7770    0.3895   24.0078 C.3     1  UNL1        0.1707
      2 N           3.3421    0.0700   25.3600 N.3     1  UNL1       -0.2797
      3 C           4.1931   -1.1509   25.5479 C.3     1  UNL1        0.1167
      4 C           4.4788   -2.0523   24.3835 C.3     1  UNL1        0.0511
      5 C           3.9136   -1.7329   23.0313 C.2     1  UNL1       -0.0037
      6 C           3.0627   -0.5120   22.8434 C.2     1  UNL1        0.0800
      7 N           2.6464   -0.4543   21.4035 N.2     1  UNL1       -0.2519
      8 C           3.2399   -1.6395   20.7015 C.2     1  UNL1        0.0627
      9 C           3.1685   -2.1013   19.2761 C.3     1  UNL1        0.0717
     10 C           3.8802   -3.3533   18.8568 C.2     1  UNL1       -0.0198
     11 C           4.6634   -4.1435   19.8628 C.2     1  UNL1       -0.0042
     12 C           4.7349   -3.6817   21.2882 C.2     1  UNL1        0.0006
     13 C           4.0232   -2.4297   21.7075 C.2     1  UNL1        0.0111
     14 H           2.5500   -0.0225   25.9959 H       1  UNL1        0.1246
     15 C           2.0214    1.1088   22.9299 C.ar    1  UNL1        0.2493
     16 N           2.5986    2.0896   21.9529 N.ar    1  UNL1       -0.1285
     17 N           1.4898    2.5604   21.0589 N.ar    1  UNL1       -0.1809
     18 C           1.6206    3.5478   19.9374 C.3     1  UNL1        0.1605
     19 C           0.2274    1.8705   21.4836 C.ar    1  UNL1        0.4389
     20 O          -1.1259    2.0468   20.8611 O.2     1  UNL1       -0.2210
     21 O           0.5560    0.9733   22.6399 O.2     1  UNL1       -0.3896
     22 C           4.7583   -1.4704   26.9001 C.ar    1  UNL1        0.1319
     23 N           4.1908   -1.0342   28.2183 N.ar    1  UNL1       -0.2282
     24 C           5.0719   -1.5764   29.3045 C.ar    1  UNL1        0.1171
     25 C           6.1840   -2.3476   28.6575 C.ar    1  UNL1        0.0942
     26 N           5.9901   -2.2821   27.1715 N.ar    1  UNL1       -0.3385
     27 H           6.5696   -2.6987   26.4934 H       1  UNL1        0.1672
     28 C           4.8755   -1.3815   30.7788 C.ar    1  UNL1        0.1006
     29 C           5.6350   -2.2299   31.7552 C.ar    1  UNL1        0.0230
     30 C           5.4386   -2.0351   33.2294 C.ar    1  UNL1        0.0328
     31 C           4.4827   -0.9919   33.7272 C.ar    1  UNL1        0.1592
     32 F           4.2863   -0.7970   35.2015 F       1  UNL1       -0.2025
     33 C           3.7232   -0.1434   32.7508 C.ar    1  UNL1        0.1284
     34 N           3.9196   -0.3383   31.2766 N.ar    1  UNL1       -0.2399
     35 N           0.8088    2.8865   26.2342 N.ar    1  UNL1       -0.2497
     36 C           0.9737    1.5282   25.6192 C.ar    1  UNL1        0.0944
     37 C           2.2288    1.5407   24.7978 C.ar    1  UNL1        0.0439
     38 C           2.8394    2.9066   24.9051 C.ar    1  UNL1        0.1194
     39 N           1.9618    3.7383   25.7928 N.ar    1  UNL1       -0.1679
     40 C          -1.7134    2.8575   26.8569 C.3     1  UNL1        0.0284
     41 C          -0.3125    3.3171   27.1327 C.3     1  UNL1        0.1276
@<TRIPOS>BOND
     1    40    41    1
     2    41    35    1
     3    35    36   ar
     4    36    37   ar
     5     1    37    1
     6     1    15    1
     7    15    16   ar
     8    16    17   ar
     9    17    18    1
    10    17    19   ar
    11    19    20    2
    12    19    21   ar
    13     1     2    1
    14     2     3    1
    15     3    22    1
    16    22    23   ar
    17    23    24   ar
    18    24    28    1
    19    28    29   ar
    20    29    30   ar
    21    30    31   ar
    22    31    32    1
    23    31    33   ar
    24    33    34   ar
    25    24    25   ar
    26    25    26   ar
    27     3     4    1
    28     4     5    1
    29     5     6    2
    30     6     7    1
    31     7     8    2
    32     8     9    1
    33     9    10    1
    34    10    11    2
    35    11    12    1
    36    12    13    2
    37    37    38   ar
    38    38    39   ar
    39    39    35   ar
    40     6     1    1
    41    13     8    1
    42    21    15   ar
    43    26    22   ar
    44    13     5    1
    45    34    28   ar
    46     2    14    1
    47    26    27    1
