@<TRIPOS>MOLECULE
*****
 38 42 0 0 0
SMALL
GASTEIGER

@<TRIPOS>ATOM
      1 C           3.9908   -0.2900   33.4701 C.3     1  UNL1        0.1522
      2 C           4.3285    0.1821   34.8532 C.3     1  UNL1        0.0313
      3 C           3.6130    1.4796   35.0877 C.3     1  UNL1        0.0264
      4 C           2.8332    1.8092   33.8494 C.3     1  UNL1        0.0942
      5 N           3.0667    0.7155   32.8497 N.am    1  UNL1       -0.2713
      6 C           2.4792    0.6406   31.4716 C.2     1  UNL1        0.2509
      7 O           2.8051   -0.5204   30.5795 O.2     1  UNL1       -0.2727
      8 O           3.8741   -2.8686   33.1743 O.2     1  UNL1       -0.2730
      9 C           4.4897   -1.5471   32.8212 C.2     1  UNL1        0.2442
     10 N           5.6042   -1.4826   31.8194 N.am    1  UNL1       -0.2826
     11 H           6.0083   -0.6152   31.5877 H       1  UNL1        0.1549
     12 C           6.1032   -2.7396   31.1706 C.ar    1  UNL1        0.0505
     13 C           6.0369   -2.8914   29.6798 C.ar    1  UNL1        0.0178
     14 C           6.5359   -4.1484   29.0310 C.ar    1  UNL1        0.0388
     15 C           7.1010   -5.2537   29.8730 C.ar    1  UNL1        0.1454
     16 C           7.1672   -5.1019   31.3638 C.ar    1  UNL1        0.0388
     17 C           6.6683   -3.8449   32.0126 C.ar    1  UNL1        0.0178
     18 O           7.5999   -6.5108   29.2242 O.3     1  UNL1       -0.4535
     19 C           8.0208   -6.4956   27.7845 C.ar    1  UNL1        0.1454
     20 C           7.3505   -7.4048   26.7975 C.ar    1  UNL1        0.0398
     21 C           7.7715   -7.3895   25.3579 C.ar    1  UNL1        0.0328
     22 C           8.8627   -6.4652   24.9052 C.ar    1  UNL1        0.1403
     23 F           9.2836   -6.4500   23.4656 F       1  UNL1       -0.2042
     24 C           9.5329   -5.5560   25.8922 C.ar    1  UNL1        0.0328
     25 C           9.1120   -5.5712   27.3319 C.ar    1  UNL1        0.0398
     26 C           3.6678    2.3027   36.3404 C.3     1  UNL1        0.0281
     27 C           2.6714    2.0673   37.4367 C.ar    1  UNL1       -0.0221
     28 C           2.6948    0.7809   38.2078 C.ar    1  UNL1       -0.0043
     29 C           1.6984    0.5455   39.3041 C.ar    1  UNL1       -0.0003
     30 C           0.6788    1.5965   39.6293 C.ar    1  UNL1       -0.0000
     31 C           0.6555    2.8829   38.8581 C.ar    1  UNL1       -0.0003
     32 C           1.6518    3.1183   37.7619 C.ar    1  UNL1       -0.0043
     33 C           1.5658    1.7266   30.9856 C.3     1  UNL1        0.2138
     34 N           0.6391    1.4682   29.8348 N.ar    1  UNL1       -0.2206
     35 C           0.5553    2.2736   28.5721 C.ar    1  UNL1        0.1977
     36 N          -0.5021    1.6621   27.7016 N.ar    1  UNL1       -0.2007
     37 C          -1.0719    0.4788   28.4262 C.ar    1  UNL1        0.2210
     38 N          -0.3666    0.3589   29.7446 N.ar    1  UNL1       -0.1447
@<TRIPOS>BOND
     1     8     9    2
     2     9    10   am
     3    10    12    1
     4    12    13   ar
     5    13    14   ar
     6    14    15   ar
     7    15    18    1
     8    18    19    1
     9    19    20   ar
    10    20    21   ar
    11    21    22   ar
    12    22    23    1
    13    22    24   ar
    14    24    25   ar
    15    15    16   ar
    16    16    17   ar
    17     1     9    1
    18     1     2    1
    19     2     3    1
    20     3    26    1
    21    26    27    1
    22    27    28   ar
    23    28    29   ar
    24    29    30   ar
    25    30    31   ar
    26    31    32   ar
    27     3     4    1
    28     4     5    1
    29     5     6   am
    30     6     7    2
    31     6    33    1
    32    33    34    1
    33    34    35   ar
    34    35    36   ar
    35    36    37   ar
    36    37    38   ar
    37    17    12   ar
    38     5     1    1
    39    38    34   ar
    40    25    19   ar
    41    32    27   ar
    42    10    11    1
@<TRIPOS>MOLECULE
*****
 38 42 0 0 0
SMALL
GASTEIGER

@<TRIPOS>ATOM
      1 C           4.3273   -1.6158   24.2195 C.3     1  UNL1        0.1522
      2 C           3.5086   -1.4202   22.9779 C.3     1  UNL1        0.0313
      3 C           4.0716   -2.3070   21.9070 C.3     1  UNL1        0.0264
      4 C           5.2382   -3.0507   22.4869 C.3     1  UNL1        0.0942
      5 N           5.3961   -2.6234   23.9160 N.am    1  UNL1       -0.2713
      6 C           6.4397   -3.1171   24.8737 C.2     1  UNL1        0.2509
      7 O           6.4740   -2.5960   26.2798 O.2     1  UNL1       -0.2727
      8 O           4.4371    0.5331   25.6756 O.2     1  UNL1       -0.2730
      9 C           4.1143   -0.9249   25.5338 C.2     1  UNL1        0.2442
     10 N           3.5786   -1.6919   26.7062 N.am    1  UNL1       -0.2826
     11 H           3.3667   -2.6489   26.6131 H       1  UNL1        0.1549
     12 C           3.3657   -1.0010   28.0205 C.ar    1  UNL1        0.0505
     13 C           1.9771   -0.6531   28.4686 C.ar    1  UNL1        0.0178
     14 C           1.7643    0.0378   29.7829 C.ar    1  UNL1        0.0388
     15 C           2.9399    0.3807   30.6491 C.ar    1  UNL1        0.1454
     16 C           4.3285    0.0327   30.2010 C.ar    1  UNL1        0.0388
     17 C           4.5413   -0.6582   28.8867 C.ar    1  UNL1        0.0178
     18 O           2.7270    1.0716   31.9634 O.3     1  UNL1       -0.4535
     19 C           3.5082    0.6443   33.1705 C.ar    1  UNL1        0.1454
     20 C           3.9219   -0.7889   33.3275 C.ar    1  UNL1        0.0398
     21 C           4.7032   -1.2161   34.5347 C.ar    1  UNL1        0.0328
     22 C           5.0707   -0.2100   35.5848 C.ar    1  UNL1        0.1403
     23 F           5.8519   -0.6373   36.7919 F       1  UNL1       -0.2042
     24 C           4.6570    1.2232   35.4278 C.ar    1  UNL1        0.0328
     25 C           3.8758    1.6504   34.2207 C.ar    1  UNL1        0.0398
     26 C           3.5582   -2.4289   20.5029 C.3     1  UNL1        0.0281
     27 C           2.8943   -1.2569   19.8427 C.ar    1  UNL1       -0.0221
     28 C           3.6518   -0.4286   18.8476 C.ar    1  UNL1       -0.0043
     29 C           2.9879    0.7434   18.1874 C.ar    1  UNL1       -0.0003
     30 C           1.5668    1.0870   18.5224 C.ar    1  UNL1       -0.0000
     31 C           0.8094    0.2587   19.5176 C.ar    1  UNL1       -0.0003
     32 C           1.4732   -0.9132   20.1777 C.ar    1  UNL1       -0.0043
     33 C           7.4491   -4.1321   24.4252 C.3     1  UNL1        0.2138
     34 N           7.4330   -5.5142   25.0078 N.ar    1  UNL1       -0.2206
     35 C           8.0316   -6.7405   24.3852 C.ar    1  UNL1        0.1977
     36 N           7.7839   -7.8969   25.3079 N.ar    1  UNL1       -0.2007
     37 C           7.0322   -7.3852   26.5008 C.ar    1  UNL1        0.2210
     38 N           6.8153   -5.9126   26.3153 N.ar    1  UNL1       -0.1447
@<TRIPOS>BOND
     1     8     9    2
     2     9    10   am
     3    10    12    1
     4    12    13   ar
     5    13    14   ar
     6    14    15   ar
     7    15    18    1
     8    18    19    1
     9    19    20   ar
    10    20    21   ar
    11    21    22   ar
    12    22    23    1
    13    22    24   ar
    14    24    25   ar
    15    15    16   ar
    16    16    17   ar
    17     1     9    1
    18     1     2    1
    19     2     3    1
    20     3    26    1
    21    26    27    1
    22    27    28   ar
    23    28    29   ar
    24    29    30   ar
    25    30    31   ar
    26    31    32   ar
    27     3     4    1
    28     4     5    1
    29     5     6   am
    30     6     7    2
    31     6    33    1
    32    33    34    1
    33    34    35   ar
    34    35    36   ar
    35    36    37   ar
    36    37    38   ar
    37    17    12   ar
    38     5     1    1
    39    38    34   ar
    40    25    19   ar
    41    32    27   ar
    42    10    11    1
@<TRIPOS>MOLECULE
*****
 38 42 0 0 0
SMALL
GASTEIGER

@<TRIPOS>ATOM
      1 C           2.2734    1.5218   32.6326 C.3     1  UNL1        0.1522
      2 C           2.2938    2.4155   33.8372 C.3     1  UNL1        0.0313
      3 C           3.2519    1.8304   34.8322 C.3     1  UNL1        0.0264
      4 C           3.8235    0.5751   34.2424 C.3     1  UNL1        0.0942
      5 N           3.2187    0.3844   32.8831 N.am    1  UNL1       -0.2713
      6 C           3.5083   -0.7453   31.9398 C.2     1  UNL1        0.2509
      7 O           2.8235   -0.8035   30.6065 O.2     1  UNL1       -0.2727
      8 O          -0.0459    1.7205   31.4787 O.2     1  UNL1       -0.2730
      9 C           1.4517    1.7291   31.3949 C.2     1  UNL1        0.2442
     10 N           2.1277    1.9451   30.0734 N.am    1  UNL1       -0.2826
     11 H           3.1106    1.9507   30.0184 H       1  UNL1        0.1549
     12 C           1.3060    2.1524   28.8357 C.ar    1  UNL1        0.0505
     13 C           1.2368    3.5092   28.2000 C.ar    1  UNL1        0.0178
     14 C           0.4152    3.7165   26.9623 C.ar    1  UNL1        0.0388
     15 C          -0.3373    2.5670   26.3603 C.ar    1  UNL1        0.1454
     16 C          -0.2681    1.2102   26.9960 C.ar    1  UNL1        0.0388
     17 C           0.5535    1.0029   28.2337 C.ar    1  UNL1        0.0178
     18 O          -1.1589    2.7744   25.1225 O.3     1  UNL1       -0.4535
     19 C          -2.5417    3.3462   25.2273 C.ar    1  UNL1        0.1454
     20 C          -3.0882    3.7468   26.5655 C.ar    1  UNL1        0.0398
     21 C          -4.4710    4.3187   26.6703 C.ar    1  UNL1        0.0328
     22 C          -5.3072    4.4899   25.4368 C.ar    1  UNL1        0.1403
     23 F          -6.6899    5.0618   25.5416 F       1  UNL1       -0.2042
     24 C          -4.7607    4.0893   24.0986 C.ar    1  UNL1        0.0328
     25 C          -3.3779    3.5175   23.9938 C.ar    1  UNL1        0.0398
     26 C           3.5807    2.4005   36.1801 C.3     1  UNL1        0.0281
     27 C           2.6747    2.1383   37.3465 C.ar    1  UNL1       -0.0221
     28 C           2.7977    0.8581   38.1186 C.ar    1  UNL1       -0.0043
     29 C           1.8917    0.5959   39.2851 C.ar    1  UNL1       -0.0003
     30 C           0.8630    1.6139   39.6794 C.ar    1  UNL1       -0.0000
     31 C           0.7401    2.8941   38.9072 C.ar    1  UNL1       -0.0003
     32 C           1.6460    3.1562   37.7408 C.ar    1  UNL1       -0.0043
     33 C           4.4829   -1.8169   32.3297 C.3     1  UNL1        0.2138
     34 N           5.6540   -2.1240   31.4442 N.ar    1  UNL1       -0.2206
     35 C           6.5885   -3.2881   31.5905 C.ar    1  UNL1        0.1977
     36 N           7.6083   -3.2045   30.4936 N.ar    1  UNL1       -0.2007
     37 C           7.3039   -1.9888   29.6694 C.ar    1  UNL1        0.2210
     38 N           6.0960   -1.3210   30.2569 N.ar    1  UNL1       -0.1447
@<TRIPOS>BOND
     1     8     9    2
     2     9    10   am
     3    10    12    1
     4    12    13   ar
     5    13    14   ar
     6    14    15   ar
     7    15    18    1
     8    18    19    1
     9    19    20   ar
    10    20    21   ar
    11    21    22   ar
    12    22    23    1
    13    22    24   ar
    14    24    25   ar
    15    15    16   ar
    16    16    17   ar
    17     1     9    1
    18     1     2    1
    19     2     3    1
    20     3    26    1
    21    26    27    1
    22    27    28   ar
    23    28    29   ar
    24    29    30   ar
    25    30    31   ar
    26    31    32   ar
    27     3     4    1
    28     4     5    1
    29     5     6   am
    30     6     7    2
    31     6    33    1
    32    33    34    1
    33    34    35   ar
    34    35    36   ar
    35    36    37   ar
    36    37    38   ar
    37    17    12   ar
    38     5     1    1
    39    38    34   ar
    40    25    19   ar
    41    32    27   ar
    42    10    11    1
@<TRIPOS>MOLECULE
*****
 38 42 0 0 0
SMALL
GASTEIGER

@<TRIPOS>ATOM
      1 C           3.0117    1.5696   32.8934 C.3     1  UNL1        0.1522
      2 C           2.9792    2.4786   34.0862 C.3     1  UNL1        0.0313
      3 C           3.5851    1.7441   35.2453 C.3     1  UNL1        0.0264
      4 C           3.9920    0.3812   34.7689 C.3     1  UNL1        0.0942
      5 N           3.6376    0.2734   33.3153 N.am    1  UNL1       -0.2713
      6 C           3.8686   -0.9209   32.4377 C.2     1  UNL1        0.2509
      7 O           3.4595   -0.8821   30.9952 O.2     1  UNL1       -0.2727
      8 O           3.4680    2.3236   30.4494 O.2     1  UNL1       -0.2730
      9 C           2.5068    1.8990   31.5199 C.2     1  UNL1        0.2442
     10 N           1.0409    1.8039   31.2168 N.am    1  UNL1       -0.2826
     11 H           0.4100    1.5253   31.9194 H       1  UNL1        0.1549
     12 C           0.5360    2.1334   29.8432 C.ar    1  UNL1        0.0505
     13 C           0.7030    3.5197   29.2953 C.ar    1  UNL1        0.0178
     14 C           0.1982    3.8491   27.9218 C.ar    1  UNL1        0.0388
     15 C          -0.4737    2.7922   27.0962 C.ar    1  UNL1        0.1454
     16 C          -0.6407    1.4059   27.6441 C.ar    1  UNL1        0.0388
     17 C          -0.1359    1.0765   29.0176 C.ar    1  UNL1        0.0178
     18 O          -0.9785    3.1217   25.7226 O.3     1  UNL1       -0.4535
     19 C          -2.4234    3.4688   25.5179 C.ar    1  UNL1        0.1454
     20 C          -3.0379    3.3478   24.1549 C.ar    1  UNL1        0.0398
     21 C          -4.4828    3.6949   23.9502 C.ar    1  UNL1        0.0328
     22 C          -5.3131    4.1631   25.1084 C.ar    1  UNL1        0.1403
     23 F          -6.7579    4.5103   24.9037 F       1  UNL1       -0.2042
     24 C          -4.6985    4.2842   26.4714 C.ar    1  UNL1        0.0328
     25 C          -3.2537    3.9370   26.6761 C.ar    1  UNL1        0.0398
     26 C           3.7543    2.2787   36.6366 C.3     1  UNL1        0.0281
     27 C           2.6995    2.0225   37.6719 C.ar    1  UNL1       -0.0221
     28 C           1.6980    3.0893   38.0021 C.ar    1  UNL1       -0.0043
     29 C           0.6433    2.8331   39.0374 C.ar    1  UNL1       -0.0003
     30 C           0.5901    1.5103   39.7426 C.ar    1  UNL1       -0.0000
     31 C           1.5917    0.4435   39.4123 C.ar    1  UNL1       -0.0003
     32 C           2.6464    0.6997   38.3771 C.ar    1  UNL1       -0.0043
     33 C           4.5089   -2.1542   33.0027 C.3     1  UNL1        0.2138
     34 N           5.9354   -2.4779   32.6709 N.ar    1  UNL1       -0.2206
     35 C           7.1172   -1.5807   32.8906 C.ar    1  UNL1        0.1977
     36 N           8.3429   -2.3040   32.4166 N.ar    1  UNL1       -0.2007
     37 C           7.9185   -3.6483   31.9041 C.ar    1  UNL1        0.2210
     38 N           6.4307   -3.7559   32.0613 N.ar    1  UNL1       -0.1447
@<TRIPOS>BOND
     1     8     9    2
     2     9    10   am
     3    10    12    1
     4    12    13   ar
     5    13    14   ar
     6    14    15   ar
     7    15    18    1
     8    18    19    1
     9    19    20   ar
    10    20    21   ar
    11    21    22   ar
    12    22    23    1
    13    22    24   ar
    14    24    25   ar
    15    15    16   ar
    16    16    17   ar
    17     1     9    1
    18     1     2    1
    19     2     3    1
    20     3    26    1
    21    26    27    1
    22    27    28   ar
    23    28    29   ar
    24    29    30   ar
    25    30    31   ar
    26    31    32   ar
    27     3     4    1
    28     4     5    1
    29     5     6   am
    30     6     7    2
    31     6    33    1
    32    33    34    1
    33    34    35   ar
    34    35    36   ar
    35    36    37   ar
    36    37    38   ar
    37    17    12   ar
    38     5     1    1
    39    38    34   ar
    40    25    19   ar
    41    32    27   ar
    42    10    11    1
@<TRIPOS>MOLECULE
*****
 38 42 0 0 0
SMALL
GASTEIGER

@<TRIPOS>ATOM
      1 C           4.2577   -1.0779   24.6148 C.3     1  UNL1        0.1522
      2 C           5.1236   -1.5289   25.7535 C.3     1  UNL1        0.0313
      3 C           5.9046   -2.7252   25.2963 C.3     1  UNL1        0.0264
      4 C           5.5214   -3.0134   23.8750 C.3     1  UNL1        0.0942
      5 N           4.5035   -1.9953   23.4538 N.am    1  UNL1       -0.2713
      6 C           3.8468   -1.9096   22.1080 C.2     1  UNL1        0.2509
      7 O           2.8420   -0.8308   21.8310 O.2     1  UNL1       -0.2727
      8 O           3.8443    1.4832   24.7580 O.2     1  UNL1       -0.2730
      9 C           3.3119    0.0863   24.6338 C.2     1  UNL1        0.2442
     10 N           1.8338   -0.1463   24.5285 N.am    1  UNL1       -0.2826
     11 H           1.4844   -1.0631   24.4469 H       1  UNL1        0.1549
     12 C           0.8881    1.0179   24.5474 C.ar    1  UNL1        0.0505
     13 C           0.1449    1.3599   25.8046 C.ar    1  UNL1        0.0178
     14 C          -0.8008    2.5241   25.8235 C.ar    1  UNL1        0.0388
     15 C          -1.0033    3.3461   24.5853 C.ar    1  UNL1        0.1454
     16 C          -0.2601    3.0040   23.3281 C.ar    1  UNL1        0.0388
     17 C           0.6856    1.8399   23.3092 C.ar    1  UNL1        0.0178
     18 O          -1.9491    4.5103   24.6043 O.3     1  UNL1       -0.4535
     19 C          -3.3776    4.3229   24.1872 C.ar    1  UNL1        0.1454
     20 C          -3.6996    3.8859   22.7889 C.ar    1  UNL1        0.0398
     21 C          -5.1283    3.6985   22.3719 C.ar    1  UNL1        0.0328
     22 C          -6.2349    3.9482   23.3532 C.ar    1  UNL1        0.1403
     23 F          -7.6635    3.7608   22.9362 F       1  UNL1       -0.2042
     24 C          -5.9130    4.3852   24.7515 C.ar    1  UNL1        0.0328
     25 C          -4.4844    4.5726   25.1685 C.ar    1  UNL1        0.0398
     26 C           6.8950   -3.4976   26.1164 C.3     1  UNL1        0.0281
     27 C           7.2510   -4.9037   25.7340 C.ar    1  UNL1       -0.0221
     28 C           8.0527   -5.1632   24.4930 C.ar    1  UNL1       -0.0043
     29 C           8.4086   -6.5693   24.1106 C.ar    1  UNL1       -0.0003
     30 C           7.9629   -7.7157   24.9691 C.ar    1  UNL1       -0.0000
     31 C           7.1612   -7.4561   26.2101 C.ar    1  UNL1       -0.0003
     32 C           6.8053   -6.0501   26.5925 C.ar    1  UNL1       -0.0043
     33 C           4.1947   -2.9027   21.0390 C.3     1  UNL1        0.2138
     34 N           4.9330   -2.4562   19.8120 N.ar    1  UNL1       -0.2206
     35 C           5.3592   -3.3326   18.6717 C.ar    1  UNL1        0.1977
     36 N           6.0643   -2.4729   17.6648 N.ar    1  UNL1       -0.2007
     37 C           6.0737   -1.0653   18.1827 C.ar    1  UNL1        0.2210
     38 N           5.3745   -1.0549   19.5098 N.ar    1  UNL1       -0.1447
@<TRIPOS>BOND
     1     8     9    2
     2     9    10   am
     3    10    12    1
     4    12    13   ar
     5    13    14   ar
     6    14    15   ar
     7    15    18    1
     8    18    19    1
     9    19    20   ar
    10    20    21   ar
    11    21    22   ar
    12    22    23    1
    13    22    24   ar
    14    24    25   ar
    15    15    16   ar
    16    16    17   ar
    17     1     9    1
    18     1     2    1
    19     2     3    1
    20     3    26    1
    21    26    27    1
    22    27    28   ar
    23    28    29   ar
    24    29    30   ar
    25    30    31   ar
    26    31    32   ar
    27     3     4    1
    28     4     5    1
    29     5     6   am
    30     6     7    2
    31     6    33    1
    32    33    34    1
    33    34    35   ar
    34    35    36   ar
    35    36    37   ar
    36    37    38   ar
    37    17    12   ar
    38     5     1    1
    39    38    34   ar
    40    25    19   ar
    41    32    27   ar
    42    10    11    1
@<TRIPOS>MOLECULE
*****
 38 42 0 0 0
SMALL
GASTEIGER

@<TRIPOS>ATOM
      1 C          -1.3623    3.7474   23.1961 C.3     1  UNL1        0.1522
      2 C          -2.2663    4.8378   22.7024 C.3     1  UNL1        0.0313
      3 C          -3.1177    5.2898   23.8518 C.3     1  UNL1        0.0264
      4 C          -2.7397    4.4788   25.0557 C.3     1  UNL1        0.0942
      5 N          -1.6548    3.5255   24.6505 N.am    1  UNL1       -0.2713
      6 C          -0.9808    2.5259   25.5429 C.2     1  UNL1        0.2509
      7 O           0.0935    1.6346   24.9938 O.2     1  UNL1       -0.2727
      8 O           1.1183    3.1984   22.6524 O.2     1  UNL1       -0.2730
      9 C          -0.3443    3.0085   22.3788 C.2     1  UNL1        0.2442
     10 N          -0.7889    2.0800   21.2879 N.am    1  UNL1       -0.2826
     11 H          -1.7488    1.9554   21.1084 H       1  UNL1        0.1549
     12 C           0.2291    1.3411   20.4706 C.ar    1  UNL1        0.0505
     13 C           0.6493   -0.0427   20.8685 C.ar    1  UNL1        0.0178
     14 C           1.6672   -0.7814   20.0512 C.ar    1  UNL1        0.0388
     15 C           2.2649   -0.1364   18.8360 C.ar    1  UNL1        0.1454
     16 C           1.8446    1.2475   18.4381 C.ar    1  UNL1        0.0388
     17 C           0.8267    1.9862   19.2554 C.ar    1  UNL1        0.0178
     18 O           3.2829   -0.8752   18.0187 O.3     1  UNL1       -0.4535
     19 C           4.2658   -1.7873   18.6909 C.ar    1  UNL1        0.1454
     20 C           4.0189   -3.2666   18.7183 C.ar    1  UNL1        0.0398
     21 C           5.0019   -4.1787   19.3906 C.ar    1  UNL1        0.0328
     22 C           6.2317   -3.6115   20.0354 C.ar    1  UNL1        0.1403
     23 F           7.2146   -4.5236   20.7076 F       1  UNL1       -0.2042
     24 C           6.4786   -2.1322   20.0079 C.ar    1  UNL1        0.0328
     25 C           5.4957   -1.2201   19.3357 C.ar    1  UNL1        0.0398
     26 C          -4.1634    6.3642   23.8053 C.3     1  UNL1        0.0281
     27 C          -5.6122    6.0079   23.9600 C.ar    1  UNL1       -0.0221
     28 C          -6.1743    4.8214   23.2344 C.ar    1  UNL1       -0.0043
     29 C          -7.6231    4.4651   23.3890 C.ar    1  UNL1       -0.0003
     30 C          -8.5098    5.2952   24.2692 C.ar    1  UNL1       -0.0000
     31 C          -7.9477    6.4817   24.9947 C.ar    1  UNL1       -0.0003
     32 C          -6.4989    6.8380   24.8401 C.ar    1  UNL1       -0.0043
     33 C          -1.3810    2.4175   26.9844 C.3     1  UNL1        0.2138
     34 N          -0.7216    1.4037   27.8718 N.ar    1  UNL1       -0.2206
     35 C          -1.4217    0.3562   28.6857 C.ar    1  UNL1        0.1977
     36 N          -0.3791   -0.4355   29.4179 N.ar    1  UNL1       -0.2007
     37 C           0.9654    0.1228   29.0565 C.ar    1  UNL1        0.2210
     38 N           0.7538    1.2595   28.1010 N.ar    1  UNL1       -0.1447
@<TRIPOS>BOND
     1     8     9    2
     2     9    10   am
     3    10    12    1
     4    12    13   ar
     5    13    14   ar
     6    14    15   ar
     7    15    18    1
     8    18    19    1
     9    19    20   ar
    10    20    21   ar
    11    21    22   ar
    12    22    23    1
    13    22    24   ar
    14    24    25   ar
    15    15    16   ar
    16    16    17   ar
    17     1     9    1
    18     1     2    1
    19     2     3    1
    20     3    26    1
    21    26    27    1
    22    27    28   ar
    23    28    29   ar
    24    29    30   ar
    25    30    31   ar
    26    31    32   ar
    27     3     4    1
    28     4     5    1
    29     5     6   am
    30     6     7    2
    31     6    33    1
    32    33    34    1
    33    34    35   ar
    34    35    36   ar
    35    36    37   ar
    36    37    38   ar
    37    17    12   ar
    38     5     1    1
    39    38    34   ar
    40    25    19   ar
    41    32    27   ar
    42    10    11    1
@<TRIPOS>MOLECULE
*****
 38 42 0 0 0
SMALL
GASTEIGER

@<TRIPOS>ATOM
      1 C           5.7235   -1.6781   29.7859 C.3     1  UNL1        0.1522
      2 C           6.7964   -1.6453   30.8337 C.3     1  UNL1        0.0313
      3 C           6.2840   -0.8488   31.9970 C.3     1  UNL1        0.0264
      4 C           4.8944   -0.3895   31.6681 C.3     1  UNL1        0.0942
      5 N           4.5480   -0.9020   30.3016 N.am    1  UNL1       -0.2713
      6 C           3.2535   -0.6778   29.5779 C.2     1  UNL1        0.2509
      7 O           3.0499   -1.2554   28.2086 O.2     1  UNL1       -0.2727
      8 O           5.9137   -3.8613   28.3904 O.2     1  UNL1       -0.2730
      9 C           5.8108   -2.3663   28.4559 C.2     1  UNL1        0.2442
     10 N           5.7951   -1.5594   27.1915 N.am    1  UNL1       -0.2826
     11 H           5.7275   -0.5782   27.2346 H       1  UNL1        0.1549
     12 C           5.8824   -2.2476   25.8615 C.ar    1  UNL1        0.0505
     13 C           4.7823   -2.0784   24.8559 C.ar    1  UNL1        0.0178
     14 C           4.8697   -2.7666   23.5260 C.ar    1  UNL1        0.0388
     15 C           6.0570   -3.6239   23.2017 C.ar    1  UNL1        0.1454
     16 C           7.1571   -3.7930   24.2072 C.ar    1  UNL1        0.0388
     17 C           7.0698   -3.1049   25.5372 C.ar    1  UNL1        0.0178
     18 O           6.1443   -4.3121   21.8716 O.3     1  UNL1       -0.4535
     19 C           5.6341   -3.6278   20.6382 C.ar    1  UNL1        0.1454
     20 C           4.2443   -3.9055   20.1469 C.ar    1  UNL1        0.0398
     21 C           3.7341   -3.2212   18.9134 C.ar    1  UNL1        0.0328
     22 C           4.6136   -2.2591   18.1713 C.ar    1  UNL1        0.1403
     23 F           4.1034   -1.5749   16.9379 F       1  UNL1       -0.2042
     24 C           6.0034   -1.9814   18.6626 C.ar    1  UNL1        0.0328
     25 C           6.5137   -2.6657   19.8960 C.ar    1  UNL1        0.0398
     26 C           7.0302   -0.5621   33.2663 C.3     1  UNL1        0.0281
     27 C           6.3399    0.1351   34.4009 C.ar    1  UNL1       -0.0221
     28 C           6.4804    1.6194   34.5657 C.ar    1  UNL1       -0.0043
     29 C           5.7901    2.3166   35.7003 C.ar    1  UNL1       -0.0003
     30 C           4.9594    1.5296   36.6701 C.ar    1  UNL1       -0.0000
     31 C           4.8190    0.0452   36.5053 C.ar    1  UNL1       -0.0003
     32 C           5.5093   -0.6520   35.3707 C.ar    1  UNL1       -0.0043
     33 C           2.1624    0.1240   30.2234 C.3     1  UNL1        0.2138
     34 N           0.9134    0.4446   29.4571 N.ar    1  UNL1       -0.2206
     35 C           0.7511    1.5526   28.4592 C.ar    1  UNL1        0.1977
     36 N          -0.6553    1.5061   27.9396 N.ar    1  UNL1       -0.2007
     37 C          -1.3621    0.3693   28.6164 C.ar    1  UNL1        0.2210
     38 N          -0.3927   -0.2867   29.5543 N.ar    1  UNL1       -0.1447
@<TRIPOS>BOND
     1     8     9    2
     2     9    10   am
     3    10    12    1
     4    12    13   ar
     5    13    14   ar
     6    14    15   ar
     7    15    18    1
     8    18    19    1
     9    19    20   ar
    10    20    21   ar
    11    21    22   ar
    12    22    23    1
    13    22    24   ar
    14    24    25   ar
    15    15    16   ar
    16    16    17   ar
    17     1     9    1
    18     1     2    1
    19     2     3    1
    20     3    26    1
    21    26    27    1
    22    27    28   ar
    23    28    29   ar
    24    29    30   ar
    25    30    31   ar
    26    31    32   ar
    27     3     4    1
    28     4     5    1
    29     5     6   am
    30     6     7    2
    31     6    33    1
    32    33    34    1
    33    34    35   ar
    34    35    36   ar
    35    36    37   ar
    36    37    38   ar
    37    17    12   ar
    38     5     1    1
    39    38    34   ar
    40    25    19   ar
    41    32    27   ar
    42    10    11    1
@<TRIPOS>MOLECULE
*****
 38 42 0 0 0
SMALL
GASTEIGER

@<TRIPOS>ATOM
      1 C          -1.9142    3.6320   22.1617 C.3     1  UNL1        0.1522
      2 C          -2.3504    3.5710   23.5955 C.3     1  UNL1        0.0313
      3 C          -3.5860    4.4093   23.7402 C.3     1  UNL1        0.0264
      4 C          -3.9133    4.9882   22.3956 C.3     1  UNL1        0.0942
      5 N          -2.8801    4.5078   21.4201 N.am    1  UNL1       -0.2713
      6 C          -2.8227    4.8442   19.9594 C.2     1  UNL1        0.2509
      7 O          -1.7241    4.2865   19.1039 O.2     1  UNL1       -0.2727
      8 O           0.6624    3.3556   21.9744 O.2     1  UNL1       -0.2730
      9 C          -0.7214    2.9387   21.5728 C.2     1  UNL1        0.2442
     10 N          -0.9125    1.8286   20.5823 N.am    1  UNL1       -0.2826
     11 H          -1.8207    1.5550   20.3187 H       1  UNL1        0.1549
     12 C           0.2803    1.1353   19.9934 C.ar    1  UNL1        0.0505
     13 C           1.0104    1.7511   18.8368 C.ar    1  UNL1        0.0178
     14 C           2.2031    1.0578   18.2480 C.ar    1  UNL1        0.0388
     15 C           2.6657   -0.2513   18.8158 C.ar    1  UNL1        0.1454
     16 C           1.9356   -0.8671   19.9724 C.ar    1  UNL1        0.0388
     17 C           0.7429   -0.1738   20.5612 C.ar    1  UNL1        0.0178
     18 O           3.8585   -0.9446   18.2269 O.3     1  UNL1       -0.4535
     19 C           4.7119   -1.8293   19.0865 C.ar    1  UNL1        0.1454
     20 C           4.6098   -3.3206   18.9617 C.ar    1  UNL1        0.0398
     21 C           5.4632   -4.2053   19.8214 C.ar    1  UNL1        0.0328
     22 C           6.4187   -3.5987   20.8058 C.ar    1  UNL1        0.1403
     23 F           7.2721   -4.4834   21.6655 F       1  UNL1       -0.2042
     24 C           6.5208   -2.1074   20.9306 C.ar    1  UNL1        0.0328
     25 C           5.6674   -1.2227   20.0710 C.ar    1  UNL1        0.0398
     26 C          -4.3585    4.6298   25.0068 C.3     1  UNL1        0.0281
     27 C          -5.8087    5.0084   24.9446 C.ar    1  UNL1       -0.0221
     28 C          -6.3400    6.0908   25.8368 C.ar    1  UNL1       -0.0043
     29 C          -7.7902    6.4694   25.7746 C.ar    1  UNL1       -0.0003
     30 C          -8.7088    5.7655   24.8203 C.ar    1  UNL1       -0.0000
     31 C          -8.1773    4.6831   23.9282 C.ar    1  UNL1       -0.0003
     32 C          -6.7273    4.3045   23.9904 C.ar    1  UNL1       -0.0043
     33 C          -3.8641    5.7383   19.3542 C.3     1  UNL1        0.2138
     34 N          -5.2459    5.2140   19.0981 N.ar    1  UNL1       -0.2206
     35 C          -5.5919    3.8299   18.6349 C.ar    1  UNL1        0.1977
     36 N          -7.0842    3.7423   18.5107 N.ar    1  UNL1       -0.2007
     37 C          -7.6604    5.0722   18.8971 C.ar    1  UNL1        0.2210
     38 N          -6.5243    5.9818   19.2601 N.ar    1  UNL1       -0.1447
@<TRIPOS>BOND
     1     8     9    2
     2     9    10   am
     3    10    12    1
     4    12    13   ar
     5    13    14   ar
     6    14    15   ar
     7    15    18    1
     8    18    19    1
     9    19    20   ar
    10    20    21   ar
    11    21    22   ar
    12    22    23    1
    13    22    24   ar
    14    24    25   ar
    15    15    16   ar
    16    16    17   ar
    17     1     9    1
    18     1     2    1
    19     2     3    1
    20     3    26    1
    21    26    27    1
    22    27    28   ar
    23    28    29   ar
    24    29    30   ar
    25    30    31   ar
    26    31    32   ar
    27     3     4    1
    28     4     5    1
    29     5     6   am
    30     6     7    2
    31     6    33    1
    32    33    34    1
    33    34    35   ar
    34    35    36   ar
    35    36    37   ar
    36    37    38   ar
    37    17    12   ar
    38     5     1    1
    39    38    34   ar
    40    25    19   ar
    41    32    27   ar
    42    10    11    1
@<TRIPOS>MOLECULE
*****
 38 42 0 0 0
SMALL
GASTEIGER

@<TRIPOS>ATOM
      1 C           2.6606    1.3495   32.7962 C.3     1  UNL1        0.1522
      2 C           3.3852    0.0589   32.5526 C.3     1  UNL1        0.0313
      3 C           4.1962   -0.2551   33.7749 C.3     1  UNL1        0.0264
      4 C           3.9728    0.8415   34.7737 C.3     1  UNL1        0.0942
      5 N           3.0237    1.8332   34.1689 N.am    1  UNL1       -0.2713
      6 C           2.5253    3.0882   34.8219 C.2     1  UNL1        0.2509
      7 O           1.5738    3.9876   34.0900 O.2     1  UNL1       -0.2727
      8 O           0.3285    1.5435   31.6676 O.2     1  UNL1       -0.2730
      9 C           1.7353    2.0360   31.8356 C.2     1  UNL1        0.2442
     10 N           2.2169    3.2149   31.0430 N.am    1  UNL1       -0.2826
     11 H           3.1402    3.5381   31.1532 H       1  UNL1        0.1549
     12 C           1.2916    3.9013   30.0824 C.ar    1  UNL1        0.0505
     13 C           1.0557    3.3173   28.7211 C.ar    1  UNL1        0.0178
     14 C           0.1304    4.0037   27.7606 C.ar    1  UNL1        0.0388
     15 C          -0.5590    5.2742   28.1613 C.ar    1  UNL1        0.1454
     16 C          -0.3231    5.8582   29.5227 C.ar    1  UNL1        0.0388
     17 C           0.6022    5.1718   30.4832 C.ar    1  UNL1        0.0178
     18 O          -1.4843    5.9606   27.2007 O.3     1  UNL1       -0.4535
     19 C          -2.3649    5.1488   26.2977 C.ar    1  UNL1        0.1454
     20 C          -1.9082    4.8121   24.9092 C.ar    1  UNL1        0.0398
     21 C          -2.7889    4.0003   24.0062 C.ar    1  UNL1        0.0328
     22 C          -4.1262    3.5252   24.4917 C.ar    1  UNL1        0.1403
     23 F          -5.0069    2.7134   23.5888 F       1  UNL1       -0.2042
     24 C          -4.5829    3.8619   25.8803 C.ar    1  UNL1        0.0328
     25 C          -3.7023    4.6737   26.7833 C.ar    1  UNL1        0.0398
     26 C           5.0761   -1.4549   33.9649 C.3     1  UNL1        0.0281
     27 C           6.0265   -1.8674   32.8801 C.ar    1  UNL1       -0.0221
     28 C           6.9664   -0.8617   32.2843 C.ar    1  UNL1       -0.0043
     29 C           7.9168   -1.2742   31.1995 C.ar    1  UNL1       -0.0003
     30 C           7.9271   -2.6923   30.7107 C.ar    1  UNL1       -0.0000
     31 C           6.9871   -3.6979   31.3066 C.ar    1  UNL1       -0.0003
     32 C           6.0368   -3.2855   32.3913 C.ar    1  UNL1       -0.0043
     33 C           2.9784    3.4438   36.2070 C.3     1  UNL1        0.2138
     34 N           2.3375    2.7921   37.3963 N.ar    1  UNL1       -0.2206
     35 C           2.9032    1.6502   38.1874 C.ar    1  UNL1        0.1977
     36 N           1.9337    1.3203   39.2834 N.ar    1  UNL1       -0.2007
     37 C           0.7688    2.2583   39.1696 C.ar    1  UNL1        0.2210
     38 N           1.0183    3.1680   38.0033 N.ar    1  UNL1       -0.1447
@<TRIPOS>BOND
     1     8     9    2
     2     9    10   am
     3    10    12    1
     4    12    13   ar
     5    13    14   ar
     6    14    15   ar
     7    15    18    1
     8    18    19    1
     9    19    20   ar
    10    20    21   ar
    11    21    22   ar
    12    22    23    1
    13    22    24   ar
    14    24    25   ar
    15    15    16   ar
    16    16    17   ar
    17     1     9    1
    18     1     2    1
    19     2     3    1
    20     3    26    1
    21    26    27    1
    22    27    28   ar
    23    28    29   ar
    24    29    30   ar
    25    30    31   ar
    26    31    32   ar
    27     3     4    1
    28     4     5    1
    29     5     6   am
    30     6     7    2
    31     6    33    1
    32    33    34    1
    33    34    35   ar
    34    35    36   ar
    35    36    37   ar
    36    37    38   ar
    37    17    12   ar
    38     5     1    1
    39    38    34   ar
    40    25    19   ar
    41    32    27   ar
    42    10    11    1
