@<TRIPOS>MOLECULE
*****
 33 36 0 0 0
SMALL
GASTEIGER

@<TRIPOS>ATOM
      1 C          -9.5370  -18.1429   21.2538 C.ar    1  UNL1        0.0949
      2 C         -10.3972  -18.4418   20.0618 C.ar    1  UNL1        0.1454
      3 F         -11.7363  -17.7814   19.9188 F       1  UNL1       -0.2040
      4 C          -9.9182  -19.4013   19.0131 C.ar    1  UNL1        0.0312
      5 C          -8.5791  -20.0618   19.1561 C.ar    1  UNL1        0.0204
      6 C          -7.7189  -19.7628   20.3481 C.ar    1  UNL1        0.0924
      7 C          -8.1979  -18.8034   21.3968 C.ar    1  UNL1        0.1598
      8 F          -7.3377  -18.5043   22.5888 F       1  UNL1       -0.2026
      9 C         -10.0160  -17.1834   22.3027 C.2     1  UNL1        0.2007
     10 O         -11.4830  -17.0544   22.5872 O.2     1  UNL1       -0.2866
     11 C          -9.2981  -17.3414   25.6087 C.2     1  UNL1        0.1360
     12 C          -8.8056  -17.2125   27.0196 C.2     1  UNL1        0.0837
     13 C          -7.7541  -16.1973   27.3571 C.2     1  UNL1        0.2385
     14 N          -7.1953  -15.3110   26.2837 N.2     1  UNL1       -0.0338
     15 C          -7.6879  -15.4400   24.8728 C.2     1  UNL1        0.3626
     16 N          -7.3266  -14.7104   23.6130 N.2     1  UNL1       -0.0341
     17 C          -8.1547  -15.2747   22.4968 C.2     1  UNL1        0.2355
     18 C          -9.0278  -16.3530   23.0669 C.2     1  UNL1        0.0823
     19 C          -8.7393  -16.4552   24.5353 C.3     1  UNL1        0.1973
     20 C          -9.9501  -19.7483   24.8796 C.3     1  UNL1        0.2520
     21 O         -10.3496  -18.3566   25.2712 O.2     1  UNL1       -0.4746
     22 N          -6.3798  -20.4233   20.4911 N.pl3   1  UNL1       -0.2128
     23 H          -6.3052  -21.4031   20.4309 H       1  UNL1        0.1738
     24 S          -5.1542  -19.5909   20.7260 S.O2    1  UNL1        0.0737
     25 O          -4.9273  -20.2935   22.0317 O.2     1  UNL1       -0.1499
     26 O          -5.3812  -18.8883   19.4203 O.2     1  UNL1       -0.1499
     27 C          -3.9287  -18.7585   20.9608 C.ar    1  UNL1        0.1274
     28 C          -3.7190  -18.0898   22.2871 C.ar    1  UNL1        0.0203
     29 C          -2.4936  -17.2573   22.5220 C.ar    1  UNL1        0.0037
     30 C          -1.4777  -17.0935   21.4306 C.ar    1  UNL1        0.0297
     31 C          -1.6874  -17.7621   20.1043 C.ar    1  UNL1        0.1415
     32 F          -0.6715  -17.5983   19.0130 F       1  UNL1       -0.2041
     33 C          -2.9129  -18.5946   19.8694 C.ar    1  UNL1        0.0498
@<TRIPOS>BOND
     1    20    21    1
     2    21    11    1
     3    11    12    2
     4    12    13    1
     5    13    14    2
     6    14    15    1
     7    15    16    2
     8    16    17    1
     9    17    18    2
    10    18     9    1
    11     9    10    2
    12     9     1    1
    13     1     2   ar
    14     2     3    1
    15     2     4   ar
    16     4     5   ar
    17     5     6   ar
    18     6    22    1
    19    22    24    1
    20    24    25    2
    21    24    26    2
    22    24    27    1
    23    27    28   ar
    24    28    29   ar
    25    29    30   ar
    26    30    31   ar
    27    31    32    1
    28    31    33   ar
    29     6     7   ar
    30     7     8    1
    31    18    19    1
    32    19    11    1
    33    19    15    1
    34     7     1   ar
    35    33    27   ar
    36    22    23    1
@<TRIPOS>MOLECULE
*****
 33 36 0 0 0
SMALL
GASTEIGER

@<TRIPOS>ATOM
      1 C          -8.2168  -16.8170   25.2305 C.ar    1  UNL1        0.0949
      2 C          -8.1059  -16.4452   26.6795 C.ar    1  UNL1        0.1454
      3 F          -9.1568  -16.8935   27.6514 F       1  UNL1       -0.2040
      4 C          -6.9440  -15.6252   27.1564 C.ar    1  UNL1        0.0312
      5 C          -5.8931  -15.1770   26.1845 C.ar    1  UNL1        0.0204
      6 C          -6.0040  -15.5488   24.7356 C.ar    1  UNL1        0.0924
      7 C          -7.1659  -16.3688   24.2586 C.ar    1  UNL1        0.1598
      8 F          -7.2769  -16.7406   22.8096 F       1  UNL1       -0.2026
      9 C          -9.3788  -17.6371   24.7534 C.2     1  UNL1        0.2007
     10 O          -9.7392  -18.9097   25.4609 O.2     1  UNL1       -0.2866
     11 C          -9.5800  -19.1046   21.7077 C.2     1  UNL1        0.1360
     12 C          -9.8369  -19.5515   20.2991 C.2     1  UNL1        0.0837
     13 C         -10.7554  -18.7593   19.4166 C.2     1  UNL1        0.2385
     14 N         -11.4171  -17.5203   19.9428 N.2     1  UNL1       -0.0338
     15 C         -11.1602  -17.0734   21.3514 C.2     1  UNL1        0.3626
     16 N         -11.6664  -15.9028   22.1411 N.2     1  UNL1       -0.0341
     17 C         -11.0606  -15.9715   23.5117 C.2     1  UNL1        0.2355
     18 C         -10.1801  -17.1845   23.5690 C.2     1  UNL1        0.0823
     19 C         -10.2417  -17.8655   22.2339 C.3     1  UNL1        0.1973
     20 C          -7.2022  -19.9956   22.2574 C.3     1  UNL1        0.2520
     21 O          -8.6614  -19.8967   22.5902 O.2     1  UNL1       -0.4746
     22 N          -4.9531  -15.1005   23.7637 N.pl3   1  UNL1       -0.2128
     23 H          -4.8207  -14.1406   23.5899 H       1  UNL1        0.1738
     24 S          -4.1039  -16.1148   23.0566 S.O2    1  UNL1        0.0737
     25 O          -4.4969  -17.1496   24.0690 O.2     1  UNL1       -0.1499
     26 O          -3.7109  -15.0801   22.0442 O.2     1  UNL1       -0.1499
     27 C          -3.2547  -17.1291   22.3494 C.ar    1  UNL1        0.1274
     28 C          -3.5777  -18.5894   22.4653 C.ar    1  UNL1        0.0203
     29 C          -2.7285  -19.6037   21.7581 C.ar    1  UNL1        0.0037
     30 C          -1.5564  -19.1579   20.9352 C.ar    1  UNL1        0.0297
     31 C          -1.2335  -17.6976   20.8193 C.ar    1  UNL1        0.1415
     32 F          -0.0614  -17.2517   19.9964 F       1  UNL1       -0.2041
     33 C          -2.0826  -16.6832   21.5265 C.ar    1  UNL1        0.0498
@<TRIPOS>BOND
     1    20    21    1
     2    21    11    1
     3    11    12    2
     4    12    13    1
     5    13    14    2
     6    14    15    1
     7    15    16    2
     8    16    17    1
     9    17    18    2
    10    18     9    1
    11     9    10    2
    12     9     1    1
    13     1     2   ar
    14     2     3    1
    15     2     4   ar
    16     4     5   ar
    17     5     6   ar
    18     6    22    1
    19    22    24    1
    20    24    25    2
    21    24    26    2
    22    24    27    1
    23    27    28   ar
    24    28    29   ar
    25    29    30   ar
    26    30    31   ar
    27    31    32    1
    28    31    33   ar
    29     6     7   ar
    30     7     8    1
    31    18    19    1
    32    19    11    1
    33    19    15    1
    34     7     1   ar
    35    33    27   ar
    36    22    23    1
@<TRIPOS>MOLECULE
*****
 33 36 0 0 0
SMALL
GASTEIGER

@<TRIPOS>ATOM
      1 C          -8.0204  -15.9335   24.9869 C.ar    1  UNL1        0.0949
      2 C          -7.7210  -15.8900   26.4561 C.ar    1  UNL1        0.1454
      3 F          -8.8142  -16.1415   27.4520 F       1  UNL1       -0.2040
      4 C          -6.3286  -15.5951   26.9293 C.ar    1  UNL1        0.0312
      5 C          -5.2354  -15.3436   25.9334 C.ar    1  UNL1        0.0204
      6 C          -5.5347  -15.3870   24.4642 C.ar    1  UNL1        0.0924
      7 C          -6.9272  -15.6820   23.9910 C.ar    1  UNL1        0.1598
      8 F          -7.2266  -15.7254   22.5218 F       1  UNL1       -0.2026
      9 C          -9.4129  -16.2284   24.5136 C.2     1  UNL1        0.2007
     10 O         -10.3890  -15.1078   24.3103 O.2     1  UNL1       -0.2866
     11 C         -10.2184  -17.6158   21.5308 C.2     1  UNL1        0.1360
     12 C         -10.6143  -18.4558   20.3529 C.2     1  UNL1        0.0837
     13 C         -10.9703  -19.8999   20.5474 C.2     1  UNL1        0.2385
     14 N         -10.9303  -20.5040   21.9198 N.2     1  UNL1       -0.0338
     15 C         -10.5344  -19.6639   23.0977 C.2     1  UNL1        0.3626
     16 N         -10.4051  -19.9806   24.5582 N.2     1  UNL1       -0.0341
     17 C          -9.9692  -18.7322   25.2664 C.2     1  UNL1        0.2355
     18 C          -9.8292  -17.6440   24.2435 C.2     1  UNL1        0.0823
     19 C         -10.1785  -18.2198   22.9032 C.3     1  UNL1        0.1973
     20 C         -10.6307  -15.3352   20.3565 C.3     1  UNL1        0.2520
     21 O          -9.8625  -16.1716   21.3364 O.2     1  UNL1       -0.4746
     22 N          -4.4416  -15.1355   23.4684 N.pl3   1  UNL1       -0.2128
     23 H          -4.1560  -14.2138   23.2732 H       1  UNL1        0.1738
     24 S          -3.7836  -16.2884   22.7699 S.O2    1  UNL1        0.0737
     25 O          -4.5659  -17.2480   23.6168 O.2     1  UNL1       -0.1499
     26 O          -3.0013  -15.3288   21.9230 O.2     1  UNL1       -0.1499
     27 C          -3.1255  -17.4412   22.0714 C.ar    1  UNL1        0.1274
     28 C          -3.6064  -18.8406   22.3173 C.ar    1  UNL1        0.0203
     29 C          -2.9484  -19.9934   21.6188 C.ar    1  UNL1        0.0037
     30 C          -1.8094  -19.7469   20.6744 C.ar    1  UNL1        0.0297
     31 C          -1.3285  -18.3475   20.4285 C.ar    1  UNL1        0.1415
     32 F          -0.1896  -18.1010   19.4840 F       1  UNL1       -0.2041
     33 C          -1.9865  -17.1947   21.1270 C.ar    1  UNL1        0.0498
@<TRIPOS>BOND
     1    20    21    1
     2    21    11    1
     3    11    12    2
     4    12    13    1
     5    13    14    2
     6    14    15    1
     7    15    16    2
     8    16    17    1
     9    17    18    2
    10    18     9    1
    11     9    10    2
    12     9     1    1
    13     1     2   ar
    14     2     3    1
    15     2     4   ar
    16     4     5   ar
    17     5     6   ar
    18     6    22    1
    19    22    24    1
    20    24    25    2
    21    24    26    2
    22    24    27    1
    23    27    28   ar
    24    28    29   ar
    25    29    30   ar
    26    30    31   ar
    27    31    32    1
    28    31    33   ar
    29     6     7   ar
    30     7     8    1
    31    18    19    1
    32    19    11    1
    33    19    15    1
    34     7     1   ar
    35    33    27   ar
    36    22    23    1
@<TRIPOS>MOLECULE
*****
 33 36 0 0 0
SMALL
GASTEIGER

@<TRIPOS>ATOM
      1 C          -9.7374  -19.1257   21.4640 C.ar    1  UNL1        0.0949
      2 C         -10.2342  -18.9802   20.0562 C.ar    1  UNL1        0.1454
      3 F         -11.5998  -18.4164   19.7973 F       1  UNL1       -0.2040
      4 C          -9.3653  -19.3985   18.9073 C.ar    1  UNL1        0.0312
      5 C          -7.9996  -19.9623   19.1662 C.ar    1  UNL1        0.0204
      6 C          -7.5028  -20.1079   20.5740 C.ar    1  UNL1        0.0924
      7 C          -8.3717  -19.6896   21.7229 C.ar    1  UNL1        0.1598
      8 F          -7.8750  -19.8351   23.1308 F       1  UNL1       -0.2026
      9 C         -10.6063  -18.7074   22.6130 C.2     1  UNL1        0.2007
     10 O         -12.0993  -18.7841   22.4909 O.2     1  UNL1       -0.2866
     11 C          -8.5438  -16.0502   23.0079 C.2     1  UNL1        0.1360
     12 C          -7.6303  -14.9432   23.4437 C.2     1  UNL1        0.0837
     13 C          -7.2443  -14.8138   24.8874 C.2     1  UNL1        0.2385
     14 N          -7.7719  -15.7913   25.8953 N.2     1  UNL1       -0.0338
     15 C          -8.6855  -16.8983   25.4596 C.2     1  UNL1        0.3626
     16 N          -9.3576  -18.0029   26.2199 N.2     1  UNL1       -0.0341
     17 C         -10.1589  -18.8151   25.2461 C.2     1  UNL1        0.2355
     18 C          -9.9821  -18.2124   23.8840 C.2     1  UNL1        0.0823
     19 C          -9.0714  -17.0278   24.0159 C.3     1  UNL1        0.1973
     20 C         -10.1852  -15.5301   21.0624 C.3     1  UNL1        0.2520
     21 O          -8.9298  -16.1797   21.5642 O.2     1  UNL1       -0.4746
     22 N          -6.1371  -20.6717   20.8329 N.pl3   1  UNL1       -0.2128
     23 H          -6.0375  -21.6080   21.1204 H       1  UNL1        0.1738
     24 S          -4.9232  -19.8090   20.6537 S.O2    1  UNL1        0.0737
     25 O          -4.2504  -20.9135   19.8938 O.2     1  UNL1       -0.1499
     26 O          -5.5960  -18.7045   21.4136 O.2     1  UNL1       -0.1499
     27 C          -3.7094  -18.9462   20.4746 C.ar    1  UNL1        0.1274
     28 C          -3.0700  -18.2947   21.6648 C.ar    1  UNL1        0.0203
     29 C          -1.8561  -17.4319   21.4858 C.ar    1  UNL1        0.0037
     30 C          -1.2816  -17.2205   20.1164 C.ar    1  UNL1        0.0297
     31 C          -1.9210  -17.8721   18.9261 C.ar    1  UNL1        0.1415
     32 F          -1.3464  -17.6607   17.5567 F       1  UNL1       -0.2041
     33 C          -3.1348  -18.7349   19.1052 C.ar    1  UNL1        0.0498
@<TRIPOS>BOND
     1    20    21    1
     2    21    11    1
     3    11    12    2
     4    12    13    1
     5    13    14    2
     6    14    15    1
     7    15    16    2
     8    16    17    1
     9    17    18    2
    10    18     9    1
    11     9    10    2
    12     9     1    1
    13     1     2   ar
    14     2     3    1
    15     2     4   ar
    16     4     5   ar
    17     5     6   ar
    18     6    22    1
    19    22    24    1
    20    24    25    2
    21    24    26    2
    22    24    27    1
    23    27    28   ar
    24    28    29   ar
    25    29    30   ar
    26    30    31   ar
    27    31    32    1
    28    31    33   ar
    29     6     7   ar
    30     7     8    1
    31    18    19    1
    32    19    11    1
    33    19    15    1
    34     7     1   ar
    35    33    27   ar
    36    22    23    1
@<TRIPOS>MOLECULE
*****
 33 36 0 0 0
SMALL
GASTEIGER

@<TRIPOS>ATOM
      1 C          -7.3046  -17.1246   23.1475 C.ar    1  UNL1        0.0949
      2 C          -7.6106  -15.8862   23.9366 C.ar    1  UNL1        0.1454
      3 F          -9.0257  -15.4030   24.0551 F       1  UNL1       -0.2040
      4 C          -6.5016  -15.1310   24.6071 C.ar    1  UNL1        0.0312
      5 C          -5.0865  -15.6143   24.4885 C.ar    1  UNL1        0.0204
      6 C          -4.7805  -16.8527   23.6995 C.ar    1  UNL1        0.0924
      7 C          -5.8895  -17.6078   23.0290 C.ar    1  UNL1        0.1598
      8 F          -5.5836  -18.8463   22.2398 F       1  UNL1       -0.2026
      9 C          -8.4137  -17.8799   22.4769 C.2     1  UNL1        0.2007
     10 O          -8.4528  -17.9838   20.9811 O.2     1  UNL1       -0.2866
     11 C         -11.6828  -17.0185   22.6804 C.2     1  UNL1        0.1360
     12 C         -13.1491  -16.8436   22.9435 C.2     1  UNL1        0.0837
     13 C         -13.8567  -17.7672   23.8902 C.2     1  UNL1        0.2385
     14 N         -13.0980  -18.8658   24.5737 N.2     1  UNL1       -0.0338
     15 C         -11.6317  -19.0408   24.3106 C.2     1  UNL1        0.3626
     16 N         -10.6285  -20.0256   24.8340 N.2     1  UNL1       -0.0341
     17 C          -9.3010  -19.7106   24.2108 C.2     1  UNL1        0.2355
     18 C          -9.4837  -18.5311   23.3023 C.2     1  UNL1        0.0823
     19 C         -10.9241  -18.1172   23.3639 C.3     1  UNL1        0.1973
     20 C         -11.3708  -16.0563   20.2873 C.3     1  UNL1        0.2520
     21 O         -10.9752  -16.0949   21.7337 O.2     1  UNL1       -0.4746
     22 N          -3.3654  -17.3359   23.5809 N.pl3   1  UNL1       -0.2128
     23 H          -2.8568  -17.5730   24.3899 H       1  UNL1        0.1738
     24 S          -2.7252  -17.4579   22.2299 S.O2    1  UNL1        0.0737
     25 O          -2.6155  -18.9423   22.4159 O.2     1  UNL1       -0.1499
     26 O          -2.8350  -15.9736   22.0439 O.2     1  UNL1       -0.1499
     27 C          -2.0851  -17.5798   20.8789 C.ar    1  UNL1        0.1274
     28 C          -0.7114  -18.1686   20.7502 C.ar    1  UNL1        0.0203
     29 C          -0.0712  -18.2905   19.3992 C.ar    1  UNL1        0.0037
     30 C          -0.8046  -17.8237   18.1768 C.ar    1  UNL1        0.0297
     31 C          -2.1783  -17.2349   18.3055 C.ar    1  UNL1        0.1415
     32 F          -2.9116  -16.7681   17.0832 F       1  UNL1       -0.2041
     33 C          -2.8185  -17.1130   19.6565 C.ar    1  UNL1        0.0498
@<TRIPOS>BOND
     1    20    21    1
     2    21    11    1
     3    11    12    2
     4    12    13    1
     5    13    14    2
     6    14    15    1
     7    15    16    2
     8    16    17    1
     9    17    18    2
    10    18     9    1
    11     9    10    2
    12     9     1    1
    13     1     2   ar
    14     2     3    1
    15     2     4   ar
    16     4     5   ar
    17     5     6   ar
    18     6    22    1
    19    22    24    1
    20    24    25    2
    21    24    26    2
    22    24    27    1
    23    27    28   ar
    24    28    29   ar
    25    29    30   ar
    26    30    31   ar
    27    31    32    1
    28    31    33   ar
    29     6     7   ar
    30     7     8    1
    31    18    19    1
    32    19    11    1
    33    19    15    1
    34     7     1   ar
    35    33    27   ar
    36    22    23    1
@<TRIPOS>MOLECULE
*****
 33 36 0 0 0
SMALL
GASTEIGER

@<TRIPOS>ATOM
      1 C          -7.8034  -17.4093   22.9036 C.ar    1  UNL1        0.0949
      2 C          -8.3797  -16.1104   23.3840 C.ar    1  UNL1        0.1454
      3 F          -9.8541  -15.8575   23.2734 F       1  UNL1       -0.2040
      4 C          -7.4816  -15.0643   23.9748 C.ar    1  UNL1        0.0312
      5 C          -6.0072  -15.3172   24.0854 C.ar    1  UNL1        0.0204
      6 C          -5.4309  -16.6161   23.6050 C.ar    1  UNL1        0.0924
      7 C          -6.3290  -17.6621   23.0142 C.ar    1  UNL1        0.1598
      8 F          -5.7527  -18.9610   22.5338 F       1  UNL1       -0.2026
      9 C          -8.7015  -18.4554   22.3127 C.2     1  UNL1        0.2007
     10 O          -8.1916  -19.8504   22.1037 O.2     1  UNL1       -0.2866
     11 C         -11.4811  -18.6693   24.2359 C.2     1  UNL1        0.1360
     12 C         -12.8407  -18.6703   24.8694 C.2     1  UNL1        0.0837
     13 C         -14.0351  -18.2181   24.0827 C.2     1  UNL1        0.2385
     14 N         -13.8699  -17.7649   22.6624 N.2     1  UNL1       -0.0338
     15 C         -12.5102  -17.7638   22.0288 C.2     1  UNL1        0.3626
     16 N         -12.0420  -17.3747   20.6579 N.2     1  UNL1       -0.0341
     17 C         -10.5583  -17.5864   20.5974 C.2     1  UNL1        0.2355
     18 C         -10.1095  -18.1064   21.9309 C.2     1  UNL1        0.0823
     19 C         -11.3159  -18.2160   22.8156 C.3     1  UNL1        0.1973
     20 C          -9.5762  -18.1588   25.9273 C.3     1  UNL1        0.2520
     21 O         -10.2867  -19.1215   25.0226 O.2     1  UNL1       -0.4746
     22 N          -3.9565  -16.8689   23.7156 N.pl3   1  UNL1       -0.2128
     23 H          -3.5180  -16.8473   24.5968 H       1  UNL1        0.1738
     24 S          -3.1501  -17.1546   22.4835 S.O2    1  UNL1        0.0737
     25 O          -3.1988  -15.7015   22.1146 O.2     1  UNL1       -0.1499
     26 O          -3.1014  -18.6077   22.8523 O.2     1  UNL1       -0.1499
     27 C          -2.3437  -17.4404   21.2514 C.ar    1  UNL1        0.1274
     28 C          -2.9845  -18.1169   20.0759 C.ar    1  UNL1        0.0203
     29 C          -2.1782  -18.4028   18.8437 C.ar    1  UNL1        0.0037
     30 C          -0.7310  -18.0121   18.7871 C.ar    1  UNL1        0.0297
     31 C          -0.0903  -17.3355   19.9626 C.ar    1  UNL1        0.1415
     32 F           1.3568  -16.9449   19.9059 F       1  UNL1       -0.2041
     33 C          -0.8966  -17.0497   21.1947 C.ar    1  UNL1        0.0498
@<TRIPOS>BOND
     1    20    21    1
     2    21    11    1
     3    11    12    2
     4    12    13    1
     5    13    14    2
     6    14    15    1
     7    15    16    2
     8    16    17    1
     9    17    18    2
    10    18     9    1
    11     9    10    2
    12     9     1    1
    13     1     2   ar
    14     2     3    1
    15     2     4   ar
    16     4     5   ar
    17     5     6   ar
    18     6    22    1
    19    22    24    1
    20    24    25    2
    21    24    26    2
    22    24    27    1
    23    27    28   ar
    24    28    29   ar
    25    29    30   ar
    26    30    31   ar
    27    31    32    1
    28    31    33   ar
    29     6     7   ar
    30     7     8    1
    31    18    19    1
    32    19    11    1
    33    19    15    1
    34     7     1   ar
    35    33    27   ar
    36    22    23    1
@<TRIPOS>MOLECULE
*****
 33 36 0 0 0
SMALL
GASTEIGER

@<TRIPOS>ATOM
      1 C         -12.2165   -5.2094   18.9066 C.ar    1  UNL1        0.0949
      2 C         -10.7939   -5.6847   18.9202 C.ar    1  UNL1        0.1454
      3 F          -9.7343   -4.8609   19.5901 F       1  UNL1       -0.2040
      4 C         -10.4309   -6.9837   18.2640 C.ar    1  UNL1        0.0312
      5 C         -11.4904   -7.8075   17.5941 C.ar    1  UNL1        0.0204
      6 C         -12.9131   -7.3322   17.5804 C.ar    1  UNL1        0.0924
      7 C         -13.2761   -6.0332   18.2367 C.ar    1  UNL1        0.1598
      8 F         -14.6988   -5.5578   18.2230 F       1  UNL1       -0.2026
      9 C         -12.5797   -3.9103   19.5628 C.2     1  UNL1        0.2007
     10 O         -13.2682   -3.9100   20.8954 O.2     1  UNL1       -0.2866
     11 C         -14.6237   -1.2506   19.0960 C.2     1  UNL1        0.1360
     12 C         -15.3153    0.0394   18.7681 C.2     1  UNL1        0.0837
     13 C         -14.5747    1.1245   18.0441 C.2     1  UNL1        0.2385
     14 N         -13.1425    0.9196   17.6482 N.2     1  UNL1       -0.0338
     15 C         -12.4509   -0.3704   17.9761 C.2     1  UNL1        0.3626
     16 N         -11.0559   -0.8559   17.7151 N.2     1  UNL1       -0.0341
     17 C         -10.9343   -2.2411   18.2777 C.2     1  UNL1        0.2355
     18 C         -12.2542   -2.6116   18.8865 C.2     1  UNL1        0.0823
     19 C         -13.1915   -1.4555   18.7001 C.3     1  UNL1        0.1973
     20 C         -16.5980   -2.9353   19.2131 C.3     1  UNL1        0.2520
     21 O         -15.3643   -2.3356   19.8200 O.2     1  UNL1       -0.4746
     22 N         -13.9726   -8.1560   16.9105 N.pl3   1  UNL1       -0.2128
     23 H         -13.8155   -8.5223   16.0103 H       1  UNL1        0.1738
     24 S         -15.2715   -8.4215   17.6122 S.O2    1  UNL1        0.0737
     25 O         -15.9994   -7.6359   16.5620 O.2     1  UNL1       -0.1499
     26 O         -14.5436   -9.2071   18.6624 O.2     1  UNL1       -0.1499
     27 C         -16.5703   -8.6871   18.3139 C.ar    1  UNL1        0.1274
     28 C         -16.9024   -7.9542   19.5799 C.ar    1  UNL1        0.0203
     29 C         -18.2012   -8.2198   20.2816 C.ar    1  UNL1        0.0037
     30 C         -19.1681   -9.2182   19.7175 C.ar    1  UNL1        0.0297
     31 C         -18.8360   -9.9511   18.4515 C.ar    1  UNL1        0.1415
     32 F         -19.8028  -10.9496   17.8873 F       1  UNL1       -0.2041
     33 C         -17.5372   -9.6856   17.7497 C.ar    1  UNL1        0.0498
@<TRIPOS>BOND
     1    20    21    1
     2    21    11    1
     3    11    12    2
     4    12    13    1
     5    13    14    2
     6    14    15    1
     7    15    16    2
     8    16    17    1
     9    17    18    2
    10    18     9    1
    11     9    10    2
    12     9     1    1
    13     1     2   ar
    14     2     3    1
    15     2     4   ar
    16     4     5   ar
    17     5     6   ar
    18     6    22    1
    19    22    24    1
    20    24    25    2
    21    24    26    2
    22    24    27    1
    23    27    28   ar
    24    28    29   ar
    25    29    30   ar
    26    30    31   ar
    27    31    32    1
    28    31    33   ar
    29     6     7   ar
    30     7     8    1
    31    18    19    1
    32    19    11    1
    33    19    15    1
    34     7     1   ar
    35    33    27   ar
    36    22    23    1
@<TRIPOS>MOLECULE
*****
 33 36 0 0 0
SMALL
GASTEIGER

@<TRIPOS>ATOM
      1 C          -6.6535  -16.5737   23.5884 C.ar    1  UNL1        0.0949
      2 C          -5.4662  -15.8953   24.2050 C.ar    1  UNL1        0.1454
      3 F          -5.6544  -14.6554   25.0278 F       1  UNL1       -0.2040
      4 C          -4.0907  -16.4570   23.9987 C.ar    1  UNL1        0.0312
      5 C          -3.9025  -17.6970   23.1759 C.ar    1  UNL1        0.0204
      6 C          -5.0898  -18.3753   22.5593 C.ar    1  UNL1        0.0924
      7 C          -6.4653  -17.8137   22.7656 C.ar    1  UNL1        0.1598
      8 F          -7.6526  -18.4920   22.1490 F       1  UNL1       -0.2026
      9 C          -8.0291  -16.0121   23.7947 C.2     1  UNL1        0.2007
     10 O          -8.4694  -15.5910   25.1653 O.2     1  UNL1       -0.2866
     11 C         -10.9554  -17.6382   23.2823 C.2     1  UNL1        0.1360
     12 C         -12.2628  -18.2152   22.8267 C.2     1  UNL1        0.0837
     13 C         -12.8693  -17.7669   21.5300 C.2     1  UNL1        0.2385
     14 N         -12.1683  -16.7416   20.6890 N.2     1  UNL1       -0.0338
     15 C         -10.8609  -16.1646   21.1446 C.2     1  UNL1        0.3626
     16 N          -9.9454  -15.1462   20.5323 N.2     1  UNL1       -0.0341
     17 C          -8.7732  -14.9651   21.4505 C.2     1  UNL1        0.2355
     18 C          -8.9642  -15.8716   22.6303 C.2     1  UNL1        0.0823
     19 C         -10.2544  -16.6129   22.4413 C.3     1  UNL1        0.1973
     20 C         -10.1747  -19.5497   24.8591 C.3     1  UNL1        0.2520
     21 O         -10.3489  -18.0865   24.5789 O.2     1  UNL1       -0.4746
     22 N          -4.9016  -19.6153   21.7365 N.pl3   1  UNL1       -0.2128
     23 H          -4.0756  -20.1438   21.8245 H       1  UNL1        0.1738
     24 S          -5.9717  -20.0500   20.7795 S.O2    1  UNL1        0.0737
     25 O          -6.3628  -21.1530   21.7179 O.2     1  UNL1       -0.1499
     26 O          -5.5807  -18.9470   19.8412 O.2     1  UNL1       -0.1499
     27 C          -7.0419  -20.4846   19.8226 C.ar    1  UNL1        0.1274
     28 C          -6.8402  -21.7067   18.9764 C.ar    1  UNL1        0.0203
     29 C          -7.9103  -22.1414   18.0194 C.ar    1  UNL1        0.0037
     30 C          -9.1822  -21.3540   17.9084 C.ar    1  UNL1        0.0297
     31 C          -9.3839  -20.1319   18.7546 C.ar    1  UNL1        0.1415
     32 F         -10.6557  -19.3445   18.6436 F       1  UNL1       -0.2041
     33 C          -8.3138  -19.6972   19.7116 C.ar    1  UNL1        0.0498
@<TRIPOS>BOND
     1    20    21    1
     2    21    11    1
     3    11    12    2
     4    12    13    1
     5    13    14    2
     6    14    15    1
     7    15    16    2
     8    16    17    1
     9    17    18    2
    10    18     9    1
    11     9    10    2
    12     9     1    1
    13     1     2   ar
    14     2     3    1
    15     2     4   ar
    16     4     5   ar
    17     5     6   ar
    18     6    22    1
    19    22    24    1
    20    24    25    2
    21    24    26    2
    22    24    27    1
    23    27    28   ar
    24    28    29   ar
    25    29    30   ar
    26    30    31   ar
    27    31    32    1
    28    31    33   ar
    29     6     7   ar
    30     7     8    1
    31    18    19    1
    32    19    11    1
    33    19    15    1
    34     7     1   ar
    35    33    27   ar
    36    22    23    1
@<TRIPOS>MOLECULE
*****
 33 36 0 0 0
SMALL
GASTEIGER

@<TRIPOS>ATOM
      1 C          -6.7512  -19.1111   21.6015 C.ar    1  UNL1        0.0949
      2 C          -5.6691  -20.0063   21.0744 C.ar    1  UNL1        0.1454
      3 F          -6.0259  -21.2186   20.2664 F       1  UNL1       -0.2040
      4 C          -4.2303  -19.6890   21.3554 C.ar    1  UNL1        0.0312
      5 C          -3.8735  -18.4767   22.1635 C.ar    1  UNL1        0.0204
      6 C          -4.9556  -17.5815   22.6905 C.ar    1  UNL1        0.0924
      7 C          -6.3944  -17.8988   22.4095 C.ar    1  UNL1        0.1598
      8 F          -7.4766  -17.0037   22.9366 F       1  UNL1       -0.2026
      9 C          -8.1902  -19.4284   21.3205 C.2     1  UNL1        0.2007
     10 O          -8.6571  -19.6035   19.9059 O.2     1  UNL1       -0.2866
     11 C         -11.0851  -17.7344   21.7895 C.2     1  UNL1        0.1360
     12 C         -12.3891  -17.1323   22.2219 C.2     1  UNL1        0.0837
     13 C         -13.0448  -17.5942   23.4894 C.2     1  UNL1        0.2385
     14 N         -12.3965  -18.6581   24.3246 N.2     1  UNL1       -0.0338
     15 C         -11.0924  -19.2602   23.8923 C.2     1  UNL1        0.3626
     16 N         -10.2230  -20.3178   24.5051 N.2     1  UNL1       -0.0341
     17 C          -9.0299  -20.5095   23.6164 C.2     1  UNL1        0.2355
     18 C          -9.1621  -19.5704   22.4542 C.2     1  UNL1        0.0823
     19 C         -10.4368  -18.7983   22.6247 C.3     1  UNL1        0.1973
     20 C         -11.0919  -16.2291   19.6719 C.3     1  UNL1        0.2520
     21 O         -10.4294  -17.2725   20.5219 O.2     1  UNL1       -0.4746
     22 N          -4.5988  -16.3692   23.4986 N.pl3   1  UNL1       -0.2128
     23 H          -3.7856  -15.8571   23.2849 H       1  UNL1        0.1738
     24 S          -5.4810  -15.9372   24.6321 S.O2    1  UNL1        0.0737
     25 O          -6.0363  -14.8348   23.7799 O.2     1  UNL1       -0.1499
     26 O          -4.9257  -17.0395   25.4844 O.2     1  UNL1       -0.1499
     27 C          -6.3632  -15.5052   25.7658 C.ar    1  UNL1        0.1274
     28 C          -7.7368  -16.0901   25.9121 C.ar    1  UNL1        0.0203
     29 C          -8.6190  -15.6582   27.0457 C.ar    1  UNL1        0.0037
     30 C          -8.1278  -14.6414   28.0330 C.ar    1  UNL1        0.0297
     31 C          -6.7543  -14.0566   27.8867 C.ar    1  UNL1        0.1415
     32 F          -6.2630  -13.0397   28.8740 F       1  UNL1       -0.2041
     33 C          -5.8720  -14.4884   26.7531 C.ar    1  UNL1        0.0498
@<TRIPOS>BOND
     1    20    21    1
     2    21    11    1
     3    11    12    2
     4    12    13    1
     5    13    14    2
     6    14    15    1
     7    15    16    2
     8    16    17    1
     9    17    18    2
    10    18     9    1
    11     9    10    2
    12     9     1    1
    13     1     2   ar
    14     2     3    1
    15     2     4   ar
    16     4     5   ar
    17     5     6   ar
    18     6    22    1
    19    22    24    1
    20    24    25    2
    21    24    26    2
    22    24    27    1
    23    27    28   ar
    24    28    29   ar
    25    29    30   ar
    26    30    31   ar
    27    31    32    1
    28    31    33   ar
    29     6     7   ar
    30     7     8    1
    31    18    19    1
    32    19    11    1
    33    19    15    1
    34     7     1   ar
    35    33    27   ar
    36    22    23    1
