@<TRIPOS>MOLECULE
*****
 33 35 0 0 0
SMALL
GASTEIGER

@<TRIPOS>ATOM
      1 C          -9.5939  -19.4114   21.6946 C.ar    1  UNL1        0.0531
      2 C          -8.1815  -18.9139   21.6071 C.ar    1  UNL1        0.0167
      3 C          -7.4557  -18.9440   20.2948 C.ar    1  UNL1        0.0505
      4 C          -8.1421  -19.4717   19.0699 C.ar    1  UNL1        0.0170
      5 C          -9.5546  -19.9692   19.1574 C.ar    1  UNL1        0.0307
      6 C         -10.2804  -19.9390   20.4697 C.ar    1  UNL1        0.1402
      7 F         -11.6928  -20.4365   20.5572 F       1  UNL1       -0.2044
      8 N         -13.5256  -17.3182   21.9043 N.pl3   1  UNL1       -0.2456
      9 C         -12.5577  -18.0859   22.7550 C.2     1  UNL1        0.3505
     10 N         -11.2876  -18.6135   22.1562 N.2     1  UNL1       -0.0663
     11 C         -10.3197  -19.3812   23.0070 C.3     1  UNL1        0.2279
     12 C         -10.6218  -19.6213   24.4565 C.3     1  UNL1        0.0626
     13 C         -11.8918  -19.0937   25.0552 C.3     1  UNL1        0.0838
     14 C         -12.8598  -18.3260   24.2045 C.3     1  UNL1        0.3553
     15 F         -13.5856  -18.2959   25.5168 F       1  UNL1       -0.1914
     16 F         -14.0798  -17.5479   23.8096 F       1  UNL1       -0.1914
     17 H         -13.3274  -17.1607   20.9529 H       1  UNL1        0.2883
     18 H         -14.3592  -16.9720   22.2973 H       1  UNL1        0.2883
     19 C          -9.0996  -20.1594   23.4018 C.3     1  UNL1        0.2460
     20 F          -9.2048  -21.2502   24.4261 F       1  UNL1       -0.2293
     21 N          -6.0432  -18.4466   20.2073 N.am    1  UNL1       -0.2791
     22 C          -4.9012  -19.4172   20.2658 C.2     1  UNL1        0.2688
     23 O          -5.1715  -20.8854   20.4119 O.2     1  UNL1       -0.2681
     24 H          -5.8658  -17.4829   20.1114 H       1  UNL1        0.1552
     25 C          -3.4888  -18.9197   20.1783 C.ar    1  UNL1        0.1541
     26 C          -2.4442  -19.4602   21.1093 C.ar    1  UNL1        0.1258
     27 N          -1.0318  -18.9627   21.0218 N.ar    1  UNL1       -0.2070
     28 C          -0.6640  -17.9248   20.0033 C.ar    1  UNL1        0.2469
     29 C          -1.7085  -17.3843   19.0723 C.ar    1  UNL1        0.1566
     30 N          -3.1210  -17.8818   19.1598 N.ar    1  UNL1       -0.2328
     31 O           0.7484  -17.4273   19.9158 O.3     1  UNL1       -0.4265
     32 C           1.7693  -17.8888   20.9132 C.3     1  UNL1        0.4044
     33 F           3.0823  -17.1728   21.0285 F       1  UNL1       -0.1809
@<TRIPOS>BOND
     1     8     9    1
     2     9    10    2
     3    10    11    1
     4    11    19    1
     5    19    20    1
     6    11     1    1
     7     1     2   ar
     8     2     3   ar
     9     3    21    1
    10    21    22   am
    11    22    23    2
    12    22    25    1
    13    25    26   ar
    14    26    27   ar
    15    27    28   ar
    16    28    31    1
    17    31    32    1
    18    32    33    1
    19    28    29   ar
    20    29    30   ar
    21     3     4   ar
    22     4     5   ar
    23     5     6   ar
    24     6     7    1
    25    11    12    1
    26    12    13    1
    27    13    14    1
    28    14    15    1
    29    14    16    1
    30    14     9    1
    31     6     1   ar
    32    30    25   ar
    33     8    17    1
    34     8    18    1
    35    21    24    1
@<TRIPOS>MOLECULE
*****
 33 35 0 0 0
SMALL
GASTEIGER

@<TRIPOS>ATOM
      1 C          -8.5521  -16.6257   24.5083 C.ar    1  UNL1        0.0531
      2 C          -7.2786  -16.8074   23.7367 C.ar    1  UNL1        0.0167
      3 C          -6.0145  -16.1541   24.2114 C.ar    1  UNL1        0.0505
      4 C          -6.0238  -15.3193   25.4576 C.ar    1  UNL1        0.0170
      5 C          -7.2973  -15.1377   26.2291 C.ar    1  UNL1        0.0307
      6 C          -8.5614  -15.7909   25.7545 C.ar    1  UNL1        0.1402
      7 F          -9.8349  -15.6093   26.5260 F       1  UNL1       -0.2044
      8 N         -10.3279  -15.2712   20.6488 N.pl3   1  UNL1       -0.2456
      9 C         -10.5541  -16.2446   21.7674 C.2     1  UNL1        0.3505
     10 N          -9.5901  -16.3056   22.9150 N.2     1  UNL1       -0.0663
     11 C          -9.8163  -17.2789   24.0336 C.3     1  UNL1        0.2279
     12 C         -11.0064  -18.1914   24.0047 C.3     1  UNL1        0.0626
     13 C         -11.9704  -18.1305   22.8572 C.3     1  UNL1        0.0838
     14 C         -11.7443  -17.1571   21.7385 C.3     1  UNL1        0.3553
     15 F         -13.0084  -17.8103   21.2639 F       1  UNL1       -0.1914
     16 F         -11.9572  -16.4106   20.4550 F       1  UNL1       -0.1914
     17 H          -9.5468  -14.6724   20.6678 H       1  UNL1        0.2883
     18 H         -10.9606  -15.2313   19.8956 H       1  UNL1        0.2883
     19 C          -9.6033  -18.0254   25.3172 C.3     1  UNL1        0.2460
     20 F          -9.9800  -19.4742   25.4135 F       1  UNL1       -0.2293
     21 N          -4.7410  -16.3358   23.4398 N.am    1  UNL1       -0.2791
     22 C          -4.4771  -17.6255   22.7210 C.2     1  UNL1        0.2688
     23 O          -5.4866  -18.7337   22.7737 O.2     1  UNL1       -0.2681
     24 H          -4.0784  -15.6084   23.4052 H       1  UNL1        0.1552
     25 C          -3.2036  -17.8072   21.9495 C.ar    1  UNL1        0.1541
     26 C          -2.6549  -19.1844   21.7213 C.ar    1  UNL1        0.1258
     27 N          -1.3814  -19.3661   20.9497 N.ar    1  UNL1       -0.2070
     28 C          -0.6567  -18.1704   20.4064 C.ar    1  UNL1        0.2469
     29 C          -1.2053  -16.7931   20.6346 C.ar    1  UNL1        0.1566
     30 N          -2.4788  -16.6115   21.4062 N.ar    1  UNL1       -0.2328
     31 O           0.6168  -18.3520   19.6348 O.3     1  UNL1       -0.4265
     32 C           1.8130  -17.5043   19.9515 C.3     1  UNL1        0.4044
     33 F           2.6811  -17.8415   21.1275 F       1  UNL1       -0.1809
@<TRIPOS>BOND
     1     8     9    1
     2     9    10    2
     3    10    11    1
     4    11    19    1
     5    19    20    1
     6    11     1    1
     7     1     2   ar
     8     2     3   ar
     9     3    21    1
    10    21    22   am
    11    22    23    2
    12    22    25    1
    13    25    26   ar
    14    26    27   ar
    15    27    28   ar
    16    28    31    1
    17    31    32    1
    18    32    33    1
    19    28    29   ar
    20    29    30   ar
    21     3     4   ar
    22     4     5   ar
    23     5     6   ar
    24     6     7    1
    25    11    12    1
    26    12    13    1
    27    13    14    1
    28    14    15    1
    29    14    16    1
    30    14     9    1
    31     6     1   ar
    32    30    25   ar
    33     8    17    1
    34     8    18    1
    35    21    24    1
@<TRIPOS>MOLECULE
*****
 33 35 0 0 0
SMALL
GASTEIGER

@<TRIPOS>ATOM
      1 C           2.9732   -1.1984   20.0048 C.ar    1  UNL1        0.0531
      2 C           1.6851   -0.6368   20.5297 C.ar    1  UNL1        0.0167
      3 C           0.9991    0.4779   19.7969 C.ar    1  UNL1        0.0505
      4 C           1.6011    1.0310   18.5393 C.ar    1  UNL1        0.0170
      5 C           2.8893    0.4694   18.0144 C.ar    1  UNL1        0.0307
      6 C           3.5752   -0.6452   18.7472 C.ar    1  UNL1        0.1402
      7 F           4.8634   -1.2068   18.2223 F       1  UNL1       -0.2044
      8 N           4.4924   -0.4190   24.1241 N.pl3   1  UNL1       -0.2456
      9 C           4.4057   -1.5025   23.0904 C.2     1  UNL1        0.3505
     10 N           3.7459   -1.2295   21.7713 N.2     1  UNL1       -0.0663
     11 C           3.6592   -2.3130   20.7376 C.3     1  UNL1        0.2279
     12 C           4.2323   -3.6695   21.0230 C.3     1  UNL1        0.0626
     13 C           4.8921   -3.9424   22.3421 C.3     1  UNL1        0.0838
     14 C           4.9788   -2.8589   23.3758 C.3     1  UNL1        0.3553
     15 F           5.6648   -3.9736   24.1086 F       1  UNL1       -0.1914
     16 F           5.3038   -2.1626   24.6640 F       1  UNL1       -0.1914
     17 H           4.1163    0.4713   23.9367 H       1  UNL1        0.2883
     18 H           4.9255   -0.5981   24.9899 H       1  UNL1        0.2883
     19 C           3.3342   -3.0093   19.4494 C.3     1  UNL1        0.2460
     20 F           3.0765   -4.4870   19.4399 F       1  UNL1       -0.2293
     21 N          -0.2890    1.0395   20.3217 N.am    1  UNL1       -0.2791
     22 C          -0.3138    2.4037   20.9446 C.2     1  UNL1        0.2688
     23 O           0.9495    3.2065   21.0427 O.2     1  UNL1       -0.2681
     24 H          -1.1182    0.5126   20.2574 H       1  UNL1        0.1552
     25 C          -1.6019    2.9653   21.4695 C.ar    1  UNL1        0.1541
     26 C          -1.6296    3.6653   22.7958 C.ar    1  UNL1        0.1258
     27 N          -2.9177    4.2269   23.3207 N.ar    1  UNL1       -0.2070
     28 C          -4.1780    4.0884   22.5192 C.ar    1  UNL1        0.2469
     29 C          -4.1503    3.3884   21.1929 C.ar    1  UNL1        0.1566
     30 N          -2.8622    2.8268   20.6680 N.ar    1  UNL1       -0.2328
     31 O          -5.4662    4.6500   23.0440 O.3     1  UNL1       -0.4265
     32 C          -6.7716    4.2213   22.4424 C.3     1  UNL1        0.4044
     33 F          -7.9542    3.9575   23.3266 F       1  UNL1       -0.1809
@<TRIPOS>BOND
     1     8     9    1
     2     9    10    2
     3    10    11    1
     4    11    19    1
     5    19    20    1
     6    11     1    1
     7     1     2   ar
     8     2     3   ar
     9     3    21    1
    10    21    22   am
    11    22    23    2
    12    22    25    1
    13    25    26   ar
    14    26    27   ar
    15    27    28   ar
    16    28    31    1
    17    31    32    1
    18    32    33    1
    19    28    29   ar
    20    29    30   ar
    21     3     4   ar
    22     4     5   ar
    23     5     6   ar
    24     6     7    1
    25    11    12    1
    26    12    13    1
    27    13    14    1
    28    14    15    1
    29    14    16    1
    30    14     9    1
    31     6     1   ar
    32    30    25   ar
    33     8    17    1
    34     8    18    1
    35    21    24    1
@<TRIPOS>MOLECULE
*****
 33 35 0 0 0
SMALL
GASTEIGER

@<TRIPOS>ATOM
      1 C           3.6813    0.5616   18.5606 C.ar    1  UNL1        0.0531
      2 C           2.2372    0.9674   18.5519 C.ar    1  UNL1        0.0167
      3 C           1.8667    2.4198   18.4958 C.ar    1  UNL1        0.0505
      4 C           2.9401    3.4665   18.4484 C.ar    1  UNL1        0.0170
      5 C           4.3842    3.0607   18.4571 C.ar    1  UNL1        0.0307
      6 C           4.7547    1.6082   18.5132 C.ar    1  UNL1        0.1402
      7 F           6.1988    1.2024   18.5219 F       1  UNL1       -0.2044
      8 N           3.4840   -1.5347   22.4913 N.pl3   1  UNL1       -0.2456
      9 C           3.8209   -1.7734   21.0493 C.2     1  UNL1        0.3505
     10 N           3.7150   -0.6521   20.0587 N.2     1  UNL1       -0.0663
     11 C           4.0519   -0.8908   18.6167 C.3     1  UNL1        0.2279
     12 C           4.4947   -2.2510   18.1652 C.3     1  UNL1        0.0626
     13 C           4.6007   -3.3723   19.1558 C.3     1  UNL1        0.0838
     14 C           4.2637   -3.1336   20.5978 C.3     1  UNL1        0.3553
     15 F           4.6343   -4.5860   20.6539 F       1  UNL1       -0.1914
     16 F           4.0555   -3.3993   22.0593 F       1  UNL1       -0.1914
     17 H           3.1933   -0.6419   22.7876 H       1  UNL1        0.2883
     18 H           3.5535   -2.2707   23.1415 H       1  UNL1        0.2883
     19 C           4.2601   -0.6251   17.1552 C.3     1  UNL1        0.2460
     20 F           3.2920   -1.1719   16.1481 F       1  UNL1       -0.2293
     21 N           0.4226    2.8256   18.4871 N.am    1  UNL1       -0.2791
     22 C          -0.2845    3.1091   19.7791 C.2     1  UNL1        0.2688
     23 O           0.4523    2.9869   21.0799 O.2     1  UNL1       -0.2681
     24 H          -0.0610    2.9058   17.6333 H       1  UNL1        0.1552
     25 C          -1.7286    3.5149   19.7704 C.ar    1  UNL1        0.1541
     26 C          -2.2170    4.5279   18.7777 C.ar    1  UNL1        0.1258
     27 N          -3.6611    4.9337   18.7690 N.ar    1  UNL1       -0.2070
     28 C          -4.6166    4.3265   19.7530 C.ar    1  UNL1        0.2469
     29 C          -4.1283    3.3136   20.7457 C.ar    1  UNL1        0.1566
     30 N          -2.6842    2.9078   20.7544 N.ar    1  UNL1       -0.2328
     31 O          -6.0607    4.7323   19.7443 O.3     1  UNL1       -0.4265
     32 C          -7.0291    4.0389   18.8326 C.3     1  UNL1        0.4044
     33 F          -6.9103    2.5625   18.5953 F       1  UNL1       -0.1809
@<TRIPOS>BOND
     1     8     9    1
     2     9    10    2
     3    10    11    1
     4    11    19    1
     5    19    20    1
     6    11     1    1
     7     1     2   ar
     8     2     3   ar
     9     3    21    1
    10    21    22   am
    11    22    23    2
    12    22    25    1
    13    25    26   ar
    14    26    27   ar
    15    27    28   ar
    16    28    31    1
    17    31    32    1
    18    32    33    1
    19    28    29   ar
    20    29    30   ar
    21     3     4   ar
    22     4     5   ar
    23     5     6   ar
    24     6     7    1
    25    11    12    1
    26    12    13    1
    27    13    14    1
    28    14    15    1
    29    14    16    1
    30    14     9    1
    31     6     1   ar
    32    30    25   ar
    33     8    17    1
    34     8    18    1
    35    21    24    1
@<TRIPOS>MOLECULE
*****
 33 35 0 0 0
SMALL
GASTEIGER

@<TRIPOS>ATOM
      1 C           4.4524   -0.6372   19.1942 C.ar    1  UNL1        0.0531
      2 C           5.1190   -1.0196   20.4825 C.ar    1  UNL1        0.0167
      3 C           5.8182   -2.3413   20.6016 C.ar    1  UNL1        0.0505
      4 C           5.8509   -3.2807   19.4326 C.ar    1  UNL1        0.0170
      5 C           5.1843   -2.8983   18.1444 C.ar    1  UNL1        0.0307
      6 C           4.4851   -1.5766   18.0253 C.ar    1  UNL1        0.1402
      7 F           3.8185   -1.1942   16.7370 F       1  UNL1       -0.2044
      8 N           0.1538   -0.3917   20.3545 N.pl3   1  UNL1       -0.2456
      9 C           1.2789    0.4521   19.8327 C.2     1  UNL1        0.3505
     10 N           2.6281   -0.1594   19.5969 N.2     1  UNL1       -0.0663
     11 C           3.7532    0.6844   19.0751 C.3     1  UNL1        0.2279
     12 C           3.5290    2.1397   18.7892 C.3     1  UNL1        0.0626
     13 C           2.1798    2.7512   19.0250 C.3     1  UNL1        0.0838
     14 C           1.0547    1.9074   19.5468 C.3     1  UNL1        0.3553
     15 F           0.3555    3.2291   19.4277 F       1  UNL1       -0.1914
     16 F          -0.3132    1.5226   20.0272 F       1  UNL1       -0.1914
     17 H           0.3010   -1.3469   20.5422 H       1  UNL1        0.2883
     18 H          -0.7317    0.0096   20.5093 H       1  UNL1        0.2883
     19 C           5.1211    1.0692   18.5947 C.3     1  UNL1        0.2460
     20 F           5.3250    1.4874   17.1687 F       1  UNL1       -0.2293
     21 N           6.4848   -2.7237   21.8898 N.am    1  UNL1       -0.2791
     22 C           5.7249   -3.4960   22.9271 C.2     1  UNL1        0.2688
     23 O           4.2984   -3.8860   22.6762 O.2     1  UNL1       -0.2681
     24 H           7.4211   -2.4678   22.0545 H       1  UNL1        0.1552
     25 C           6.3915   -3.8784   24.2153 C.ar    1  UNL1        0.1541
     26 C           7.3298   -5.0481   24.2559 C.ar    1  UNL1        0.1258
     27 N           7.9964   -5.4305   25.5441 N.ar    1  UNL1       -0.2070
     28 C           7.7247   -4.6432   26.7916 C.ar    1  UNL1        0.2469
     29 C           6.7865   -3.4736   26.7511 C.ar    1  UNL1        0.1566
     30 N           6.1199   -3.0912   25.4629 N.ar    1  UNL1       -0.2328
     31 O           8.3913   -5.0256   28.0799 O.3     1  UNL1       -0.4265
     32 C           7.7480   -6.0318   28.9874 C.3     1  UNL1        0.4044
     33 F           6.4741   -5.6907   29.7022 F       1  UNL1       -0.1809
@<TRIPOS>BOND
     1     8     9    1
     2     9    10    2
     3    10    11    1
     4    11    19    1
     5    19    20    1
     6    11     1    1
     7     1     2   ar
     8     2     3   ar
     9     3    21    1
    10    21    22   am
    11    22    23    2
    12    22    25    1
    13    25    26   ar
    14    26    27   ar
    15    27    28   ar
    16    28    31    1
    17    31    32    1
    18    32    33    1
    19    28    29   ar
    20    29    30   ar
    21     3     4   ar
    22     4     5   ar
    23     5     6   ar
    24     6     7    1
    25    11    12    1
    26    12    13    1
    27    13    14    1
    28    14    15    1
    29    14    16    1
    30    14     9    1
    31     6     1   ar
    32    30    25   ar
    33     8    17    1
    34     8    18    1
    35    21    24    1
@<TRIPOS>MOLECULE
*****
 33 35 0 0 0
SMALL
GASTEIGER

@<TRIPOS>ATOM
      1 C           7.4736   -3.5486   30.1447 C.ar    1  UNL1        0.0531
      2 C           6.8185   -3.4122   28.8021 C.ar    1  UNL1        0.0167
      3 C           6.8224   -4.5672   27.8450 C.ar    1  UNL1        0.0505
      4 C           7.4813   -5.8585   28.2304 C.ar    1  UNL1        0.0170
      5 C           8.1363   -5.9948   29.5729 C.ar    1  UNL1        0.0307
      6 C           8.1325   -4.8398   30.5300 C.ar    1  UNL1        0.1402
      7 F           8.7876   -4.9761   31.8725 F       1  UNL1       -0.2044
      8 N           4.2754   -3.3660   33.2466 N.pl3   1  UNL1       -0.2456
      9 C           5.4783   -2.6166   32.7553 C.2     1  UNL1        0.3505
     10 N           6.2668   -3.1430   31.5930 N.2     1  UNL1       -0.0663
     11 C           7.4698   -2.3936   31.1018 C.3     1  UNL1        0.2279
     12 C           7.8841   -1.1177   31.7728 C.3     1  UNL1        0.0626
     13 C           7.0956   -0.5912   32.9351 C.3     1  UNL1        0.0838
     14 C           5.8926   -1.3407   33.4264 C.3     1  UNL1        0.3553
     15 F           5.8888   -0.1857   34.3835 F       1  UNL1       -0.1914
     16 F           4.6884   -1.6889   34.2500 F       1  UNL1       -0.1914
     17 H           4.0034   -4.2034   32.8061 H       1  UNL1        0.2883
     18 H           3.7578   -3.0205   34.0094 H       1  UNL1        0.2883
     19 C           8.6740   -2.0453   30.2781 C.3     1  UNL1        0.2460
     20 F           8.9061   -0.6260   29.8518 F       1  UNL1       -0.2293
     21 N           6.1673   -4.4309   26.5025 N.am    1  UNL1       -0.2791
     22 C           6.9269   -3.8354   25.3543 C.2     1  UNL1        0.2688
     23 O           8.3416   -3.3762   25.5486 O.2     1  UNL1       -0.2681
     24 H           5.2388   -4.7323   26.3750 H       1  UNL1        0.1552
     25 C           6.2719   -3.6991   24.0118 C.ar    1  UNL1        0.1541
     26 C           6.8925   -4.3400   22.8060 C.ar    1  UNL1        0.1258
     27 N           6.2374   -4.2037   21.4634 N.ar    1  UNL1       -0.2070
     28 C           4.9618   -3.4265   21.3268 C.ar    1  UNL1        0.2469
     29 C           4.3411   -2.7856   22.5327 C.ar    1  UNL1        0.1566
     30 N           4.9962   -2.9219   23.8752 N.ar    1  UNL1       -0.2328
     31 O           4.3067   -3.2902   19.9843 O.3     1  UNL1       -0.4265
     32 C           3.7904   -4.5067   19.2748 C.3     1  UNL1        0.4044
     33 F           4.6814   -5.2597   18.3319 F       1  UNL1       -0.1809
@<TRIPOS>BOND
     1     8     9    1
     2     9    10    2
     3    10    11    1
     4    11    19    1
     5    19    20    1
     6    11     1    1
     7     1     2   ar
     8     2     3   ar
     9     3    21    1
    10    21    22   am
    11    22    23    2
    12    22    25    1
    13    25    26   ar
    14    26    27   ar
    15    27    28   ar
    16    28    31    1
    17    31    32    1
    18    32    33    1
    19    28    29   ar
    20    29    30   ar
    21     3     4   ar
    22     4     5   ar
    23     5     6   ar
    24     6     7    1
    25    11    12    1
    26    12    13    1
    27    13    14    1
    28    14    15    1
    29    14    16    1
    30    14     9    1
    31     6     1   ar
    32    30    25   ar
    33     8    17    1
    34     8    18    1
    35    21    24    1
@<TRIPOS>MOLECULE
*****
 33 35 0 0 0
SMALL
GASTEIGER

@<TRIPOS>ATOM
      1 C           3.5215   -1.3997   19.5666 C.ar    1  UNL1        0.0531
      2 C           2.5965   -0.9682   20.6658 C.ar    1  UNL1        0.0167
      3 C           1.6010    0.1269   20.4216 C.ar    1  UNL1        0.0505
      4 C           1.5303    0.7905   19.0782 C.ar    1  UNL1        0.0170
      5 C           2.4553    0.3590   17.9790 C.ar    1  UNL1        0.0307
      6 C           3.4509   -0.7361   18.2232 C.ar    1  UNL1        0.1402
      7 F           4.3759   -1.1676   17.1240 F       1  UNL1       -0.2044
      8 N           7.5805   -0.2946   21.0454 N.pl3   1  UNL1       -0.2456
      9 C           6.7557   -1.4871   20.6610 C.2     1  UNL1        0.3505
     10 N           5.3419   -1.3024   20.1953 N.2     1  UNL1       -0.0663
     11 C           4.5171   -2.4948   19.8108 C.3     1  UNL1        0.2279
     12 C           5.1061   -3.8719   19.8921 C.3     1  UNL1        0.0626
     13 C           6.5199   -4.0566   20.3578 C.3     1  UNL1        0.0838
     14 C           7.3447   -2.8641   20.7422 C.3     1  UNL1        0.3553
     15 F           8.3403   -3.9592   20.9865 F       1  UNL1       -0.1914
     16 F           8.5153   -2.0521   21.2115 F       1  UNL1       -0.1914
     17 H           7.1939    0.6092   20.9921 H       1  UNL1        0.2883
     18 H           8.5085   -0.4158   21.3511 H       1  UNL1        0.2883
     19 C           3.3465   -3.3068   19.3415 C.3     1  UNL1        0.2460
     20 F           3.4176   -4.8051   19.3595 F       1  UNL1       -0.2293
     21 N           0.6759    0.5584   21.5208 N.am    1  UNL1       -0.2791
     22 C           1.0314    1.7340   22.3818 C.2     1  UNL1        0.2688
     23 O           2.3118    2.4782   22.1437 O.2     1  UNL1       -0.2681
     24 H          -0.1644    0.0700   21.6771 H       1  UNL1        0.1552
     25 C           0.1064    2.1655   23.4810 C.ar    1  UNL1        0.1541
     26 C           0.1390    1.4649   24.8069 C.ar    1  UNL1        0.1258
     27 N          -0.7861    1.8964   25.9061 N.ar    1  UNL1       -0.2070
     28 C          -1.7436    3.0285   25.6794 C.ar    1  UNL1        0.2469
     29 C          -1.7762    3.7292   24.3535 C.ar    1  UNL1        0.1566
     30 N          -0.8512    3.2977   23.2543 N.ar    1  UNL1       -0.2328
     31 O          -2.6686    3.4600   26.7786 O.3     1  UNL1       -0.4265
     32 C          -4.0268    4.0028   26.4460 C.3     1  UNL1        0.4044
     33 F          -4.9116    3.2703   25.4813 F       1  UNL1       -0.1809
@<TRIPOS>BOND
     1     8     9    1
     2     9    10    2
     3    10    11    1
     4    11    19    1
     5    19    20    1
     6    11     1    1
     7     1     2   ar
     8     2     3   ar
     9     3    21    1
    10    21    22   am
    11    22    23    2
    12    22    25    1
    13    25    26   ar
    14    26    27   ar
    15    27    28   ar
    16    28    31    1
    17    31    32    1
    18    32    33    1
    19    28    29   ar
    20    29    30   ar
    21     3     4   ar
    22     4     5   ar
    23     5     6   ar
    24     6     7    1
    25    11    12    1
    26    12    13    1
    27    13    14    1
    28    14    15    1
    29    14    16    1
    30    14     9    1
    31     6     1   ar
    32    30    25   ar
    33     8    17    1
    34     8    18    1
    35    21    24    1
@<TRIPOS>MOLECULE
*****
 33 35 0 0 0
SMALL
GASTEIGER

@<TRIPOS>ATOM
      1 C           3.9840   -1.4986   20.5922 C.ar    1  UNL1        0.0531
      2 C           4.1180   -1.3646   22.0803 C.ar    1  UNL1        0.0167
      3 C           4.3986   -2.5754   22.9201 C.ar    1  UNL1        0.0505
      4 C           4.5453   -3.9202   22.2720 C.ar    1  UNL1        0.0170
      5 C           4.4113   -4.0542   20.7840 C.ar    1  UNL1        0.0307
      6 C           4.1307   -2.8434   19.9442 C.ar    1  UNL1        0.1402
      7 F           3.9967   -2.9775   18.4562 F       1  UNL1       -0.2044
      8 N          -0.1856    0.0759   20.4547 N.pl3   1  UNL1       -0.2456
      9 C           1.1874    0.3401   19.9116 C.2     1  UNL1        0.3505
     10 N           2.3304   -0.5521   20.2956 N.2     1  UNL1       -0.0663
     11 C           3.7034   -0.2879   19.7524 C.3     1  UNL1        0.2279
     12 C           3.9334    0.8686   18.8253 C.3     1  UNL1        0.0626
     13 C           2.7905    1.7608   18.4413 C.3     1  UNL1        0.0838
     14 C           1.4174    1.4966   18.9845 C.3     1  UNL1        0.3553
     15 F           1.1368    2.7073   18.1447 F       1  UNL1       -0.1914
     16 F          -0.0530    1.6529   19.2359 F       1  UNL1       -0.1914
     17 H          -0.3366   -0.6832   21.0633 H       1  UNL1        0.2883
     18 H          -0.9358    0.6615   20.2027 H       1  UNL1        0.2883
     19 C           5.1739   -0.4442   19.5010 C.3     1  UNL1        0.2460
     20 F           5.6852   -0.5711   18.0965 F       1  UNL1       -0.2293
     21 N           4.5326   -2.4413   24.4081 N.am    1  UNL1       -0.2791
     22 C           5.8930   -2.3533   25.0337 C.2     1  UNL1        0.2688
     23 O           7.1195   -2.3993   24.1714 O.2     1  UNL1       -0.2681
     24 H           3.7276   -2.4112   24.9741 H       1  UNL1        0.1552
     25 C           6.0270   -2.2193   26.5217 C.ar    1  UNL1        0.1541
     26 C           7.1802   -2.8640   27.2320 C.ar    1  UNL1        0.1258
     27 N           7.3142   -2.7300   28.7200 N.ar    1  UNL1       -0.2070
     28 C           6.2950   -1.9512   29.4976 C.ar    1  UNL1        0.2469
     29 C           5.1418   -1.3064   28.7874 C.ar    1  UNL1        0.1566
     30 N           5.0078   -1.4405   27.2994 N.ar    1  UNL1       -0.2328
     31 O           6.4290   -1.8172   30.9857 O.3     1  UNL1       -0.4265
     32 C           6.1243   -2.9864   31.8745 C.3     1  UNL1        0.4044
     33 F           7.2412   -3.7281   32.5472 F       1  UNL1       -0.1809
@<TRIPOS>BOND
     1     8     9    1
     2     9    10    2
     3    10    11    1
     4    11    19    1
     5    19    20    1
     6    11     1    1
     7     1     2   ar
     8     2     3   ar
     9     3    21    1
    10    21    22   am
    11    22    23    2
    12    22    25    1
    13    25    26   ar
    14    26    27   ar
    15    27    28   ar
    16    28    31    1
    17    31    32    1
    18    32    33    1
    19    28    29   ar
    20    29    30   ar
    21     3     4   ar
    22     4     5   ar
    23     5     6   ar
    24     6     7    1
    25    11    12    1
    26    12    13    1
    27    13    14    1
    28    14    15    1
    29    14    16    1
    30    14     9    1
    31     6     1   ar
    32    30    25   ar
    33     8    17    1
    34     8    18    1
    35    21    24    1
@<TRIPOS>MOLECULE
*****
 33 35 0 0 0
SMALL
GASTEIGER

@<TRIPOS>ATOM
      1 C           6.7086   -3.7651   22.5545 C.ar    1  UNL1        0.0531
      2 C           6.3029   -3.6300   23.9923 C.ar    1  UNL1        0.0167
      3 C           6.9136   -4.5235   25.0309 C.ar    1  UNL1        0.0505
      4 C           7.9299   -5.5521   24.6318 C.ar    1  UNL1        0.0170
      5 C           8.3355   -5.6871   23.1940 C.ar    1  UNL1        0.0307
      6 C           7.7248   -4.7936   22.1554 C.ar    1  UNL1        0.1402
      7 F           8.1304   -4.9286   20.7176 F       1  UNL1       -0.2044
      8 N           3.4869   -5.4189   19.9526 N.pl3   1  UNL1       -0.2456
      9 C           4.2688   -4.1624   20.1976 C.2     1  UNL1        0.3505
     10 N           5.3161   -4.1280   21.2708 N.2     1  UNL1       -0.0663
     11 C           6.0979   -2.8715   21.5159 C.3     1  UNL1        0.2279
     12 C           5.8324   -1.6495   20.6876 C.3     1  UNL1        0.0626
     13 C           4.7851   -1.6839   19.6144 C.3     1  UNL1        0.0838
     14 C           4.0033   -2.9403   19.3694 C.3     1  UNL1        0.3553
     15 F           3.3926   -2.0468   18.3308 F       1  UNL1       -0.1914
     16 F           3.0093   -3.8864   18.7636 F       1  UNL1       -0.1914
     17 H           3.6612   -6.2210   20.4962 H       1  UNL1        0.2883
     18 H           2.7995   -5.4414   19.2482 H       1  UNL1        0.2883
     19 C           7.0918   -1.9254   22.1216 C.3     1  UNL1        0.2460
     20 F           6.7052   -0.5007   22.3878 F       1  UNL1       -0.2293
     21 N           6.5080   -4.3885   26.4687 N.am    1  UNL1       -0.2791
     22 C           7.1914   -3.3852   27.3497 C.2     1  UNL1        0.2688
     23 O           8.2805   -2.5169   26.7930 O.2     1  UNL1       -0.2681
     24 H           5.7932   -4.9584   26.8341 H       1  UNL1        0.1552
     25 C           6.7858   -3.2502   28.7876 C.ar    1  UNL1        0.1541
     26 C           7.0007   -4.3908   29.7377 C.ar    1  UNL1        0.1258
     27 N           6.5951   -4.2557   31.1755 N.ar    1  UNL1       -0.2070
     28 C           5.9746   -2.9801   31.6631 C.ar    1  UNL1        0.2469
     29 C           5.7597   -1.8395   30.7130 C.ar    1  UNL1        0.1566
     30 N           6.1653   -1.9745   29.2751 N.ar    1  UNL1       -0.2328
     31 O           5.5690   -2.8451   33.1009 O.3     1  UNL1       -0.4265
     32 C           4.3678   -2.0249   33.4675 C.3     1  UNL1        0.4044
     33 F           4.2926   -1.3643   34.8121 F       1  UNL1       -0.1809
@<TRIPOS>BOND
     1     8     9    1
     2     9    10    2
     3    10    11    1
     4    11    19    1
     5    19    20    1
     6    11     1    1
     7     1     2   ar
     8     2     3   ar
     9     3    21    1
    10    21    22   am
    11    22    23    2
    12    22    25    1
    13    25    26   ar
    14    26    27   ar
    15    27    28   ar
    16    28    31    1
    17    31    32    1
    18    32    33    1
    19    28    29   ar
    20    29    30   ar
    21     3     4   ar
    22     4     5   ar
    23     5     6   ar
    24     6     7    1
    25    11    12    1
    26    12    13    1
    27    13    14    1
    28    14    15    1
    29    14    16    1
    30    14     9    1
    31     6     1   ar
    32    30    25   ar
    33     8    17    1
    34     8    18    1
    35    21    24    1
