@<TRIPOS>MOLECULE
*****
 28 31 0 0 0
SMALL
GASTEIGER

@<TRIPOS>ATOM
      1 C          -9.7669  -16.8671   21.8199 C.ar    1  UNL1        0.1385
      2 C          -8.7286  -16.5448   22.8533 C.ar    1  UNL1        0.0370
      3 C          -7.4687  -17.3554   22.9289 C.ar    1  UNL1        0.0063
      4 C          -7.2472  -18.4883   21.9711 C.ar    1  UNL1        0.0391
      5 C          -8.2856  -18.8107   20.9377 C.ar    1  UNL1        0.0060
      6 C          -8.0641  -19.9436   19.9799 C.ar    1  UNL1        0.0002
      7 C          -9.1024  -20.2659   18.9465 C.ar    1  UNL1        0.0000
      8 C         -10.3622  -19.4553   18.8709 C.ar    1  UNL1        0.0001
      9 C         -10.5837  -18.3224   19.8286 C.ar    1  UNL1        0.0030
     10 C          -9.5454  -18.0001   20.8620 C.ar    1  UNL1        0.0341
     11 C          -5.9874  -19.2989   22.0467 C.2     1  UNL1        0.1955
     12 O          -6.0466  -20.7916   21.9104 O.2     1  UNL1       -0.2866
     13 C          -4.6683  -18.6170   22.2587 C.ar    1  UNL1        0.0389
     14 C          -4.3149  -18.0710   23.6104 C.ar    1  UNL1        0.0032
     15 C          -2.9959  -17.3890   23.8223 C.ar    1  UNL1        0.0001
     16 C          -2.0302  -17.2529   22.6826 C.ar    1  UNL1        0.0000
     17 C          -2.3835  -17.7989   21.3310 C.ar    1  UNL1        0.0001
     18 C          -1.4179  -17.6629   20.1913 C.ar    1  UNL1        0.0000
     19 C          -1.7713  -18.2089   18.8395 C.ar    1  UNL1        0.0000
     20 C          -3.0903  -18.8909   18.6276 C.ar    1  UNL1        0.0000
     21 C          -4.0560  -19.0269   19.7673 C.ar    1  UNL1        0.0001
     22 C          -3.7027  -18.4809   21.1190 C.ar    1  UNL1        0.0031
     23 O         -11.0268  -16.0565   21.7443 O.3     1  UNL1       -0.4755
     24 C         -12.1426  -16.3125   22.7135 C.3     1  UNL1        0.2054
     25 C         -12.5634  -17.7197   23.0182 C.3     1  UNL1        0.0473
     26 C         -11.8289  -18.5137   24.0575 C.3     1  UNL1        0.0038
     27 C          -9.7325  -20.0217   24.3428 C.3     1  UNL1        0.0000
     28 C         -11.0308  -19.7185   23.6554 C.3     1  UNL1        0.0001
@<TRIPOS>BOND
     1    27    28    1
     2    28    26    1
     3    26    25    1
     4    25    24    1
     5    24    23    1
     6    23     1    1
     7     1     2   ar
     8     2     3   ar
     9     3     4   ar
    10     4    11    1
    11    11    12    2
    12    11    13    1
    13    13    14   ar
    14    14    15   ar
    15    15    16   ar
    16    16    17   ar
    17    17    18   ar
    18    18    19   ar
    19    19    20   ar
    20    20    21   ar
    21    21    22   ar
    22     4     5   ar
    23     5     6   ar
    24     6     7   ar
    25     7     8   ar
    26     8     9   ar
    27     9    10   ar
    28    10     1   ar
    29    22    13   ar
    30    10     5   ar
    31    22    17   ar
@<TRIPOS>MOLECULE
*****
 28 31 0 0 0
SMALL
GASTEIGER

@<TRIPOS>ATOM
      1 C         -10.3548  -17.5192   20.6551 C.ar    1  UNL1        0.1385
      2 C          -9.9104  -18.6726   19.8053 C.ar    1  UNL1        0.0370
      3 C          -8.7376  -19.5071   20.2275 C.ar    1  UNL1        0.0063
      4 C          -8.0094  -19.1883   21.4995 C.ar    1  UNL1        0.0391
      5 C          -8.4539  -18.0349   22.3493 C.ar    1  UNL1        0.0060
      6 C          -7.7257  -17.7161   23.6213 C.ar    1  UNL1        0.0002
      7 C          -8.1701  -16.5627   24.4711 C.ar    1  UNL1        0.0000
      8 C          -9.3429  -15.7281   24.0489 C.ar    1  UNL1        0.0001
      9 C         -10.0711  -16.0470   22.7769 C.ar    1  UNL1        0.0030
     10 C          -9.6266  -17.2003   21.9271 C.ar    1  UNL1        0.0341
     11 C          -6.8367  -20.0228   21.9217 C.2     1  UNL1        0.1955
     12 O          -6.9832  -21.0103   23.0414 O.2     1  UNL1       -0.2866
     13 C          -5.5175  -19.8699   21.2244 C.ar    1  UNL1        0.0389
     14 C          -5.1932  -20.7269   20.0367 C.ar    1  UNL1        0.0032
     15 C          -3.8740  -20.5741   19.3394 C.ar    1  UNL1        0.0001
     16 C          -2.8791  -19.5642   19.8296 C.ar    1  UNL1        0.0000
     17 C          -3.2034  -18.7072   21.0172 C.ar    1  UNL1        0.0001
     18 C          -2.2084  -17.6974   21.5074 C.ar    1  UNL1        0.0000
     19 C          -2.5328  -16.8404   22.6951 C.ar    1  UNL1        0.0000
     20 C          -3.8520  -16.9932   23.3924 C.ar    1  UNL1        0.0000
     21 C          -4.8469  -18.0031   22.9022 C.ar    1  UNL1        0.0001
     22 C          -4.5226  -18.8601   21.7146 C.ar    1  UNL1        0.0031
     23 O         -11.5276  -16.6847   20.2328 O.3     1  UNL1       -0.4755
     24 C         -12.8302  -16.7951   20.9682 C.3     1  UNL1        0.2054
     25 C         -13.0983  -17.9824   21.8448 C.3     1  UNL1        0.0473
     26 C         -13.2389  -17.8034   23.3275 C.3     1  UNL1        0.0038
     27 C         -11.3609  -19.5506   23.7406 C.3     1  UNL1        0.0000
     28 C         -12.2831  -18.4874   24.2595 C.3     1  UNL1        0.0001
@<TRIPOS>BOND
     1    27    28    1
     2    28    26    1
     3    26    25    1
     4    25    24    1
     5    24    23    1
     6    23     1    1
     7     1     2   ar
     8     2     3   ar
     9     3     4   ar
    10     4    11    1
    11    11    12    2
    12    11    13    1
    13    13    14   ar
    14    14    15   ar
    15    15    16   ar
    16    16    17   ar
    17    17    18   ar
    18    18    19   ar
    19    19    20   ar
    20    20    21   ar
    21    21    22   ar
    22     4     5   ar
    23     5     6   ar
    24     6     7   ar
    25     7     8   ar
    26     8     9   ar
    27     9    10   ar
    28    10     1   ar
    29    22    13   ar
    30    10     5   ar
    31    22    17   ar
@<TRIPOS>MOLECULE
*****
 28 31 0 0 0
SMALL
GASTEIGER

@<TRIPOS>ATOM
      1 C          -9.7735  -17.7009   20.9482 C.ar    1  UNL1        0.1385
      2 C          -9.3136  -18.9101   20.1891 C.ar    1  UNL1        0.0370
      3 C          -8.0019  -19.5541   20.5277 C.ar    1  UNL1        0.0063
      4 C          -7.1500  -18.9888   21.6252 C.ar    1  UNL1        0.0391
      5 C          -7.6098  -17.7795   22.3843 C.ar    1  UNL1        0.0060
      6 C          -6.7579  -17.2142   23.4819 C.ar    1  UNL1        0.0002
      7 C          -7.2178  -16.0049   24.2409 C.ar    1  UNL1        0.0000
      8 C          -8.5295  -15.3610   23.9024 C.ar    1  UNL1        0.0001
      9 C          -9.3814  -15.9262   22.8048 C.ar    1  UNL1        0.0030
     10 C          -8.9215  -17.1355   22.0458 C.ar    1  UNL1        0.0341
     11 C          -5.8382  -19.6328   21.9638 C.2     1  UNL1        0.1955
     12 O          -5.7494  -21.1233   22.1075 O.2     1  UNL1       -0.2866
     13 C          -4.6153  -18.7864   22.1586 C.ar    1  UNL1        0.0389
     14 C          -4.3072  -18.2135   23.5103 C.ar    1  UNL1        0.0032
     15 C          -3.0843  -17.3671   23.7051 C.ar    1  UNL1        0.0001
     16 C          -2.1694  -17.0935   22.5483 C.ar    1  UNL1        0.0000
     17 C          -2.4775  -17.6663   21.1966 C.ar    1  UNL1        0.0001
     18 C          -1.5627  -17.3927   20.0398 C.ar    1  UNL1        0.0000
     19 C          -1.8708  -17.9655   18.6881 C.ar    1  UNL1        0.0000
     20 C          -3.0938  -18.8119   18.4933 C.ar    1  UNL1        0.0000
     21 C          -4.0086  -19.0856   19.6501 C.ar    1  UNL1        0.0001
     22 C          -3.7005  -18.5128   21.0018 C.ar    1  UNL1        0.0031
     23 O         -11.0852  -17.0569   20.6096 O.3     1  UNL1       -0.4755
     24 C         -12.3510  -17.5567   21.2403 C.3     1  UNL1        0.2054
     25 C         -12.6244  -17.2859   22.6901 C.3     1  UNL1        0.0473
     26 C         -12.5263  -18.3978   23.6922 C.3     1  UNL1        0.0038
     27 C         -10.4333  -19.8893   24.0722 C.3     1  UNL1        0.0000
     28 C         -11.2285  -18.6597   24.3973 C.3     1  UNL1        0.0001
@<TRIPOS>BOND
     1    27    28    1
     2    28    26    1
     3    26    25    1
     4    25    24    1
     5    24    23    1
     6    23     1    1
     7     1     2   ar
     8     2     3   ar
     9     3     4   ar
    10     4    11    1
    11    11    12    2
    12    11    13    1
    13    13    14   ar
    14    14    15   ar
    15    15    16   ar
    16    16    17   ar
    17    17    18   ar
    18    18    19   ar
    19    19    20   ar
    20    20    21   ar
    21    21    22   ar
    22     4     5   ar
    23     5     6   ar
    24     6     7   ar
    25     7     8   ar
    26     8     9   ar
    27     9    10   ar
    28    10     1   ar
    29    22    13   ar
    30    10     5   ar
    31    22    17   ar
@<TRIPOS>MOLECULE
*****
 28 31 0 0 0
SMALL
GASTEIGER

@<TRIPOS>ATOM
      1 C         -14.2253   -7.1119   17.8427 C.ar    1  UNL1        0.1385
      2 C         -15.3408   -6.1650   18.1726 C.ar    1  UNL1        0.0370
      3 C         -15.0419   -4.8617   18.8525 C.ar    1  UNL1        0.0063
      4 C         -13.6275   -4.5055   19.2026 C.ar    1  UNL1        0.0391
      5 C         -12.5119   -5.4525   18.8727 C.ar    1  UNL1        0.0060
      6 C         -11.0975   -5.0963   19.2227 C.ar    1  UNL1        0.0002
      7 C          -9.9820   -6.0432   18.8928 C.ar    1  UNL1        0.0000
      8 C         -10.2809   -7.3465   18.2129 C.ar    1  UNL1        0.0001
      9 C         -11.6953   -7.7027   17.8628 C.ar    1  UNL1        0.0030
     10 C         -12.8108   -6.7557   18.1927 C.ar    1  UNL1        0.0341
     11 C         -13.3286   -3.2023   19.8825 C.2     1  UNL1        0.1955
     12 O         -13.4354   -3.0931   21.3747 O.2     1  UNL1       -0.2866
     13 C         -12.9229   -2.0083   19.0703 C.ar    1  UNL1        0.0389
     14 C         -11.5410   -1.9288   18.4922 C.ar    1  UNL1        0.0032
     15 C         -11.1353   -0.7349   17.6800 C.ar    1  UNL1        0.0001
     16 C         -12.1115    0.3797   17.4457 C.ar    1  UNL1        0.0000
     17 C         -13.4933    0.3003   18.0237 C.ar    1  UNL1        0.0001
     18 C         -14.4695    1.4148   17.7894 C.ar    1  UNL1        0.0000
     19 C         -15.8514    1.3353   18.3674 C.ar    1  UNL1        0.0000
     20 C         -16.2571    0.1413   19.1797 C.ar    1  UNL1        0.0000
     21 C         -15.2809   -0.9732   19.4140 C.ar    1  UNL1        0.0001
     22 C         -13.8991   -0.8938   18.8360 C.ar    1  UNL1        0.0031
     23 O         -14.5242   -8.4151   17.1628 O.3     1  UNL1       -0.4755
     24 C         -14.8579   -9.6281   17.9797 C.3     1  UNL1        0.2054
     25 C         -16.2746  -10.1152   18.0548 C.3     1  UNL1        0.0473
     26 C         -17.0418   -9.9956   19.3383 C.3     1  UNL1        0.0038
     27 C         -18.1411   -7.7683   20.1000 C.3     1  UNL1        0.0000
     28 C         -16.9847   -8.7231   20.1304 C.3     1  UNL1        0.0001
@<TRIPOS>BOND
     1    27    28    1
     2    28    26    1
     3    26    25    1
     4    25    24    1
     5    24    23    1
     6    23     1    1
     7     1     2   ar
     8     2     3   ar
     9     3     4   ar
    10     4    11    1
    11    11    12    2
    12    11    13    1
    13    13    14   ar
    14    14    15   ar
    15    15    16   ar
    16    16    17   ar
    17    17    18   ar
    18    18    19   ar
    19    19    20   ar
    20    20    21   ar
    21    21    22   ar
    22     4     5   ar
    23     5     6   ar
    24     6     7   ar
    25     7     8   ar
    26     8     9   ar
    27     9    10   ar
    28    10     1   ar
    29    22    13   ar
    30    10     5   ar
    31    22    17   ar
@<TRIPOS>MOLECULE
*****
 28 31 0 0 0
SMALL
GASTEIGER

@<TRIPOS>ATOM
      1 C           6.4744   -3.1509   24.3479 C.ar    1  UNL1        0.1385
      2 C           5.0468   -2.7479   24.1256 C.ar    1  UNL1        0.0370
      3 C           4.4361   -2.8724   22.7612 C.ar    1  UNL1        0.0063
      4 C           5.2530   -3.3999   21.6191 C.ar    1  UNL1        0.0391
      5 C           6.6807   -3.8030   21.8414 C.ar    1  UNL1        0.0060
      6 C           7.4976   -4.3306   20.6993 C.ar    1  UNL1        0.0002
      7 C           8.9252   -4.7336   20.9216 C.ar    1  UNL1        0.0000
      8 C           9.5359   -4.6091   22.2860 C.ar    1  UNL1        0.0001
      9 C           8.7190   -4.0815   23.4281 C.ar    1  UNL1        0.0030
     10 C           7.2914   -3.6785   23.2058 C.ar    1  UNL1        0.0341
     11 C           4.6423   -3.5244   20.2547 C.2     1  UNL1        0.1955
     12 O           3.9848   -4.8079   19.8416 O.2     1  UNL1       -0.2866
     13 C           4.6890   -2.3656   19.3035 C.ar    1  UNL1        0.0389
     14 C           5.8884   -2.1636   18.4257 C.ar    1  UNL1        0.0032
     15 C           5.9351   -1.0048   17.4745 C.ar    1  UNL1        0.0001
     16 C           4.7824   -0.0478   17.4011 C.ar    1  UNL1        0.0000
     17 C           3.5829   -0.2497   18.2789 C.ar    1  UNL1        0.0001
     18 C           2.4302    0.7073   18.2055 C.ar    1  UNL1        0.0000
     19 C           1.2307    0.5053   19.0833 C.ar    1  UNL1        0.0000
     20 C           1.1840   -0.6535   20.0345 C.ar    1  UNL1        0.0000
     21 C           2.3368   -1.6105   20.1079 C.ar    1  UNL1        0.0001
     22 C           3.5362   -1.4086   19.2301 C.ar    1  UNL1        0.0031
     23 O           7.0851   -3.0264   25.7122 O.3     1  UNL1       -0.4755
     24 C           6.7731   -4.0439   26.7693 C.3     1  UNL1        0.2054
     25 C           6.8254   -5.5066   26.4411 C.3     1  UNL1        0.0473
     26 C           8.1459   -6.2163   26.3871 C.3     1  UNL1        0.0038
     27 C           8.4351   -7.6164   24.2178 C.3     1  UNL1        0.0000
     28 C           8.2542   -7.5480   25.7052 C.3     1  UNL1        0.0001
@<TRIPOS>BOND
     1    27    28    1
     2    28    26    1
     3    26    25    1
     4    25    24    1
     5    24    23    1
     6    23     1    1
     7     1     2   ar
     8     2     3   ar
     9     3     4   ar
    10     4    11    1
    11    11    12    2
    12    11    13    1
    13    13    14   ar
    14    14    15   ar
    15    15    16   ar
    16    16    17   ar
    17    17    18   ar
    18    18    19   ar
    19    19    20   ar
    20    20    21   ar
    21    21    22   ar
    22     4     5   ar
    23     5     6   ar
    24     6     7   ar
    25     7     8   ar
    26     8     9   ar
    27     9    10   ar
    28    10     1   ar
    29    22    13   ar
    30    10     5   ar
    31    22    17   ar
@<TRIPOS>MOLECULE
*****
 28 31 0 0 0
SMALL
GASTEIGER

@<TRIPOS>ATOM
      1 C           6.0515   -1.0983   17.9077 C.ar    1  UNL1        0.1385
      2 C           6.9866   -2.0823   18.5460 C.ar    1  UNL1        0.0370
      3 C           6.5346   -2.8891   19.7270 C.ar    1  UNL1        0.0063
      4 C           5.1476   -2.7120   20.2697 C.ar    1  UNL1        0.0391
      5 C           4.2124   -1.7280   19.6315 C.ar    1  UNL1        0.0060
      6 C           2.8253   -1.5509   20.1743 C.ar    1  UNL1        0.0002
      7 C           1.8902   -0.5670   19.5360 C.ar    1  UNL1        0.0000
      8 C           2.3421    0.2399   18.3550 C.ar    1  UNL1        0.0001
      9 C           3.7292    0.0627   17.8122 C.ar    1  UNL1        0.0030
     10 C           4.6643   -0.9212   18.4505 C.ar    1  UNL1        0.0341
     11 C           4.6956   -3.5188   21.4508 C.2     1  UNL1        0.1955
     12 O           4.0273   -4.8453   21.2414 O.2     1  UNL1       -0.2866
     13 C           4.9120   -2.9992   22.8411 C.ar    1  UNL1        0.0389
     14 C           3.9812   -1.9698   23.4104 C.ar    1  UNL1        0.0032
     15 C           4.1976   -1.4501   24.8008 C.ar    1  UNL1        0.0001
     16 C           5.3447   -1.9599   25.6219 C.ar    1  UNL1        0.0000
     17 C           6.2755   -2.9892   25.0527 C.ar    1  UNL1        0.0001
     18 C           7.4226   -3.4990   25.8738 C.ar    1  UNL1        0.0000
     19 C           8.3534   -4.5284   25.3045 C.ar    1  UNL1        0.0000
     20 C           8.1370   -5.0480   23.9141 C.ar    1  UNL1        0.0000
     21 C           6.9899   -4.5383   23.0930 C.ar    1  UNL1        0.0001
     22 C           6.0591   -3.5089   23.6622 C.ar    1  UNL1        0.0031
     23 O           6.5034   -0.2915   16.7267 O.3     1  UNL1       -0.4755
     24 C           7.3166    0.9516   16.9346 C.3     1  UNL1        0.2054
     25 C           6.8908    1.9643   17.9560 C.3     1  UNL1        0.0473
     26 C           7.3220    1.8152   19.3850 C.3     1  UNL1        0.0038
     27 C           6.4458    0.5543   21.4807 C.3     1  UNL1        0.0000
     28 C           6.2945    1.6474   20.4648 C.3     1  UNL1        0.0001
@<TRIPOS>BOND
     1    27    28    1
     2    28    26    1
     3    26    25    1
     4    25    24    1
     5    24    23    1
     6    23     1    1
     7     1     2   ar
     8     2     3   ar
     9     3     4   ar
    10     4    11    1
    11    11    12    2
    12    11    13    1
    13    13    14   ar
    14    14    15   ar
    15    15    16   ar
    16    16    17   ar
    17    17    18   ar
    18    18    19   ar
    19    19    20   ar
    20    20    21   ar
    21    21    22   ar
    22     4     5   ar
    23     5     6   ar
    24     6     7   ar
    25     7     8   ar
    26     8     9   ar
    27     9    10   ar
    28    10     1   ar
    29    22    13   ar
    30    10     5   ar
    31    22    17   ar
@<TRIPOS>MOLECULE
*****
 28 31 0 0 0
SMALL
GASTEIGER

@<TRIPOS>ATOM
      1 C           6.2269   -1.0895   17.8328 C.ar    1  UNL1        0.1385
      2 C           7.1851   -2.0747   18.4339 C.ar    1  UNL1        0.0370
      3 C           6.7483   -2.9456   19.5744 C.ar    1  UNL1        0.0063
      4 C           5.3533   -2.8313   20.1138 C.ar    1  UNL1        0.0391
      5 C           4.3951   -1.8461   19.5128 C.ar    1  UNL1        0.0060
      6 C           3.0002   -1.7318   20.0522 C.ar    1  UNL1        0.0002
      7 C           2.0420   -0.7466   19.4512 C.ar    1  UNL1        0.0000
      8 C           2.4788    0.1243   18.3107 C.ar    1  UNL1        0.0001
      9 C           3.8737    0.0100   17.7712 C.ar    1  UNL1        0.0030
     10 C           4.8319   -0.9752   18.3723 C.ar    1  UNL1        0.0341
     11 C           4.9166   -3.7022   21.2543 C.2     1  UNL1        0.1955
     12 O           3.9276   -4.8054   21.0195 O.2     1  UNL1       -0.2866
     13 C           5.4687   -3.4700   22.6295 C.ar    1  UNL1        0.0389
     14 C           6.6518   -4.2596   23.1059 C.ar    1  UNL1        0.0032
     15 C           7.2039   -4.0275   24.4811 C.ar    1  UNL1        0.0001
     16 C           6.5730   -3.0057   25.3799 C.ar    1  UNL1        0.0000
     17 C           5.3900   -2.2161   24.9036 C.ar    1  UNL1        0.0001
     18 C           4.7591   -1.1943   25.8025 C.ar    1  UNL1        0.0000
     19 C           3.5760   -0.4047   25.3261 C.ar    1  UNL1        0.0000
     20 C           3.0239   -0.6369   23.9509 C.ar    1  UNL1        0.0000
     21 C           3.6548   -1.6587   23.0520 C.ar    1  UNL1        0.0001
     22 C           4.8378   -2.4483   23.5283 C.ar    1  UNL1        0.0031
     23 O           6.6637   -0.2185   16.6923 O.3     1  UNL1       -0.4755
     24 C           7.4170    1.0500   16.9631 C.3     1  UNL1        0.2054
     25 C           6.9358    1.9964   18.0228 C.3     1  UNL1        0.0473
     26 C           7.3242    1.7786   19.4552 C.3     1  UNL1        0.0038
     27 C           6.3528    0.4982   21.4965 C.3     1  UNL1        0.0000
     28 C           6.2635    1.6192   20.5039 C.3     1  UNL1        0.0001
@<TRIPOS>BOND
     1    27    28    1
     2    28    26    1
     3    26    25    1
     4    25    24    1
     5    24    23    1
     6    23     1    1
     7     1     2   ar
     8     2     3   ar
     9     3     4   ar
    10     4    11    1
    11    11    12    2
    12    11    13    1
    13    13    14   ar
    14    14    15   ar
    15    15    16   ar
    16    16    17   ar
    17    17    18   ar
    18    18    19   ar
    19    19    20   ar
    20    20    21   ar
    21    21    22   ar
    22     4     5   ar
    23     5     6   ar
    24     6     7   ar
    25     7     8   ar
    26     8     9   ar
    27     9    10   ar
    28    10     1   ar
    29    22    13   ar
    30    10     5   ar
    31    22    17   ar
@<TRIPOS>MOLECULE
*****
 28 31 0 0 0
SMALL
GASTEIGER

@<TRIPOS>ATOM
      1 C         -11.8102   -2.0398   18.6735 C.ar    1  UNL1        0.1385
      2 C         -11.8980   -0.6587   18.0949 C.ar    1  UNL1        0.0370
      3 C         -13.2193    0.0491   18.0405 C.ar    1  UNL1        0.0063
      4 C         -14.4529   -0.6241   18.5647 C.ar    1  UNL1        0.0391
      5 C         -14.3653   -2.0053   19.1434 C.ar    1  UNL1        0.0060
      6 C         -15.5989   -2.6785   19.6676 C.ar    1  UNL1        0.0002
      7 C         -15.5112   -4.0596   20.2462 C.ar    1  UNL1        0.0000
      8 C         -14.1898   -4.7674   20.3006 C.ar    1  UNL1        0.0001
      9 C         -12.9562   -4.0942   19.7764 C.ar    1  UNL1        0.0030
     10 C         -13.0439   -2.7131   19.1978 C.ar    1  UNL1        0.0341
     11 C         -15.7743    0.0837   18.5103 C.2     1  UNL1        0.1955
     12 O         -16.7321   -0.2008   17.3914 O.2     1  UNL1       -0.2866
     13 C         -16.1379    1.0761   19.5747 C.ar    1  UNL1        0.0389
     14 C         -16.8547    0.6208   20.8113 C.ar    1  UNL1        0.0032
     15 C         -17.2184    1.6131   21.8757 C.ar    1  UNL1        0.0001
     16 C         -16.8652    3.0607   21.7036 C.ar    1  UNL1        0.0000
     17 C         -16.1485    3.5161   20.4672 C.ar    1  UNL1        0.0001
     18 C         -15.7954    4.9637   20.2951 C.ar    1  UNL1        0.0000
     19 C         -15.0786    5.4190   19.0585 C.ar    1  UNL1        0.0000
     20 C         -14.7149    4.4267   17.9941 C.ar    1  UNL1        0.0000
     21 C         -15.0680    2.9791   18.1662 C.ar    1  UNL1        0.0001
     22 C         -15.7848    2.5237   19.4027 C.ar    1  UNL1        0.0031
     23 O         -10.4889   -2.7476   18.7279 O.3     1  UNL1       -0.4755
     24 C          -9.9963   -3.5093   17.5333 C.3     1  UNL1        0.2054
     25 C          -9.8127   -4.9958   17.6150 C.3     1  UNL1        0.0473
     26 C          -9.6349   -5.6573   18.9496 C.3     1  UNL1        0.0038
     27 C         -10.0701   -7.9830   17.8766 C.3     1  UNL1        0.0000
     28 C          -9.6464   -7.1537   19.0524 C.3     1  UNL1        0.0001
@<TRIPOS>BOND
     1    27    28    1
     2    28    26    1
     3    26    25    1
     4    25    24    1
     5    24    23    1
     6    23     1    1
     7     1     2   ar
     8     2     3   ar
     9     3     4   ar
    10     4    11    1
    11    11    12    2
    12    11    13    1
    13    13    14   ar
    14    14    15   ar
    15    15    16   ar
    16    16    17   ar
    17    17    18   ar
    18    18    19   ar
    19    19    20   ar
    20    20    21   ar
    21    21    22   ar
    22     4     5   ar
    23     5     6   ar
    24     6     7   ar
    25     7     8   ar
    26     8     9   ar
    27     9    10   ar
    28    10     1   ar
    29    22    13   ar
    30    10     5   ar
    31    22    17   ar
@<TRIPOS>MOLECULE
*****
 28 31 0 0 0
SMALL
GASTEIGER

@<TRIPOS>ATOM
      1 C           2.9808   -1.1570   21.5855 C.ar    1  UNL1        0.1385
      2 C           3.4999   -0.5326   22.8467 C.ar    1  UNL1        0.0370
      3 C           4.8225   -0.9637   23.4077 C.ar    1  UNL1        0.0063
      4 C           5.6261   -2.0191   22.7076 C.ar    1  UNL1        0.0391
      5 C           5.1069   -2.6436   21.4464 C.ar    1  UNL1        0.0060
      6 C           5.9105   -3.6991   20.7462 C.ar    1  UNL1        0.0002
      7 C           5.3914   -4.3235   19.4851 C.ar    1  UNL1        0.0000
      8 C           4.0687   -3.8924   18.9240 C.ar    1  UNL1        0.0001
      9 C           3.2652   -2.8369   19.6242 C.ar    1  UNL1        0.0030
     10 C           3.7843   -2.2125   20.8853 C.ar    1  UNL1        0.0341
     11 C           6.9487   -2.4502   23.2686 C.2     1  UNL1        0.1955
     12 O           8.2189   -1.8560   22.7360 O.2     1  UNL1       -0.2866
     13 C           7.0012   -3.4755   24.3622 C.ar    1  UNL1        0.0389
     14 C           6.4261   -3.1627   25.7119 C.ar    1  UNL1        0.0032
     15 C           6.4786   -4.1880   26.8055 C.ar    1  UNL1        0.0001
     16 C           7.1063   -5.5261   26.5495 C.ar    1  UNL1        0.0000
     17 C           7.6814   -5.8389   25.2000 C.ar    1  UNL1        0.0001
     18 C           8.3090   -7.1771   24.9440 C.ar    1  UNL1        0.0000
     19 C           8.8841   -7.4899   23.5943 C.ar    1  UNL1        0.0000
     20 C           8.8316   -6.4646   22.5007 C.ar    1  UNL1        0.0000
     21 C           8.2040   -5.1265   22.7567 C.ar    1  UNL1        0.0001
     22 C           7.6289   -4.8136   24.1063 C.ar    1  UNL1        0.0031
     23 O           1.6581   -0.7259   21.0245 O.3     1  UNL1       -0.4755
     24 C           1.5522    0.5573   20.2550 C.3     1  UNL1        0.2054
     25 C           2.0140    0.6170   18.8291 C.3     1  UNL1        0.0473
     26 C           3.4034    1.0835   18.5096 C.3     1  UNL1        0.0038
     27 C           3.7807   -0.8277   16.7906 C.3     1  UNL1        0.0000
     28 C           4.3338    0.1954   17.7379 C.3     1  UNL1        0.0001
@<TRIPOS>BOND
     1    27    28    1
     2    28    26    1
     3    26    25    1
     4    25    24    1
     5    24    23    1
     6    23     1    1
     7     1     2   ar
     8     2     3   ar
     9     3     4   ar
    10     4    11    1
    11    11    12    2
    12    11    13    1
    13    13    14   ar
    14    14    15   ar
    15    15    16   ar
    16    16    17   ar
    17    17    18   ar
    18    18    19   ar
    19    19    20   ar
    20    20    21   ar
    21    21    22   ar
    22     4     5   ar
    23     5     6   ar
    24     6     7   ar
    25     7     8   ar
    26     8     9   ar
    27     9    10   ar
    28    10     1   ar
    29    22    13   ar
    30    10     5   ar
    31    22    17   ar
