@<TRIPOS>MOLECULE
*****
 30 33 0 0 0
SMALL
GASTEIGER

@<TRIPOS>ATOM
      1 C          -7.3836  -19.3219   22.4621 C.ar    1  UNL1        0.1266
      2 C          -6.8852  -20.6724   22.0401 C.ar    1  UNL1        0.1128
      3 N          -5.5190  -20.8127   21.4369 N.ar    1  UNL1       -0.1925
      4 C          -4.6512  -19.6028   21.2557 C.ar    1  UNL1        0.3192
      5 O          -3.2851  -19.7431   20.6526 O.3     1  UNL1       -0.4783
      6 N          -5.1496  -18.2524   21.6777 N.ar    1  UNL1       -0.1587
      7 C          -6.5158  -18.1119   22.2809 C.ar    1  UNL1        0.2393
      8 H          -2.9737  -20.5867   20.3890 H       1  UNL1        0.2953
      9 C         -13.0032  -16.0923   20.1730 C.3     1  UNL1        0.1123
     10 N         -11.9398  -16.8646   20.8960 N.pl3   1  UNL1       -0.3031
     11 C         -10.5737  -17.0050   20.2929 C.3     1  UNL1        0.1128
     12 C          -9.5103  -17.7773   21.0159 C.3     1  UNL1        0.1199
     13 N          -9.8131  -18.4093   22.3422 N.am    1  UNL1       -0.2521
     14 C          -8.7498  -19.1816   23.0652 C.2     1  UNL1        0.2589
     15 O          -9.0527  -19.8135   24.3915 O.2     1  UNL1       -0.2693
     16 C         -11.1794  -18.2689   22.9454 C.ar    1  UNL1        0.0675
     17 C         -11.4822  -18.9008   24.2716 C.ar    1  UNL1        0.0162
     18 C         -12.8483  -18.7604   24.8748 C.ar    1  UNL1        0.0014
     19 C         -13.9117  -17.9881   24.1517 C.ar    1  UNL1        0.0014
     20 C         -13.6089  -17.3562   22.8255 C.ar    1  UNL1        0.0158
     21 C         -12.2427  -17.4966   22.2223 C.ar    1  UNL1        0.0618
     22 O          -7.0142  -16.7616   22.7028 O.3     1  UNL1       -0.4349
     23 C          -6.7486  -16.2649   24.0931 C.ar    1  UNL1        0.1585
     24 C          -7.8162  -16.3649   25.1419 C.ar    1  UNL1        0.0498
     25 C          -7.5506  -15.8682   26.5322 C.ar    1  UNL1        0.0608
     26 CL         -8.6183  -15.9683   27.5811 Cl      1  UNL1       -0.0821
     27 C          -6.2175  -15.2715   26.8735 C.ar    1  UNL1        0.0125
     28 C          -5.1498  -15.1714   25.8246 C.ar    1  UNL1        0.0153
     29 C          -5.4154  -15.6681   24.4344 C.ar    1  UNL1        0.0922
     30 CL         -4.3478  -15.5681   23.3855 Cl      1  UNL1       -0.0791
@<TRIPOS>BOND
     1     9    10    1
     2    10    11    1
     3    11    12    1
     4    12    13    1
     5    13    14   am
     6    14    15    2
     7    14     1    1
     8     1     2   ar
     9     2     3   ar
    10     3     4   ar
    11     4     5    1
    12     4     6   ar
    13     6     7   ar
    14     7    22    1
    15    22    23    1
    16    23    24   ar
    17    24    25   ar
    18    25    26    1
    19    25    27   ar
    20    27    28   ar
    21    28    29   ar
    22    29    30    1
    23    13    16    1
    24    16    17   ar
    25    17    18   ar
    26    18    19   ar
    27    19    20   ar
    28    20    21   ar
    29    21    10    1
    30     7     1   ar
    31    29    23   ar
    32    21    16   ar
    33     5     8    1
@<TRIPOS>MOLECULE
*****
 30 33 0 0 0
SMALL
GASTEIGER

@<TRIPOS>ATOM
      1 C          -5.7346  -16.0682   24.3390 C.ar    1  UNL1        0.1266
      2 C          -5.2830  -16.0463   25.7693 C.ar    1  UNL1        0.1128
      3 N          -6.2321  -15.6181   26.8490 N.ar    1  UNL1       -0.1925
      4 C          -7.6328  -15.2118   26.4985 C.ar    1  UNL1        0.3192
      5 O          -8.5819  -14.7836   27.5782 O.3     1  UNL1       -0.4783
      6 N          -8.0845  -15.2337   25.0684 N.ar    1  UNL1       -0.1587
      7 C          -7.1354  -15.6620   23.9886 C.ar    1  UNL1        0.2393
      8 H          -8.2998  -14.7699   28.4717 H       1  UNL1        0.2953
      9 C          -5.8232  -21.5401   20.1796 C.3     1  UNL1        0.1123
     10 N          -5.5638  -20.2791   20.9495 N.pl3   1  UNL1       -0.3031
     11 C          -6.5129  -19.8509   22.0292 C.3     1  UNL1        0.1128
     12 C          -6.2535  -18.5900   22.7992 C.3     1  UNL1        0.1199
     13 N          -5.0449  -17.7573   22.4894 N.am    1  UNL1       -0.2521
     14 C          -4.7855  -16.4964   23.2593 C.2     1  UNL1        0.2589
     15 O          -3.5769  -15.6637   22.9495 O.2     1  UNL1       -0.2693
     16 C          -4.0957  -18.1855   21.4097 C.ar    1  UNL1        0.0675
     17 C          -2.8872  -17.3528   21.0999 C.ar    1  UNL1        0.0162
     18 C          -1.9381  -17.7810   20.0202 C.ar    1  UNL1        0.0014
     19 C          -2.1975  -19.0419   19.2503 C.ar    1  UNL1        0.0014
     20 C          -3.4061  -19.8746   19.5600 C.ar    1  UNL1        0.0158
     21 C          -4.3552  -19.4464   20.6397 C.ar    1  UNL1        0.0618
     22 O          -7.5870  -15.6839   22.5584 O.3     1  UNL1       -0.4349
     23 C          -8.9614  -16.1759   22.2133 C.ar    1  UNL1        0.1585
     24 C          -9.5277  -17.3736   22.9166 C.ar    1  UNL1        0.0498
     25 C         -10.9021  -17.8656   22.5716 C.ar    1  UNL1        0.0608
     26 CL        -11.4684  -19.0634   23.2750 Cl      1  UNL1       -0.0821
     27 C         -11.7101  -17.1599   21.5233 C.ar    1  UNL1        0.0125
     28 C         -11.1438  -15.9621   20.8199 C.ar    1  UNL1        0.0153
     29 C          -9.7694  -15.4701   21.1649 C.ar    1  UNL1        0.0922
     30 CL         -9.2031  -14.2724   20.4616 Cl      1  UNL1       -0.0791
@<TRIPOS>BOND
     1     9    10    1
     2    10    11    1
     3    11    12    1
     4    12    13    1
     5    13    14   am
     6    14    15    2
     7    14     1    1
     8     1     2   ar
     9     2     3   ar
    10     3     4   ar
    11     4     5    1
    12     4     6   ar
    13     6     7   ar
    14     7    22    1
    15    22    23    1
    16    23    24   ar
    17    24    25   ar
    18    25    26    1
    19    25    27   ar
    20    27    28   ar
    21    28    29   ar
    22    29    30    1
    23    13    16    1
    24    16    17   ar
    25    17    18   ar
    26    18    19   ar
    27    19    20   ar
    28    20    21   ar
    29    21    10    1
    30     7     1   ar
    31    29    23   ar
    32    21    16   ar
    33     5     8    1
@<TRIPOS>MOLECULE
*****
 30 33 0 0 0
SMALL
GASTEIGER

@<TRIPOS>ATOM
      1 C         -13.3973   -5.7715   17.1695 C.ar    1  UNL1        0.1266
      2 C         -12.3332   -5.9107   16.1214 C.ar    1  UNL1        0.1128
      3 N         -11.1805   -6.8447   16.3423 N.ar    1  UNL1       -0.1925
      4 C         -11.0918   -7.6395   17.6113 C.ar    1  UNL1        0.3192
      5 O          -9.9390   -8.5735   17.8322 O.3     1  UNL1       -0.4783
      6 N         -12.1558   -7.5004   18.6594 N.ar    1  UNL1       -0.1587
      7 C         -13.3086   -6.5664   18.4385 C.ar    1  UNL1        0.2393
      8 H          -9.2744   -8.6604   17.1775 H       1  UNL1        0.2953
      9 C         -14.0913    0.9259   18.5524 C.3     1  UNL1        0.1123
     10 N         -14.2060   -0.5149   18.1514 N.pl3   1  UNL1       -0.3031
     11 C         -13.0533   -1.4489   18.3723 C.3     1  UNL1        0.1128
     12 C         -13.1679   -2.8898   17.9714 C.3     1  UNL1        0.1199
     13 N         -14.4353   -3.3967   17.3496 N.am    1  UNL1       -0.2521
     14 C         -14.5500   -4.8375   16.9486 C.2     1  UNL1        0.2589
     15 O         -15.8175   -5.3444   16.3267 O.2     1  UNL1       -0.2693
     16 C         -15.5881   -2.4626   17.1286 C.ar    1  UNL1        0.0675
     17 C         -16.8555   -2.9695   16.5068 C.ar    1  UNL1        0.0162
     18 C         -18.0083   -2.0355   16.2859 C.ar    1  UNL1        0.0014
     19 C         -17.8936   -0.5947   16.6868 C.ar    1  UNL1        0.0014
     20 C         -16.6262   -0.0878   17.3086 C.ar    1  UNL1        0.0158
     21 C         -15.4735   -1.0218   17.5295 C.ar    1  UNL1        0.0618
     22 O         -14.3726   -6.4273   19.4866 O.3     1  UNL1       -0.4349
     23 C         -15.6615   -7.1826   19.3517 C.ar    1  UNL1        0.1585
     24 C         -15.6415   -8.6603   19.0950 C.ar    1  UNL1        0.0498
     25 C         -16.9304   -9.4156   18.9601 C.ar    1  UNL1        0.0608
     26 CL        -16.9104  -10.8934   18.7034 Cl      1  UNL1       -0.0821
     27 C         -18.2393   -8.6933   19.0820 C.ar    1  UNL1        0.0125
     28 C         -18.2594   -7.2155   19.3388 C.ar    1  UNL1        0.0153
     29 C         -16.9704   -6.4602   19.4736 C.ar    1  UNL1        0.0922
     30 CL        -16.9904   -4.9825   19.7303 Cl      1  UNL1       -0.0791
@<TRIPOS>BOND
     1     9    10    1
     2    10    11    1
     3    11    12    1
     4    12    13    1
     5    13    14   am
     6    14    15    2
     7    14     1    1
     8     1     2   ar
     9     2     3   ar
    10     3     4   ar
    11     4     5    1
    12     4     6   ar
    13     6     7   ar
    14     7    22    1
    15    22    23    1
    16    23    24   ar
    17    24    25   ar
    18    25    26    1
    19    25    27   ar
    20    27    28   ar
    21    28    29   ar
    22    29    30    1
    23    13    16    1
    24    16    17   ar
    25    17    18   ar
    26    18    19   ar
    27    19    20   ar
    28    20    21   ar
    29    21    10    1
    30     7     1   ar
    31    29    23   ar
    32    21    16   ar
    33     5     8    1
@<TRIPOS>MOLECULE
*****
 30 33 0 0 0
SMALL
GASTEIGER

@<TRIPOS>ATOM
      1 C           8.1737   -3.1423   21.1129 C.ar    1  UNL1        0.1266
      2 C           9.4919   -2.5447   20.7186 C.ar    1  UNL1        0.1128
      3 N           9.5359   -1.3904   19.7618 N.ar    1  UNL1       -0.1925
      4 C           8.2618   -0.8335   19.1992 C.ar    1  UNL1        0.3192
      5 O           8.3058    0.3208   18.2424 O.3     1  UNL1       -0.4783
      6 N           6.9437   -1.4310   19.5935 N.ar    1  UNL1       -0.1587
      7 C           6.8996   -2.5854   20.5503 C.ar    1  UNL1        0.2393
      8 H           9.1292    0.6940   17.9961 H       1  UNL1        0.2953
      9 C           6.3458   -3.4328   27.7329 C.3     1  UNL1        0.1123
     10 N           6.7918   -3.6487   26.3171 N.pl3   1  UNL1       -0.3031
     11 C           6.8358   -2.4944   25.3603 C.3     1  UNL1        0.1128
     12 C           7.2818   -2.7104   23.9445 C.3     1  UNL1        0.1199
     13 N           7.6837   -4.0806   23.4855 N.am    1  UNL1       -0.2521
     14 C           8.1297   -4.2966   22.0697 C.2     1  UNL1        0.2589
     15 O           8.5316   -5.6670   21.6108 O.2     1  UNL1       -0.2693
     16 C           7.6397   -5.2351   24.4423 C.ar    1  UNL1        0.0675
     17 C           8.0417   -6.6054   23.9834 C.ar    1  UNL1        0.0162
     18 C           7.9976   -7.7597   24.9402 C.ar    1  UNL1        0.0014
     19 C           7.5517   -7.5437   26.3560 C.ar    1  UNL1        0.0014
     20 C           7.1497   -6.1734   26.8150 C.ar    1  UNL1        0.0158
     21 C           7.1938   -5.0191   25.8581 C.ar    1  UNL1        0.0618
     22 O           5.5814   -3.1828   20.9446 O.3     1  UNL1       -0.4349
     23 C           4.3722   -2.3063   21.0834 C.ar    1  UNL1        0.1585
     24 C           4.0636   -1.6569   22.3998 C.ar    1  UNL1        0.0498
     25 C           2.8543   -0.7804   22.5386 C.ar    1  UNL1        0.0608
     26 CL          2.5458   -0.1310   23.8552 Cl      1  UNL1       -0.0821
     27 C           1.9536   -0.5531   21.3609 C.ar    1  UNL1        0.0125
     28 C           2.2621   -1.2024   20.0444 C.ar    1  UNL1        0.0153
     29 C           3.4714   -2.0790   19.9056 C.ar    1  UNL1        0.0922
     30 CL          3.7799   -2.7283   18.5891 Cl      1  UNL1       -0.0791
@<TRIPOS>BOND
     1     9    10    1
     2    10    11    1
     3    11    12    1
     4    12    13    1
     5    13    14   am
     6    14    15    2
     7    14     1    1
     8     1     2   ar
     9     2     3   ar
    10     3     4   ar
    11     4     5    1
    12     4     6   ar
    13     6     7   ar
    14     7    22    1
    15    22    23    1
    16    23    24   ar
    17    24    25   ar
    18    25    26    1
    19    25    27   ar
    20    27    28   ar
    21    28    29   ar
    22    29    30    1
    23    13    16    1
    24    16    17   ar
    25    17    18   ar
    26    18    19   ar
    27    19    20   ar
    28    20    21   ar
    29    21    10    1
    30     7     1   ar
    31    29    23   ar
    32    21    16   ar
    33     5     8    1
@<TRIPOS>MOLECULE
*****
 30 33 0 0 0
SMALL
GASTEIGER

@<TRIPOS>ATOM
      1 C           4.2306   -2.1077   21.0483 C.ar    1  UNL1        0.1266
      2 C           4.1206   -2.3519   22.5242 C.ar    1  UNL1        0.1128
      3 N           5.0304   -3.3409   23.1906 N.ar    1  UNL1       -0.1925
      4 C           6.0501   -4.0858   22.3811 C.ar    1  UNL1        0.3192
      5 O           6.9598   -5.0749   23.0475 O.3     1  UNL1       -0.4783
      6 N           6.1601   -3.8417   20.9053 N.ar    1  UNL1       -0.1587
      7 C           5.2504   -2.8526   20.2388 C.ar    1  UNL1        0.2393
      8 H           6.8911   -5.2274   23.9695 H       1  UNL1        0.2953
      9 C           4.8603    4.6749   20.1261 C.3     1  UNL1        0.1123
     10 N           4.4755    3.2265   20.1901 N.pl3   1  UNL1       -0.3031
     11 C           5.3852    2.2374   20.8565 C.3     1  UNL1        0.1128
     12 C           5.0003    0.7891   20.9204 C.3     1  UNL1        0.1199
     13 N           3.7057    0.3297   20.3179 N.am    1  UNL1       -0.2521
     14 C           3.3209   -1.1186   20.3819 C.2     1  UNL1        0.2589
     15 O           2.0262   -1.5779   19.7794 O.2     1  UNL1       -0.2693
     16 C           2.7959    1.3188   19.6515 C.ar    1  UNL1        0.0675
     17 C           1.5013    0.8595   19.0490 C.ar    1  UNL1        0.0162
     18 C           0.5916    1.8485   18.3826 C.ar    1  UNL1        0.0014
     19 C           0.9765    3.2969   18.3187 C.ar    1  UNL1        0.0014
     20 C           2.2711    3.7562   18.9212 C.ar    1  UNL1        0.0158
     21 C           3.1808    2.7672   19.5876 C.ar    1  UNL1        0.0618
     22 O           5.3604   -2.6084   18.7629 O.3     1  UNL1       -0.4349
     23 C           6.0170   -1.3585   18.2564 C.ar    1  UNL1        0.1585
     24 C           7.3879   -0.9842   18.7363 C.ar    1  UNL1        0.0498
     25 C           8.0445    0.2657   18.2297 C.ar    1  UNL1        0.0608
     26 CL          9.4156    0.6401   18.7097 Cl      1  UNL1       -0.0821
     27 C           7.3302    1.1413   17.2433 C.ar    1  UNL1        0.0125
     28 C           5.9592    0.7670   16.7633 C.ar    1  UNL1        0.0153
     29 C           5.3026   -0.4829   17.2699 C.ar    1  UNL1        0.0922
     30 CL          3.9316   -0.8573   16.7900 Cl      1  UNL1       -0.0791
@<TRIPOS>BOND
     1     9    10    1
     2    10    11    1
     3    11    12    1
     4    12    13    1
     5    13    14   am
     6    14    15    2
     7    14     1    1
     8     1     2   ar
     9     2     3   ar
    10     3     4   ar
    11     4     5    1
    12     4     6   ar
    13     6     7   ar
    14     7    22    1
    15    22    23    1
    16    23    24   ar
    17    24    25   ar
    18    25    26    1
    19    25    27   ar
    20    27    28   ar
    21    28    29   ar
    22    29    30    1
    23    13    16    1
    24    16    17   ar
    25    17    18   ar
    26    18    19   ar
    27    19    20   ar
    28    20    21   ar
    29    21    10    1
    30     7     1   ar
    31    29    23   ar
    32    21    16   ar
    33     5     8    1
@<TRIPOS>MOLECULE
*****
 30 33 0 0 0
SMALL
GASTEIGER

@<TRIPOS>ATOM
      1 C           0.7513    4.4291   18.5934 C.ar    1  UNL1        0.1266
      2 C           1.2971    5.7860   18.9268 C.ar    1  UNL1        0.1128
      3 N           2.7652    5.9627   19.1788 N.ar    1  UNL1       -0.1925
      4 C           3.6875    4.7826   19.0974 C.ar    1  UNL1        0.3192
      5 O           5.1556    4.9594   19.3494 O.3     1  UNL1       -0.4783
      6 N           3.1418    3.4258   18.7641 N.ar    1  UNL1       -0.1587
      7 C           1.6737    3.2490   18.5120 C.ar    1  UNL1        0.2393
      8 H           5.4965    5.8069   19.5577 H       1  UNL1        0.2953
      9 C          -4.4537    3.2831   22.9344 C.3     1  UNL1        0.1123
     10 N          -3.5195    3.5255   21.7861 N.pl3   1  UNL1       -0.3031
     11 C          -2.0514    3.7022   22.0381 C.3     1  UNL1        0.1128
     12 C          -1.1172    3.9445   20.8899 C.3     1  UNL1        0.1199
     13 N          -1.6510    4.0101   19.4897 N.am    1  UNL1       -0.2521
     14 C          -0.7167    4.2524   18.3414 C.2     1  UNL1        0.2589
     15 O          -1.2506    4.3180   16.9411 O.2     1  UNL1       -0.2693
     16 C          -3.1191    3.8334   19.2376 C.ar    1  UNL1        0.0675
     17 C          -3.6529    3.8990   17.8374 C.ar    1  UNL1        0.0162
     18 C          -5.1209    3.7223   17.5854 C.ar    1  UNL1        0.0014
     19 C          -6.0552    3.4799   18.7336 C.ar    1  UNL1        0.0014
     20 C          -5.5214    3.4143   20.1338 C.ar    1  UNL1        0.0158
     21 C          -4.0533    3.5911   20.3858 C.ar    1  UNL1        0.0618
     22 O           1.1280    1.8922   18.1787 O.3     1  UNL1       -0.4349
     23 C           1.8159    0.6609   18.6893 C.ar    1  UNL1        0.1585
     24 C           2.9588    0.0669   17.9207 C.ar    1  UNL1        0.0498
     25 C           3.6466   -1.1643   18.4314 C.ar    1  UNL1        0.0608
     26 CL          4.7896   -1.7583   17.6627 Cl      1  UNL1       -0.0821
     27 C           3.1916   -1.8016   19.7107 C.ar    1  UNL1        0.0125
     28 C           2.0486   -1.2076   20.4795 C.ar    1  UNL1        0.0153
     29 C           1.3607    0.0237   19.9688 C.ar    1  UNL1        0.0922
     30 CL          0.2178    0.6177   20.7374 Cl      1  UNL1       -0.0791
@<TRIPOS>BOND
     1     9    10    1
     2    10    11    1
     3    11    12    1
     4    12    13    1
     5    13    14   am
     6    14    15    2
     7    14     1    1
     8     1     2   ar
     9     2     3   ar
    10     3     4   ar
    11     4     5    1
    12     4     6   ar
    13     6     7   ar
    14     7    22    1
    15    22    23    1
    16    23    24   ar
    17    24    25   ar
    18    25    26    1
    19    25    27   ar
    20    27    28   ar
    21    28    29   ar
    22    29    30    1
    23    13    16    1
    24    16    17   ar
    25    17    18   ar
    26    18    19   ar
    27    19    20   ar
    28    20    21   ar
    29    21    10    1
    30     7     1   ar
    31    29    23   ar
    32    21    16   ar
    33     5     8    1
@<TRIPOS>MOLECULE
*****
 30 33 0 0 0
SMALL
GASTEIGER

@<TRIPOS>ATOM
      1 C           2.0004    0.4496   21.9782 C.ar    1  UNL1        0.1266
      2 C           2.0216    0.9028   23.4080 C.ar    1  UNL1        0.1128
      3 N           2.7461    0.0918   24.4411 N.ar    1  UNL1       -0.1925
      4 C           3.4493   -1.1724   24.0445 C.ar    1  UNL1        0.3192
      5 O           4.1738   -1.9834   25.0777 O.3     1  UNL1       -0.4783
      6 N           3.4281   -1.6256   22.6148 N.ar    1  UNL1       -0.1587
      7 C           2.7036   -0.8146   21.5816 C.ar    1  UNL1        0.2393
      8 H           4.1871   -1.7003   25.9708 H       1  UNL1        0.2953
      9 C           4.1743    5.5689   17.9389 C.3     1  UNL1        0.1123
     10 N           3.4497    4.4918   18.6904 N.pl3   1  UNL1       -0.3031
     11 C           4.1741    3.6809   19.7235 C.3     1  UNL1        0.1128
     12 C           3.4496    2.6038   20.4751 C.3     1  UNL1        0.1199
     13 N           2.0005    2.3377   20.1935 N.am    1  UNL1       -0.2521
     14 C           1.2759    1.2606   20.9451 C.2     1  UNL1        0.2589
     15 O          -0.1733    0.9945   20.6634 O.2     1  UNL1       -0.2693
     16 C           1.2759    3.1487   19.1603 C.ar    1  UNL1        0.0675
     17 C          -0.1732    2.8826   18.8788 C.ar    1  UNL1        0.0162
     18 C          -0.8976    3.6935   17.8457 C.ar    1  UNL1        0.0014
     19 C          -0.1730    4.7706   17.0941 C.ar    1  UNL1        0.0014
     20 C           1.2760    5.0367   17.3757 C.ar    1  UNL1        0.0158
     21 C           2.0005    4.2258   18.4088 C.ar    1  UNL1        0.0618
     22 O           2.6824   -1.2678   20.1519 O.3     1  UNL1       -0.4349
     23 C           3.9677   -1.5841   19.4462 C.ar    1  UNL1        0.1585
     24 C           4.9858   -0.5055   19.2228 C.ar    1  UNL1        0.0498
     25 C           6.2711   -0.8219   18.5171 C.ar    1  UNL1        0.0608
     26 CL          7.2892    0.2568   18.2937 Cl      1  UNL1       -0.0821
     27 C           6.5383   -2.2169   18.0349 C.ar    1  UNL1        0.0125
     28 C           5.5201   -3.2956   18.2583 C.ar    1  UNL1        0.0153
     29 C           4.2348   -2.9792   18.9640 C.ar    1  UNL1        0.0922
     30 CL          3.2167   -4.0578   19.1874 Cl      1  UNL1       -0.0791
@<TRIPOS>BOND
     1     9    10    1
     2    10    11    1
     3    11    12    1
     4    12    13    1
     5    13    14   am
     6    14    15    2
     7    14     1    1
     8     1     2   ar
     9     2     3   ar
    10     3     4   ar
    11     4     5    1
    12     4     6   ar
    13     6     7   ar
    14     7    22    1
    15    22    23    1
    16    23    24   ar
    17    24    25   ar
    18    25    26    1
    19    25    27   ar
    20    27    28   ar
    21    28    29   ar
    22    29    30    1
    23    13    16    1
    24    16    17   ar
    25    17    18   ar
    26    18    19   ar
    27    19    20   ar
    28    20    21   ar
    29    21    10    1
    30     7     1   ar
    31    29    23   ar
    32    21    16   ar
    33     5     8    1
@<TRIPOS>MOLECULE
*****
 30 33 0 0 0
SMALL
GASTEIGER

@<TRIPOS>ATOM
      1 C           4.0439    1.7566   37.1930 C.ar    1  UNL1        0.1266
      2 C           3.7456    1.0234   38.4672 C.ar    1  UNL1        0.1128
      3 N           2.4256    1.2173   39.1527 N.ar    1  UNL1       -0.1925
      4 C           1.4038    2.1443   38.5640 C.ar    1  UNL1        0.3192
      5 O           0.0838    2.3381   39.2495 O.3     1  UNL1       -0.4783
      6 N           1.7020    2.8775   37.2899 N.ar    1  UNL1       -0.1587
      7 C           3.0221    2.6836   36.6044 C.ar    1  UNL1        0.2393
      8 H          -0.1025    1.8801   40.0454 H       1  UNL1        0.2953
      9 C           5.9976   -2.7472   32.3817 C.3     1  UNL1        0.1123
     10 N           5.8392   -1.6697   33.4132 N.pl3   1  UNL1       -0.3031
     11 C           4.5191   -1.4759   34.0987 C.3     1  UNL1        0.1128
     12 C           4.3607   -0.3984   35.1301 C.3     1  UNL1        0.1199
     13 N           5.5223    0.4853   35.4761 N.am    1  UNL1       -0.2521
     14 C           5.3639    1.5628   36.5075 C.2     1  UNL1        0.2589
     15 O           6.5256    2.4465   36.8535 O.2     1  UNL1       -0.2693
     16 C           6.8424    0.2915   34.7906 C.ar    1  UNL1        0.0675
     17 C           8.0041    1.1752   35.1366 C.ar    1  UNL1        0.0162
     18 C           9.3241    0.9813   34.4511 C.ar    1  UNL1        0.0014
     19 C           9.4825   -0.0962   33.4196 C.ar    1  UNL1        0.0014
     20 C           8.3209   -0.9798   33.0737 C.ar    1  UNL1        0.0158
     21 C           7.0009   -0.7860   33.7591 C.ar    1  UNL1        0.0618
     22 O           3.3203    3.4168   35.3302 O.3     1  UNL1       -0.4349
     23 C           2.4408    3.2240   34.1305 C.ar    1  UNL1        0.1585
     24 C           2.6857    2.0750   33.1980 C.ar    1  UNL1        0.0498
     25 C           1.8062    1.8821   31.9982 C.ar    1  UNL1        0.0608
     26 CL          2.0511    0.7330   31.0657 Cl      1  UNL1       -0.0821
     27 C           0.6819    2.8384   31.7310 C.ar    1  UNL1        0.0125
     28 C           0.4369    3.9875   32.6636 C.ar    1  UNL1        0.0153
     29 C           1.3164    4.1803   33.8633 C.ar    1  UNL1        0.0922
     30 CL          1.0715    5.3294   34.7958 Cl      1  UNL1       -0.0791
@<TRIPOS>BOND
     1     9    10    1
     2    10    11    1
     3    11    12    1
     4    12    13    1
     5    13    14   am
     6    14    15    2
     7    14     1    1
     8     1     2   ar
     9     2     3   ar
    10     3     4   ar
    11     4     5    1
    12     4     6   ar
    13     6     7   ar
    14     7    22    1
    15    22    23    1
    16    23    24   ar
    17    24    25   ar
    18    25    26    1
    19    25    27   ar
    20    27    28   ar
    21    28    29   ar
    22    29    30    1
    23    13    16    1
    24    16    17   ar
    25    17    18   ar
    26    18    19   ar
    27    19    20   ar
    28    20    21   ar
    29    21    10    1
    30     7     1   ar
    31    29    23   ar
    32    21    16   ar
    33     5     8    1
@<TRIPOS>MOLECULE
*****
 30 33 0 0 0
SMALL
GASTEIGER

@<TRIPOS>ATOM
      1 C          -5.8649  -16.8313   24.2427 C.ar    1  UNL1        0.1266
      2 C          -5.0046  -16.7968   25.4710 C.ar    1  UNL1        0.1128
      3 N          -5.3600  -15.8884   26.6105 N.ar    1  UNL1       -0.1925
      4 C          -6.5758  -15.0144   26.5217 C.ar    1  UNL1        0.3192
      5 O          -6.9313  -14.1060   27.6611 O.3     1  UNL1       -0.4783
      6 N          -7.4362  -15.0488   25.2935 N.ar    1  UNL1       -0.1587
      7 C          -7.0807  -15.9572   24.1539 C.ar    1  UNL1        0.2393
      8 H          -6.3939  -14.0845   28.4284 H       1  UNL1        0.2953
      9 C          -0.3843  -16.9143   20.0948 C.3     1  UNL1        0.1123
     10 N          -1.6656  -17.1206   20.8469 N.pl3   1  UNL1       -0.3031
     11 C          -2.0210  -16.2122   21.9863 C.3     1  UNL1        0.1128
     12 C          -3.3023  -16.4186   22.7385 C.3     1  UNL1        0.1199
     13 N          -4.2282  -17.5333   22.3511 N.am    1  UNL1       -0.2521
     14 C          -5.5095  -17.7397   23.1033 C.2     1  UNL1        0.2589
     15 O          -6.4353  -18.8545   22.7159 O.2     1  UNL1       -0.2693
     16 C          -3.8727  -18.4418   21.2116 C.ar    1  UNL1        0.0675
     17 C          -4.7986  -19.5566   20.8243 C.ar    1  UNL1        0.0162
     18 C          -4.4431  -20.4650   19.6849 C.ar    1  UNL1        0.0014
     19 C          -3.1618  -20.2586   18.9327 C.ar    1  UNL1        0.0014
     20 C          -2.2360  -19.1439   19.3201 C.ar    1  UNL1        0.0158
     21 C          -2.5914  -18.2355   20.4595 C.ar    1  UNL1        0.0618
     22 O          -7.9411  -15.9916   22.9257 O.3     1  UNL1       -0.4349
     23 C          -9.2333  -16.7531   22.9362 C.ar    1  UNL1        0.1585
     24 C          -9.4638  -17.8251   23.9598 C.ar    1  UNL1        0.0498
     25 C         -10.7561  -18.5867   23.9703 C.ar    1  UNL1        0.0608
     26 CL        -10.9865  -19.6587   24.9939 Cl      1  UNL1       -0.0821
     27 C         -11.8179  -18.2762   22.9574 C.ar    1  UNL1        0.0125
     28 C         -11.5874  -17.2042   21.9338 C.ar    1  UNL1        0.0153
     29 C         -10.2952  -16.4426   21.9232 C.ar    1  UNL1        0.0922
     30 CL        -10.0647  -15.3706   20.8997 Cl      1  UNL1       -0.0791
@<TRIPOS>BOND
     1     9    10    1
     2    10    11    1
     3    11    12    1
     4    12    13    1
     5    13    14   am
     6    14    15    2
     7    14     1    1
     8     1     2   ar
     9     2     3   ar
    10     3     4   ar
    11     4     5    1
    12     4     6   ar
    13     6     7   ar
    14     7    22    1
    15    22    23    1
    16    23    24   ar
    17    24    25   ar
    18    25    26    1
    19    25    27   ar
    20    27    28   ar
    21    28    29   ar
    22    29    30    1
    23    13    16    1
    24    16    17   ar
    25    17    18   ar
    26    18    19   ar
    27    19    20   ar
    28    20    21   ar
    29    21    10    1
    30     7     1   ar
    31    29    23   ar
    32    21    16   ar
    33     5     8    1
