@<TRIPOS>MOLECULE
*****
 29 31 0 0 0
SMALL
GASTEIGER

@<TRIPOS>ATOM
      1 C          -6.5080  -18.4747   22.3506 C.ar    1  UNL1        0.0534
      2 C          -6.3478  -19.0054   20.9567 C.ar    1  UNL1        0.0045
      3 C          -5.0178  -18.9170   20.2688 C.ar    1  UNL1        0.0001
      4 C          -3.8480  -18.2978   20.9747 C.ar    1  UNL1        0.0001
      5 C          -4.0082  -17.7671   22.3685 C.ar    1  UNL1        0.0001
      6 C          -5.3382  -17.8556   23.0564 C.ar    1  UNL1        0.0045
      7 C          -2.5180  -18.2093   20.2868 C.ar    1  UNL1        0.0043
      8 C          -1.2523  -18.2982   21.0870 C.ar    1  UNL1        0.0208
      9 C           0.0777  -18.2097   20.3991 C.ar    1  UNL1        0.1003
     10 N           0.1421  -18.0324   18.9110 N.ar    1  UNL1       -0.2296
     11 C          -1.1236  -17.9436   18.1108 C.ar    1  UNL1        0.1254
     12 N          -1.0592  -17.7663   16.6227 N.pl3   1  UNL1       -0.3426
     13 C          -2.4536  -18.0321   18.7987 C.ar    1  UNL1        0.0339
     14 H          -0.1863  -17.7083   16.1711 H       1  UNL1        0.1437
     15 H          -1.8899  -17.7080   16.0975 H       1  UNL1        0.1437
     16 N          -8.6104  -19.8488   23.0153 N.am    1  UNL1       -0.2987
     17 C          -7.8380  -18.5632   23.0385 C.2     1  UNL1        0.2460
     18 O          -8.3957  -17.3659   23.7496 O.2     1  UNL1       -0.2701
     19 H          -8.2444  -20.6346   22.5486 H       1  UNL1        0.1500
     20 C          -9.9404  -19.9373   23.7032 C.3     1  UNL1        0.0945
     21 C         -10.1245  -20.8709   24.8627 C.3     1  UNL1        0.0262
     22 C         -12.2468  -17.7188   21.3562 C.ar    1  UNL1        0.1385
     23 C         -13.3781  -17.4014   22.2885 C.ar    1  UNL1        0.0369
     24 C         -13.3635  -17.9293   23.6925 C.ar    1  UNL1        0.0028
     25 C         -12.2177  -18.7746   24.1641 C.ar    1  UNL1       -0.0025
     26 C         -11.0864  -19.0920   23.2317 C.ar    1  UNL1       -0.0015
     27 C         -11.1009  -18.5641   21.8277 C.ar    1  UNL1        0.0342
     28 C         -11.5442  -15.9153   19.6231 C.3     1  UNL1        0.2525
     29 O         -12.2614  -17.1909   19.9522 O.3     1  UNL1       -0.4714
@<TRIPOS>BOND
     1    28    29    1
     2    29    22    1
     3    22    23   ar
     4    23    24   ar
     5    24    25   ar
     6    25    26   ar
     7    26    20    1
     8    20    21    1
     9    20    16    1
    10    16    17   am
    11    17    18    2
    12    17     1    1
    13     1     2   ar
    14     2     3   ar
    15     3     4   ar
    16     4     7    1
    17     7     8   ar
    18     8     9   ar
    19     9    10   ar
    20    10    11   ar
    21    11    12    1
    22    11    13   ar
    23     4     5   ar
    24     5     6   ar
    25    26    27   ar
    26    27    22   ar
    27     6     1   ar
    28    13     7   ar
    29    16    19    1
    30    12    14    1
    31    12    15    1
@<TRIPOS>MOLECULE
*****
 29 31 0 0 0
SMALL
GASTEIGER

@<TRIPOS>ATOM
      1 C          -6.4012  -18.8255   22.0919 C.ar    1  UNL1        0.0534
      2 C          -5.2208  -18.2804   22.8400 C.ar    1  UNL1        0.0045
      3 C          -3.9145  -18.0739   22.1322 C.ar    1  UNL1        0.0001
      4 C          -3.7886  -18.4126   20.6763 C.ar    1  UNL1        0.0001
      5 C          -4.9689  -18.9576   19.9283 C.ar    1  UNL1        0.0001
      6 C          -6.2752  -19.1641   20.6361 C.ar    1  UNL1        0.0045
      7 C          -2.4823  -18.2061   19.9685 C.ar    1  UNL1        0.0043
      8 C          -2.4462  -18.1169   18.4716 C.ar    1  UNL1        0.0208
      9 C          -1.1399  -17.9104   17.7638 C.ar    1  UNL1        0.1003
     10 N           0.1303  -17.7931   18.5530 N.ar    1  UNL1       -0.2296
     11 C           0.0943  -17.8823   20.0498 C.ar    1  UNL1        0.1254
     12 N           1.3645  -17.7650   20.8390 N.pl3   1  UNL1       -0.3426
     13 C          -1.2120  -18.0888   20.7576 C.ar    1  UNL1        0.0339
     14 H           2.2219  -17.6295   20.3745 H       1  UNL1        0.1437
     15 H           1.3408  -17.8235   21.8215 H       1  UNL1        0.1437
     16 N          -8.3771  -17.8804   23.4892 N.am    1  UNL1       -0.2987
     17 C          -7.7075  -19.0320   22.7997 C.2     1  UNL1        0.2460
     18 O          -8.3441  -20.3901   22.8178 O.2     1  UNL1       -0.2701
     19 H          -7.9592  -16.9891   23.4773 H       1  UNL1        0.1500
     20 C          -9.6834  -18.0869   24.1970 C.3     1  UNL1        0.0945
     21 C          -9.6991  -18.4329   25.6564 C.3     1  UNL1        0.0262
     22 C         -12.2498  -17.4287   21.2423 C.ar    1  UNL1        0.1385
     23 C         -13.5549  -17.6683   21.9418 C.ar    1  UNL1        0.0369
     24 C         -13.5695  -18.0474   23.3930 C.ar    1  UNL1        0.0028
     25 C         -12.2790  -18.1870   24.1447 C.ar    1  UNL1       -0.0025
     26 C         -10.9739  -17.9474   23.4453 C.ar    1  UNL1       -0.0015
     27 C         -10.9593  -17.5682   21.9940 C.ar    1  UNL1        0.0342
     28 C         -11.7428  -15.6953   19.3747 C.3     1  UNL1        0.2525
     29 O         -12.2352  -17.0495   19.7911 O.3     1  UNL1       -0.4714
@<TRIPOS>BOND
     1    28    29    1
     2    29    22    1
     3    22    23   ar
     4    23    24   ar
     5    24    25   ar
     6    25    26   ar
     7    26    20    1
     8    20    21    1
     9    20    16    1
    10    16    17   am
    11    17    18    2
    12    17     1    1
    13     1     2   ar
    14     2     3   ar
    15     3     4   ar
    16     4     7    1
    17     7     8   ar
    18     8     9   ar
    19     9    10   ar
    20    10    11   ar
    21    11    12    1
    22    11    13   ar
    23     4     5   ar
    24     5     6   ar
    25    26    27   ar
    26    27    22   ar
    27     6     1   ar
    28    13     7   ar
    29    16    19    1
    30    12    14    1
    31    12    15    1
@<TRIPOS>MOLECULE
*****
 29 31 0 0 0
SMALL
GASTEIGER

@<TRIPOS>ATOM
      1 C           0.4811    1.4819   21.2368 C.ar    1  UNL1        0.0534
      2 C           1.6263    1.4025   22.2024 C.ar    1  UNL1        0.0045
      3 C           2.5810    0.2473   22.1403 C.ar    1  UNL1        0.0001
      4 C           2.3906   -0.8286   21.1125 C.ar    1  UNL1        0.0001
      5 C           1.2455   -0.7493   20.1470 C.ar    1  UNL1        0.0001
      6 C           0.2907    0.4060   20.2091 C.ar    1  UNL1        0.0045
      7 C           3.3454   -1.9839   21.0504 C.ar    1  UNL1        0.0043
      8 C           4.1737   -2.3376   22.2499 C.ar    1  UNL1        0.0208
      9 C           5.1284   -3.4929   22.1878 C.ar    1  UNL1        0.1003
     10 N           5.2549   -4.2943   20.9261 N.ar    1  UNL1       -0.2296
     11 C           4.4266   -3.9406   19.7267 C.ar    1  UNL1        0.1254
     12 N           4.5530   -4.7421   18.4650 N.pl3   1  UNL1       -0.3426
     13 C           3.4718   -2.7853   19.7888 C.ar    1  UNL1        0.0339
     14 H           5.1796   -5.5003   18.4242 H       1  UNL1        0.1437
     15 H           4.0093   -4.5099   17.6778 H       1  UNL1        0.1437
     16 N          -1.8672    2.4879   20.7645 N.am    1  UNL1       -0.2987
     17 C          -0.4737    2.6371   21.2989 C.2     1  UNL1        0.2460
     18 O          -0.0348    3.9415   21.8956 O.2     1  UNL1       -0.2701
     19 H          -2.1553    1.6318   20.3729 H       1  UNL1        0.1500
     20 C          -2.8220    3.6432   20.8266 C.3     1  UNL1        0.0945
     21 C          -2.7987    4.6938   19.7563 C.3     1  UNL1        0.0262
     22 C          -4.2932    3.7879   24.5096 C.ar    1  UNL1        0.1385
     23 C          -5.7560    3.9569   24.2241 C.ar    1  UNL1        0.0369
     24 C          -6.2408    4.0214   22.8061 C.ar    1  UNL1        0.0028
     25 C          -5.2629    3.9168   21.6736 C.ar    1  UNL1       -0.0025
     26 C          -3.8000    3.7478   21.9591 C.ar    1  UNL1       -0.0015
     27 C          -3.3152    3.6834   23.3771 C.ar    1  UNL1        0.0342
     28 C          -4.4838    4.5402   26.9891 C.3     1  UNL1        0.2525
     29 O          -3.8083    3.7235   25.9277 O.3     1  UNL1       -0.4714
@<TRIPOS>BOND
     1    28    29    1
     2    29    22    1
     3    22    23   ar
     4    23    24   ar
     5    24    25   ar
     6    25    26   ar
     7    26    20    1
     8    20    21    1
     9    20    16    1
    10    16    17   am
    11    17    18    2
    12    17     1    1
    13     1     2   ar
    14     2     3   ar
    15     3     4   ar
    16     4     7    1
    17     7     8   ar
    18     8     9   ar
    19     9    10   ar
    20    10    11   ar
    21    11    12    1
    22    11    13   ar
    23     4     5   ar
    24     5     6   ar
    25    26    27   ar
    26    27    22   ar
    27     6     1   ar
    28    13     7   ar
    29    16    19    1
    30    12    14    1
    31    12    15    1
@<TRIPOS>MOLECULE
*****
 29 31 0 0 0
SMALL
GASTEIGER

@<TRIPOS>ATOM
      1 C           0.3850    1.5221   21.2174 C.ar    1  UNL1        0.0534
      2 C           1.3565    1.3002   22.3387 C.ar    1  UNL1        0.0045
      3 C           2.3219    0.1537   22.2787 C.ar    1  UNL1        0.0001
      4 C           2.3158   -0.7709   21.0975 C.ar    1  UNL1        0.0001
      5 C           1.3444   -0.5490   19.9763 C.ar    1  UNL1        0.0001
      6 C           0.3790    0.5975   20.0363 C.ar    1  UNL1        0.0045
      7 C           3.2812   -1.9173   21.0375 C.ar    1  UNL1        0.0043
      8 C           4.0972   -2.2747   22.2445 C.ar    1  UNL1        0.0208
      9 C           5.0626   -3.4211   22.1845 C.ar    1  UNL1        0.1003
     10 N           5.2121   -4.2103   20.9176 N.ar    1  UNL1       -0.2296
     11 C           4.3961   -3.8529   19.7107 C.ar    1  UNL1        0.1254
     12 N           4.5456   -4.6421   18.4438 N.pl3   1  UNL1       -0.3426
     13 C           3.4307   -2.7065   19.7707 C.ar    1  UNL1        0.0339
     14 H           5.1792   -5.3945   18.4044 H       1  UNL1        0.1437
     15 H           4.0101   -4.4075   17.6517 H       1  UNL1        0.1437
     16 N          -2.0026    2.4750   20.8417 N.am    1  UNL1       -0.2987
     17 C          -0.5804    2.6685   21.2774 C.2     1  UNL1        0.2460
     18 O          -0.1235    4.0086   21.7731 O.2     1  UNL1       -0.2701
     19 H          -2.3024    1.5955   20.5164 H       1  UNL1        0.1500
     20 C          -2.9680    3.6215   20.9017 C.3     1  UNL1        0.0945
     21 C          -3.0334    4.6068   19.7726 C.3     1  UNL1        0.0262
     22 C          -6.2329    4.1997   23.0826 C.ar    1  UNL1        0.1385
     23 C          -5.6682    4.1049   24.4689 C.ar    1  UNL1        0.0369
     24 C          -4.2035    3.8489   24.6663 C.ar    1  UNL1        0.0028
     25 C          -3.3034    3.6878   23.4772 C.ar    1  UNL1       -0.0025
     26 C          -3.8681    3.7826   22.0908 C.ar    1  UNL1       -0.0015
     27 C          -5.3328    4.0386   21.8935 C.ar    1  UNL1        0.0342
     28 C          -8.5845    4.6908   24.0719 C.3     1  UNL1        0.2525
     29 O          -7.6977    4.4557   22.8852 O.3     1  UNL1       -0.4714
@<TRIPOS>BOND
     1    28    29    1
     2    29    22    1
     3    22    23   ar
     4    23    24   ar
     5    24    25   ar
     6    25    26   ar
     7    26    20    1
     8    20    21    1
     9    20    16    1
    10    16    17   am
    11    17    18    2
    12    17     1    1
    13     1     2   ar
    14     2     3   ar
    15     3     4   ar
    16     4     7    1
    17     7     8   ar
    18     8     9   ar
    19     9    10   ar
    20    10    11   ar
    21    11    12    1
    22    11    13   ar
    23     4     5   ar
    24     5     6   ar
    25    26    27   ar
    26    27    22   ar
    27     6     1   ar
    28    13     7   ar
    29    16    19    1
    30    12    14    1
    31    12    15    1
@<TRIPOS>MOLECULE
*****
 29 31 0 0 0
SMALL
GASTEIGER

@<TRIPOS>ATOM
      1 C           0.9846    1.7935   19.0541 C.ar    1  UNL1        0.0534
      2 C           0.3626    0.7703   19.9576 C.ar    1  UNL1        0.0045
      3 C           1.1302   -0.4617   20.3359 C.ar    1  UNL1        0.0001
      4 C           2.5197   -0.6705   19.8107 C.ar    1  UNL1        0.0001
      5 C           3.1416    0.3527   18.9072 C.ar    1  UNL1        0.0001
      6 C           2.3740    1.5846   18.5289 C.ar    1  UNL1        0.0045
      7 C           3.2872   -1.9025   20.1891 C.ar    1  UNL1        0.0043
      8 C           3.8037   -2.0642   21.5881 C.ar    1  UNL1        0.0208
      9 C           4.5712   -3.2962   21.9664 C.ar    1  UNL1        0.1003
     10 N           4.8222   -4.3664   20.9457 N.ar    1  UNL1       -0.2296
     11 C           4.3058   -4.2046   19.5468 C.ar    1  UNL1        0.1254
     12 N           4.5568   -5.2748   18.5261 N.pl3   1  UNL1       -0.3426
     13 C           3.5382   -2.9726   19.1685 C.ar    1  UNL1        0.0339
     14 H           5.0605   -6.0834   18.7744 H       1  UNL1        0.1437
     15 H           4.2178   -5.1686   17.6079 H       1  UNL1        0.1437
     16 N          -0.5620    3.0598   17.3944 N.am    1  UNL1       -0.2987
     17 C           0.2171    3.0254   18.6757 C.2     1  UNL1        0.2460
     18 O           0.2287    4.2231   19.5788 O.2     1  UNL1       -0.2701
     19 H          -0.5696    2.2737   16.8017 H       1  UNL1        0.1500
     20 C          -1.3295    4.2917   17.0161 C.3     1  UNL1        0.0945
     21 C          -0.6214    5.4504   16.3789 C.3     1  UNL1        0.0262
     22 C          -4.8362    3.9705   18.8465 C.ar    1  UNL1        0.1385
     23 C          -5.7565    4.5115   17.7928 C.ar    1  UNL1        0.0369
     24 C          -5.2012    4.9793   16.4803 C.ar    1  UNL1        0.0028
     25 C          -3.7256    4.9061   16.2213 C.ar    1  UNL1       -0.0025
     26 C          -2.8053    4.3650   17.2750 C.ar    1  UNL1       -0.0015
     27 C          -3.3606    3.8972   18.5875 C.ar    1  UNL1        0.0342
     28 C          -4.4625    3.1163   21.2714 C.3     1  UNL1        0.2525
     29 O          -5.3915    3.5027   20.1590 O.3     1  UNL1       -0.4714
@<TRIPOS>BOND
     1    28    29    1
     2    29    22    1
     3    22    23   ar
     4    23    24   ar
     5    24    25   ar
     6    25    26   ar
     7    26    20    1
     8    20    21    1
     9    20    16    1
    10    16    17   am
    11    17    18    2
    12    17     1    1
    13     1     2   ar
    14     2     3   ar
    15     3     4   ar
    16     4     7    1
    17     7     8   ar
    18     8     9   ar
    19     9    10   ar
    20    10    11   ar
    21    11    12    1
    22    11    13   ar
    23     4     5   ar
    24     5     6   ar
    25    26    27   ar
    26    27    22   ar
    27     6     1   ar
    28    13     7   ar
    29    16    19    1
    30    12    14    1
    31    12    15    1
@<TRIPOS>MOLECULE
*****
 29 31 0 0 0
SMALL
GASTEIGER

@<TRIPOS>ATOM
      1 C          -6.3725  -18.7701   22.1909 C.ar    1  UNL1        0.0534
      2 C          -5.2168  -18.1578   22.9256 C.ar    1  UNL1        0.0045
      3 C          -3.8951  -17.9885   22.2368 C.ar    1  UNL1        0.0001
      4 C          -3.7290  -18.4317   20.8133 C.ar    1  UNL1        0.0001
      5 C          -4.8846  -19.0440   20.0788 C.ar    1  UNL1        0.0001
      6 C          -6.2063  -19.2132   20.7676 C.ar    1  UNL1        0.0045
      7 C          -2.4073  -18.2624   20.1245 C.ar    1  UNL1        0.0043
      8 C          -1.1392  -18.2581   20.9257 C.ar    1  UNL1        0.0208
      9 C           0.1825  -18.0889   20.2370 C.ar    1  UNL1        0.1003
     10 N           0.2361  -17.9239   18.7470 N.ar    1  UNL1       -0.2296
     11 C          -1.0320  -17.9283   17.9458 C.ar    1  UNL1        0.1254
     12 N          -0.9785  -17.7633   16.4558 N.pl3   1  UNL1       -0.3426
     13 C          -2.3537  -18.0975   18.6346 C.ar    1  UNL1        0.0339
     14 H          -0.1110  -17.6523   16.0037 H       1  UNL1        0.1437
     15 H          -1.8108  -17.7662   15.9300 H       1  UNL1        0.1437
     16 N          -8.3114  -17.7851   23.6122 N.am    1  UNL1       -0.2987
     17 C          -7.6942  -18.9394   22.8797 C.2     1  UNL1        0.2460
     18 O          -8.3987  -20.2630   22.8360 O.2     1  UNL1       -0.2701
     19 H          -7.8490  -16.9164   23.6410 H       1  UNL1        0.1500
     20 C          -9.6331  -17.9544   24.3010 C.3     1  UNL1        0.0945
     21 C          -9.6813  -18.2203   25.7765 C.3     1  UNL1        0.0262
     22 C         -13.4921  -18.0765   23.3828 C.ar    1  UNL1        0.1385
     23 C         -13.4536  -17.6644   21.9411 C.ar    1  UNL1        0.0369
     24 C         -12.1416  -17.3490   21.2860 C.ar    1  UNL1        0.0028
     25 C         -10.8681  -17.4456   22.0726 C.ar    1  UNL1       -0.0025
     26 C         -10.9066  -17.8577   23.5143 C.ar    1  UNL1       -0.0015
     27 C         -12.2186  -18.1731   24.1694 C.ar    1  UNL1        0.0342
     28 C         -14.8928  -18.4862   25.5323 C.3     1  UNL1        0.2525
     29 O         -14.8041  -18.3919   24.0379 O.3     1  UNL1       -0.4714
@<TRIPOS>BOND
     1    28    29    1
     2    29    22    1
     3    22    23   ar
     4    23    24   ar
     5    24    25   ar
     6    25    26   ar
     7    26    20    1
     8    20    21    1
     9    20    16    1
    10    16    17   am
    11    17    18    2
    12    17     1    1
    13     1     2   ar
    14     2     3   ar
    15     3     4   ar
    16     4     7    1
    17     7     8   ar
    18     8     9   ar
    19     9    10   ar
    20    10    11   ar
    21    11    12    1
    22    11    13   ar
    23     4     5   ar
    24     5     6   ar
    25    26    27   ar
    26    27    22   ar
    27     6     1   ar
    28    13     7   ar
    29    16    19    1
    30    12    14    1
    31    12    15    1
@<TRIPOS>MOLECULE
*****
 29 31 0 0 0
SMALL
GASTEIGER

@<TRIPOS>ATOM
      1 C           1.0915    1.1837   19.1607 C.ar    1  UNL1        0.0534
      2 C           0.7651    0.1193   20.1661 C.ar    1  UNL1        0.0045
      3 C           1.6732   -1.0636   20.3275 C.ar    1  UNL1        0.0001
      4 C           2.9077   -1.1821   19.4837 C.ar    1  UNL1        0.0001
      5 C           3.2340   -0.1178   18.4784 C.ar    1  UNL1        0.0001
      6 C           2.3259    1.0651   18.3169 C.ar    1  UNL1        0.0045
      7 C           3.8158   -2.3650   19.6451 C.ar    1  UNL1        0.0043
      8 C           3.4392   -3.6872   19.0450 C.ar    1  UNL1        0.0208
      9 C           4.3473   -4.8701   19.2064 C.ar    1  UNL1        0.1003
     10 N           5.6321   -4.7308   19.9681 N.ar    1  UNL1       -0.2296
     11 C           6.0087   -3.4087   20.5682 C.ar    1  UNL1        0.1254
     12 N           7.2935   -3.2695   21.3298 N.pl3   1  UNL1       -0.3426
     13 C           5.1006   -2.2258   20.4067 C.ar    1  UNL1        0.0339
     14 H           7.8895   -4.0458   21.4358 H       1  UNL1        0.1437
     15 H           7.5407   -2.4017   21.7237 H       1  UNL1        0.1437
     16 N          -0.4186    3.0204   20.2076 N.am    1  UNL1       -0.2987
     17 C           0.1834    2.3666   18.9993 C.2     1  UNL1        0.2460
     18 O          -0.1228    2.8956   17.6294 O.2     1  UNL1       -0.2701
     19 H          -0.2177    2.6732   21.1066 H       1  UNL1        0.1500
     20 C          -1.3267    4.2033   20.0461 C.3     1  UNL1        0.0945
     21 C          -0.7475    5.5795   19.9029 C.3     1  UNL1        0.0262
     22 C          -5.0526    3.6545   21.2978 C.ar    1  UNL1        0.1385
     23 C          -5.7888    3.6233   19.9913 C.ar    1  UNL1        0.0369
     24 C          -5.0377    3.7854   18.7031 C.ar    1  UNL1        0.0028
     25 C          -3.5504    3.9787   18.7213 C.ar    1  UNL1       -0.0025
     26 C          -2.8141    4.0100   20.0278 C.ar    1  UNL1       -0.0015
     27 C          -3.5653    3.8478   21.3160 C.ar    1  UNL1        0.0342
     28 C          -5.0561    3.3919   23.8825 C.3     1  UNL1        0.2525
     29 O          -5.8037    3.4924   22.5860 O.3     1  UNL1       -0.4714
@<TRIPOS>BOND
     1    28    29    1
     2    29    22    1
     3    22    23   ar
     4    23    24   ar
     5    24    25   ar
     6    25    26   ar
     7    26    20    1
     8    20    21    1
     9    20    16    1
    10    16    17   am
    11    17    18    2
    12    17     1    1
    13     1     2   ar
    14     2     3   ar
    15     3     4   ar
    16     4     7    1
    17     7     8   ar
    18     8     9   ar
    19     9    10   ar
    20    10    11   ar
    21    11    12    1
    22    11    13   ar
    23     4     5   ar
    24     5     6   ar
    25    26    27   ar
    26    27    22   ar
    27     6     1   ar
    28    13     7   ar
    29    16    19    1
    30    12    14    1
    31    12    15    1
@<TRIPOS>MOLECULE
*****
 29 31 0 0 0
SMALL
GASTEIGER

@<TRIPOS>ATOM
      1 C           0.5000    1.6534   21.0836 C.ar    1  UNL1        0.0534
      2 C           1.4928    1.4516   22.1898 C.ar    1  UNL1        0.0045
      3 C           2.4060    0.2618   22.1701 C.ar    1  UNL1        0.0001
      4 C           2.3265   -0.7262   21.0442 C.ar    1  UNL1        0.0001
      5 C           1.3337   -0.5243   19.9380 C.ar    1  UNL1        0.0001
      6 C           0.4204    0.6654   19.9577 C.ar    1  UNL1        0.0045
      7 C           3.2397   -1.9160   21.0245 C.ar    1  UNL1        0.0043
      8 C           3.9746   -2.3181   22.2688 C.ar    1  UNL1        0.0208
      9 C           4.8878   -3.5078   22.2491 C.ar    1  UNL1        0.1003
     10 N           5.0662   -4.2955   20.9850 N.ar    1  UNL1       -0.2296
     11 C           4.3314   -3.8934   19.7408 C.ar    1  UNL1        0.1254
     12 N           4.5098   -4.6811   18.4767 N.pl3   1  UNL1       -0.3426
     13 C           3.4181   -2.7036   19.7605 C.ar    1  UNL1        0.0339
     14 H           5.1092   -5.4620   18.4637 H       1  UNL1        0.1437
     15 H           4.0275   -4.4172   17.6600 H       1  UNL1        0.1437
     16 N          -1.5719    2.8836   22.0550 N.am    1  UNL1       -0.2987
     17 C          -0.4133    2.8432   21.1033 C.2     1  UNL1        0.2460
     18 O          -0.1678    3.9926   20.1712 O.2     1  UNL1       -0.2701
     19 H          -1.7330    2.1292   22.6668 H       1  UNL1        0.1500
     20 C          -2.4852    4.0734   22.0747 C.3     1  UNL1        0.0945
     21 C          -2.0987    5.3029   22.8420 C.3     1  UNL1        0.0262
     22 C          -6.3524    4.4253   21.2556 C.ar    1  UNL1        0.1385
     23 C          -6.3846    3.9540   19.8320 C.ar    1  UNL1        0.0369
     24 C          -5.1171    3.5224   19.1559 C.ar    1  UNL1        0.0028
     25 C          -3.8173    3.5622   19.9034 C.ar    1  UNL1       -0.0025
     26 C          -3.7850    4.0336   21.3271 C.ar    1  UNL1       -0.0015
     27 C          -5.0526    4.4651   22.0031 C.ar    1  UNL1        0.0342
     28 C          -7.5893    5.3188   23.3584 C.3     1  UNL1        0.2525
     29 O          -7.6200    4.8569   21.9316 O.3     1  UNL1       -0.4714
@<TRIPOS>BOND
     1    28    29    1
     2    29    22    1
     3    22    23   ar
     4    23    24   ar
     5    24    25   ar
     6    25    26   ar
     7    26    20    1
     8    20    21    1
     9    20    16    1
    10    16    17   am
    11    17    18    2
    12    17     1    1
    13     1     2   ar
    14     2     3   ar
    15     3     4   ar
    16     4     7    1
    17     7     8   ar
    18     8     9   ar
    19     9    10   ar
    20    10    11   ar
    21    11    12    1
    22    11    13   ar
    23     4     5   ar
    24     5     6   ar
    25    26    27   ar
    26    27    22   ar
    27     6     1   ar
    28    13     7   ar
    29    16    19    1
    30    12    14    1
    31    12    15    1
@<TRIPOS>MOLECULE
*****
 29 31 0 0 0
SMALL
GASTEIGER

@<TRIPOS>ATOM
      1 C           7.8370   -5.0071   24.4343 C.ar    1  UNL1        0.0534
      2 C           8.0917   -6.4322   24.8273 C.ar    1  UNL1        0.0045
      3 C           8.2403   -6.7958   26.2750 C.ar    1  UNL1        0.0001
      4 C           8.1343   -5.7344   27.3296 C.ar    1  UNL1        0.0001
      5 C           7.8797   -4.3094   26.9366 C.ar    1  UNL1        0.0001
      6 C           7.7310   -3.9458   25.4889 C.ar    1  UNL1        0.0045
      7 C           8.2830   -6.0980   28.7772 C.ar    1  UNL1        0.0043
      8 C           9.3873   -7.0162   29.2103 C.ar    1  UNL1        0.0208
      9 C           9.5360   -7.3798   30.6580 C.ar    1  UNL1        0.1003
     10 N           8.5802   -6.8253   31.6725 N.ar    1  UNL1       -0.2296
     11 C           7.4759   -5.9072   31.2394 C.ar    1  UNL1        0.1254
     12 N           6.5202   -5.3528   32.2540 N.pl3   1  UNL1       -0.3426
     13 C           7.3273   -5.5436   29.7918 C.ar    1  UNL1        0.0339
     14 H           6.6178   -5.5914   33.2041 H       1  UNL1        0.1437
     15 H           5.7954   -4.7502   31.9697 H       1  UNL1        0.1437
     16 N           7.1833   -3.2842   22.6028 N.am    1  UNL1       -0.2987
     17 C           7.6884   -4.6435   22.9867 C.2     1  UNL1        0.2460
     18 O           8.0448   -5.6391   21.9228 O.2     1  UNL1       -0.2701
     19 H           6.9494   -2.6308   23.3011 H       1  UNL1        0.1500
     20 C           7.0347   -2.9206   21.1552 C.3     1  UNL1        0.0945
     21 C           8.1792   -2.2898   20.4190 C.3     1  UNL1        0.0262
     22 C           3.3462   -2.4379   19.7723 C.ar    1  UNL1        0.1385
     23 C           3.1549   -3.7220   19.0210 C.ar    1  UNL1        0.0369
     24 C           4.2568   -4.7389   18.9811 C.ar    1  UNL1        0.0028
     25 C           5.5500   -4.4718   19.6924 C.ar    1  UNL1       -0.0025
     26 C           5.7414   -3.1878   20.4438 C.ar    1  UNL1       -0.0015
     27 C           4.6395   -2.1708   20.4837 C.ar    1  UNL1        0.0342
     28 C           2.1446   -0.4681   20.9664 C.3     1  UNL1        0.2525
     29 O           2.2443   -1.4209   19.8122 O.3     1  UNL1       -0.4714
@<TRIPOS>BOND
     1    28    29    1
     2    29    22    1
     3    22    23   ar
     4    23    24   ar
     5    24    25   ar
     6    25    26   ar
     7    26    20    1
     8    20    21    1
     9    20    16    1
    10    16    17   am
    11    17    18    2
    12    17     1    1
    13     1     2   ar
    14     2     3   ar
    15     3     4   ar
    16     4     7    1
    17     7     8   ar
    18     8     9   ar
    19     9    10   ar
    20    10    11   ar
    21    11    12    1
    22    11    13   ar
    23     4     5   ar
    24     5     6   ar
    25    26    27   ar
    26    27    22   ar
    27     6     1   ar
    28    13     7   ar
    29    16    19    1
    30    12    14    1
    31    12    15    1
