@<TRIPOS>MOLECULE
*****
 31 32 0 0 0
SMALL
GASTEIGER

@<TRIPOS>ATOM
      1 C          -8.1421  -18.4742   22.4210 C.ar    1  UNL1       -0.0185
      2 C          -9.0606  -19.6548   22.3103 C.ar    1  UNL1       -0.0041
      3 C         -10.4921  -19.5346   22.7421 C.ar    1  UNL1        0.0057
      4 C         -11.0050  -18.2337   23.2848 C.ar    1  UNL1        0.0696
      5 C         -10.0865  -17.0530   23.3955 C.ar    1  UNL1        0.0095
      6 C          -8.6551  -17.1733   22.9636 C.ar    1  UNL1        0.0677
      7 C          -2.4163  -18.9550   20.6935 C.2     1  UNL1        0.2558
      8 O          -1.3143  -18.8087   21.7005 O.2     1  UNL1       -0.2721
      9 N          -3.8478  -18.8348   21.1254 N.am    1  UNL1       -0.2775
     10 C          -4.9498  -18.9812   20.1184 C.3     1  UNL1        0.0938
     11 C          -6.3813  -18.8609   20.5503 C.3     1  UNL1        0.0259
     12 C          -6.7107  -18.5944   21.9891 C.3     1  UNL1        0.0257
     13 C          -5.6087  -18.4480   22.9961 C.3     1  UNL1        0.0259
     14 C          -4.1772  -18.5682   22.5642 C.3     1  UNL1        0.0938
     15 C          -2.0869  -19.2216   19.2546 C.3     1  UNL1        0.2272
     16 C          -2.6297  -16.9633   18.0903 C.3     1  UNL1        0.1748
     17 O          -1.6778  -18.0915   18.3571 O.3     1  UNL1       -0.3417
     18 C         -12.4365  -18.1135   23.7166 C.2     1  UNL1        0.3078
     19 O         -13.4218  -17.3839   22.8525 O.2     1  UNL1       -0.2516
     20 N         -12.8825  -18.7229   25.0126 N.am    1  UNL1       -0.1708
     21 H         -12.2358  -19.2018   25.5798 H       1  UNL1        0.2545
     22 C         -14.3140  -18.6027   25.4445 C.2     1  UNL1        0.3751
     23 N         -14.6558  -18.5595   26.9043 N.pl3   1  UNL1       -0.1313
     24 N         -15.4036  -18.5256   24.4164 N.pl3   1  UNL1       -0.2906
     25 H         -13.9407  -18.6101   27.5791 H       1  UNL1        0.3060
     26 H         -15.1792  -18.5539   23.4582 H       1  UNL1        0.2545
     27 H         -16.3431  -18.4467   24.6998 H       1  UNL1        0.2545
     28 C          -7.7366  -15.9925   23.0744 C.3     1  UNL1        0.4183
     29 F          -6.8181  -14.8118   23.1851 F       1  UNL1       -0.1659
     30 F          -7.4111  -16.3781   24.4869 F       1  UNL1       -0.1659
     31 F          -8.0620  -15.6069   21.6618 F       1  UNL1       -0.1659
@<TRIPOS>BOND
     1    16    17    1
     2    17    15    1
     3    15     7    1
     4     7     8    2
     5     7     9   am
     6     9    10    1
     7    10    11    1
     8    11    12    1
     9    12     1    1
    10     1     2   ar
    11     2     3   ar
    12     3     4   ar
    13     4    18    1
    14    18    19    2
    15    18    20   am
    16    20    22    1
    17    22    23    2
    18    22    24    1
    19     4     5   ar
    20     5     6   ar
    21     6    28    1
    22    28    29    1
    23    28    30    1
    24    28    31    1
    25    12    13    1
    26    13    14    1
    27    14     9    1
    28     6     1   ar
    29    20    21    1
    30    23    25    1
    31    24    26    1
    32    24    27    1
@<TRIPOS>MOLECULE
*****
 31 32 0 0 0
SMALL
GASTEIGER

@<TRIPOS>ATOM
      1 C          -8.2651  -18.7158   22.2011 C.ar    1  UNL1       -0.0185
      2 C          -8.5345  -18.2046   23.5853 C.ar    1  UNL1       -0.0041
      3 C          -9.9471  -18.0237   24.0563 C.ar    1  UNL1        0.0057
      4 C         -11.0903  -18.3540   23.1431 C.ar    1  UNL1        0.0696
      5 C         -10.8208  -18.8652   21.7589 C.ar    1  UNL1        0.0095
      6 C          -9.4082  -19.0461   21.2879 C.ar    1  UNL1        0.0677
      7 C          -2.6146  -19.4395   20.3173 C.2     1  UNL1        0.2558
      8 O          -1.6388  -20.2139   21.1529 O.2     1  UNL1       -0.2721
      9 N          -4.0272  -19.2586   20.7883 N.am    1  UNL1       -0.2775
     10 C          -5.0030  -18.4842   19.9528 C.3     1  UNL1        0.0938
     11 C          -6.4156  -18.3033   20.4237 C.3     1  UNL1        0.0259
     12 C          -6.8524  -18.8968   21.7302 C.3     1  UNL1        0.0257
     13 C          -5.8767  -19.6711   22.5657 C.3     1  UNL1        0.0259
     14 C          -4.4641  -19.8520   22.0948 C.3     1  UNL1        0.0938
     15 C          -2.1778  -18.8460   19.0109 C.3     1  UNL1        0.2272
     16 C          -0.4722  -17.1696   20.0263 C.3     1  UNL1        0.1748
     17 O          -0.8791  -18.1005   18.9226 O.3     1  UNL1       -0.3417
     18 C         -12.5029  -18.1731   23.6140 C.2     1  UNL1        0.3078
     19 O         -13.4753  -17.3880   22.7845 O.2     1  UNL1       -0.2516
     20 N         -12.9431  -18.7773   24.9144 N.am    1  UNL1       -0.1708
     21 H         -12.3049  -19.2926   25.4589 H       1  UNL1        0.2545
     22 C         -14.3557  -18.5964   25.3854 C.2     1  UNL1        0.3751
     23 N         -14.6484  -18.4810   26.8520 N.pl3   1  UNL1       -0.1313
     24 N         -15.4757  -18.5309   24.3896 N.pl3   1  UNL1       -0.2906
     25 H         -13.9133  -18.5240   27.5055 H       1  UNL1        0.3060
     26 H         -15.2836  -18.6066   23.4270 H       1  UNL1        0.2545
     27 H         -16.4029  -18.4121   24.6987 H       1  UNL1        0.2545
     28 C          -9.1388  -19.5574   19.9036 C.3     1  UNL1        0.4183
     29 F          -8.8694  -20.0686   18.5195 F       1  UNL1       -0.1659
     30 F          -9.8860  -18.3913   19.3275 F       1  UNL1       -0.1659
     31 F          -8.3916  -20.7235   20.4798 F       1  UNL1       -0.1659
@<TRIPOS>BOND
     1    16    17    1
     2    17    15    1
     3    15     7    1
     4     7     8    2
     5     7     9   am
     6     9    10    1
     7    10    11    1
     8    11    12    1
     9    12     1    1
    10     1     2   ar
    11     2     3   ar
    12     3     4   ar
    13     4    18    1
    14    18    19    2
    15    18    20   am
    16    20    22    1
    17    22    23    2
    18    22    24    1
    19     4     5   ar
    20     5     6   ar
    21     6    28    1
    22    28    29    1
    23    28    30    1
    24    28    31    1
    25    12    13    1
    26    13    14    1
    27    14     9    1
    28     6     1   ar
    29    20    21    1
    30    23    25    1
    31    24    26    1
    32    24    27    1
@<TRIPOS>MOLECULE
*****
 31 32 0 0 0
SMALL
GASTEIGER

@<TRIPOS>ATOM
      1 C          -6.6549  -18.2879   22.0691 C.ar    1  UNL1       -0.0185
      2 C          -5.6175  -17.5651   22.8760 C.ar    1  UNL1       -0.0041
      3 C          -4.1624  -17.7405   22.5565 C.ar    1  UNL1        0.0057
      4 C          -3.7448  -18.6387   21.4301 C.ar    1  UNL1        0.0696
      5 C          -4.7823  -19.3615   20.6232 C.ar    1  UNL1        0.0095
      6 C          -6.2373  -19.1861   20.9427 C.ar    1  UNL1        0.0677
      7 C         -12.4751  -17.5864   23.3470 C.2     1  UNL1        0.2558
      8 O         -13.2009  -16.3567   22.8877 O.2     1  UNL1       -0.2721
      9 N         -11.0201  -17.7618   23.0275 N.am    1  UNL1       -0.2775
     10 C         -10.2943  -18.9915   23.4869 C.3     1  UNL1        0.0938
     11 C          -8.8392  -19.1669   23.1674 C.3     1  UNL1        0.0259
     12 C          -8.1100  -18.1126   22.3886 C.3     1  UNL1        0.0257
     13 C          -8.8358  -16.8829   21.9292 C.3     1  UNL1        0.0259
     14 C         -10.2908  -16.7075   22.2487 C.3     1  UNL1        0.0938
     15 C         -13.2044  -18.6407   24.1258 C.3     1  UNL1        0.2272
     16 C         -14.5874  -18.4884   26.3200 C.3     1  UNL1        0.1748
     17 O         -14.4813  -18.3003   24.8355 O.3     1  UNL1       -0.3417
     18 C          -2.2898  -18.8140   21.1106 C.2     1  UNL1        0.3078
     19 O          -1.5843  -20.0800   21.4973 O.2     1  UNL1       -0.2516
     20 N          -1.5402  -17.7234   20.4045 N.am    1  UNL1       -0.1708
     21 H          -2.0032  -16.8925   20.1507 H       1  UNL1        0.2545
     22 C          -0.0851  -17.8988   20.0850 C.2     1  UNL1        0.3751
     23 N           0.4371  -19.2459   19.6818 N.pl3   1  UNL1       -0.1313
     24 N           0.8476  -16.7270   20.1687 N.pl3   1  UNL1       -0.2906
     25 H          -0.1751  -20.0149   19.6269 H       1  UNL1        0.3060
     26 H           0.5048  -15.8429   20.4334 H       1  UNL1        0.2545
     27 H           1.8026  -16.8421   19.9591 H       1  UNL1        0.2545
     28 C          -7.2748  -19.9090   20.1357 C.3     1  UNL1        0.4183
     29 F          -8.3123  -20.6318   19.3287 F       1  UNL1       -0.1659
     30 F          -6.8939  -21.1983   20.8009 F       1  UNL1       -0.1659
     31 F          -7.6557  -18.6197   19.4706 F       1  UNL1       -0.1659
@<TRIPOS>BOND
     1    16    17    1
     2    17    15    1
     3    15     7    1
     4     7     8    2
     5     7     9   am
     6     9    10    1
     7    10    11    1
     8    11    12    1
     9    12     1    1
    10     1     2   ar
    11     2     3   ar
    12     3     4   ar
    13     4    18    1
    14    18    19    2
    15    18    20   am
    16    20    22    1
    17    22    23    2
    18    22    24    1
    19     4     5   ar
    20     5     6   ar
    21     6    28    1
    22    28    29    1
    23    28    30    1
    24    28    31    1
    25    12    13    1
    26    13    14    1
    27    14     9    1
    28     6     1   ar
    29    20    21    1
    30    23    25    1
    31    24    26    1
    32    24    27    1
@<TRIPOS>MOLECULE
*****
 31 32 0 0 0
SMALL
GASTEIGER

@<TRIPOS>ATOM
      1 C           5.2280   -0.8802   34.1443 C.ar    1  UNL1       -0.0185
      2 C           4.5094   -2.0953   33.6371 C.ar    1  UNL1       -0.0041
      3 C           5.2245   -3.0765   32.7563 C.ar    1  UNL1        0.0057
      4 C           6.6582   -2.8426   32.3827 C.ar    1  UNL1        0.0696
      5 C           7.3768   -1.6276   32.8898 C.ar    1  UNL1        0.0095
      6 C           6.6617   -0.6464   33.7707 C.ar    1  UNL1        0.0677
      7 C           2.3674    3.0445   37.6676 C.2     1  UNL1        0.2558
      8 O           1.5356    4.1331   37.0568 O.2     1  UNL1       -0.2721
      9 N           3.0825    2.0633   36.7867 N.am    1  UNL1       -0.2775
     10 C           3.9144    0.9748   37.3975 C.3     1  UNL1        0.0938
     11 C           4.6295   -0.0064   36.5167 C.3     1  UNL1        0.0259
     12 C           4.5128    0.1010   35.0251 C.3     1  UNL1        0.0257
     13 C           3.6810    1.1895   34.4144 C.3     1  UNL1        0.0259
     14 C           2.9659    2.1707   35.2952 C.3     1  UNL1        0.0938
     15 C           2.4841    2.9372   39.1591 C.3     1  UNL1        0.2272
     16 C           0.8701    0.9318   39.5108 C.3     1  UNL1        0.1748
     17 O           1.4014    2.2642   39.9496 O.3     1  UNL1       -0.3417
     18 C           7.3734   -3.8238   31.5019 C.2     1  UNL1        0.3078
     19 O           8.8705   -3.7987   31.4122 O.2     1  UNL1       -0.2516
     20 N           6.5915   -4.8301   30.7107 N.am    1  UNL1       -0.1708
     21 H           5.6089   -4.8465   30.7695 H       1  UNL1        0.2545
     22 C           7.3066   -5.8113   29.8299 C.2     1  UNL1        0.3751
     23 N           8.5554   -6.4846   30.3167 N.pl3   1  UNL1       -0.1313
     24 N           6.7729   -6.1191   28.4622 N.pl3   1  UNL1       -0.2906
     25 H           8.9057   -6.2826   31.2143 H       1  UNL1        0.3060
     26 H           5.9532   -5.6771   28.1427 H       1  UNL1        0.2545
     27 H           7.2422   -6.7630   27.8841 H       1  UNL1        0.2545
     28 C           7.3804    0.5687   34.2778 C.3     1  UNL1        0.4183
     29 F           8.0990    1.7837   34.7850 F       1  UNL1       -0.1659
     30 F           7.8366   -0.2030   35.4804 F       1  UNL1       -0.1659
     31 F           6.9242    1.3404   33.0753 F       1  UNL1       -0.1659
@<TRIPOS>BOND
     1    16    17    1
     2    17    15    1
     3    15     7    1
     4     7     8    2
     5     7     9   am
     6     9    10    1
     7    10    11    1
     8    11    12    1
     9    12     1    1
    10     1     2   ar
    11     2     3   ar
    12     3     4   ar
    13     4    18    1
    14    18    19    2
    15    18    20   am
    16    20    22    1
    17    22    23    2
    18    22    24    1
    19     4     5   ar
    20     5     6   ar
    21     6    28    1
    22    28    29    1
    23    28    30    1
    24    28    31    1
    25    12    13    1
    26    13    14    1
    27    14     9    1
    28     6     1   ar
    29    20    21    1
    30    23    25    1
    31    24    26    1
    32    24    27    1
@<TRIPOS>MOLECULE
*****
 31 32 0 0 0
SMALL
GASTEIGER

@<TRIPOS>ATOM
      1 C           6.3419   -3.6150   25.0524 C.ar    1  UNL1       -0.0185
      2 C           6.8542   -4.9328   25.5535 C.ar    1  UNL1       -0.0041
      3 C           6.9954   -5.1711   27.0276 C.ar    1  UNL1        0.0057
      4 C           6.6243   -4.0917   28.0008 C.ar    1  UNL1        0.0696
      5 C           6.1119   -2.7740   27.4998 C.ar    1  UNL1        0.0095
      6 C           5.9707   -2.5357   26.0256 C.ar    1  UNL1        0.0677
      7 C           5.7770   -2.6617   19.1557 C.2     1  UNL1        0.2558
      8 O           4.4605   -2.9051   18.4793 O.2     1  UNL1       -0.2721
      9 N           5.9182   -2.9000   20.6299 N.am    1  UNL1       -0.2775
     10 C           7.2347   -2.6566   21.3062 C.3     1  UNL1        0.0938
     11 C           7.3759   -2.8949   22.7804 C.3     1  UNL1        0.0259
     12 C           6.2006   -3.3767   23.5782 C.3     1  UNL1        0.0257
     13 C           4.8842   -3.6202   22.9019 C.3     1  UNL1        0.0259
     14 C           4.7429   -3.3818   21.4277 C.3     1  UNL1        0.0938
     15 C           6.9523   -2.1799   18.3578 C.3     1  UNL1        0.2272
     16 C           6.4574    0.1029   17.2203 C.3     1  UNL1        0.1748
     17 O           6.7335   -1.3679   17.1158 O.3     1  UNL1       -0.3417
     18 C           6.7655   -4.3300   29.4750 C.2     1  UNL1        0.3078
     19 O           6.4228   -3.2403   30.4472 O.2     1  UNL1       -0.2516
     20 N           7.2494   -5.6581   29.9771 N.am    1  UNL1       -0.1708
     21 H           7.4743   -6.3733   29.3391 H       1  UNL1        0.2545
     22 C           7.3906   -5.8964   31.4513 C.2     1  UNL1        0.3751
     23 N           6.3530   -5.3714   32.3987 N.pl3   1  UNL1       -0.1313
     24 N           8.5695   -6.6599   31.9781 N.pl3   1  UNL1       -0.2906
     25 H           5.5793   -4.8703   32.0530 H       1  UNL1        0.3060
     26 H           9.2505   -7.0045   31.3562 H       1  UNL1        0.2545
     27 H           8.6622   -6.8163   32.9456 H       1  UNL1        0.2545
     28 C           5.4583   -1.2179   25.5246 C.3     1  UNL1        0.4183
     29 F           4.9460    0.0999   25.0237 F       1  UNL1       -0.1659
     30 F           4.0550   -1.7454   25.5722 F       1  UNL1       -0.1659
     31 F           6.8616   -0.6903   25.4771 F       1  UNL1       -0.1659
@<TRIPOS>BOND
     1    16    17    1
     2    17    15    1
     3    15     7    1
     4     7     8    2
     5     7     9   am
     6     9    10    1
     7    10    11    1
     8    11    12    1
     9    12     1    1
    10     1     2   ar
    11     2     3   ar
    12     3     4   ar
    13     4    18    1
    14    18    19    2
    15    18    20   am
    16    20    22    1
    17    22    23    2
    18    22    24    1
    19     4     5   ar
    20     5     6   ar
    21     6    28    1
    22    28    29    1
    23    28    30    1
    24    28    31    1
    25    12    13    1
    26    13    14    1
    27    14     9    1
    28     6     1   ar
    29    20    21    1
    30    23    25    1
    31    24    26    1
    32    24    27    1
@<TRIPOS>MOLECULE
*****
 31 32 0 0 0
SMALL
GASTEIGER

@<TRIPOS>ATOM
      1 C           6.6831   -4.1130   24.6097 C.ar    1  UNL1       -0.0185
      2 C           7.0832   -5.5043   25.0024 C.ar    1  UNL1       -0.0041
      3 C           7.2466   -5.8570   26.4512 C.ar    1  UNL1        0.0057
      4 C           7.0099   -4.8184   27.5072 C.ar    1  UNL1        0.0696
      5 C           6.6099   -3.4271   27.1145 C.ar    1  UNL1        0.0095
      6 C           6.4465   -3.0745   25.6657 C.ar    1  UNL1        0.0677
      7 C           6.0296   -2.7024   18.8146 C.2     1  UNL1        0.2558
      8 O           7.2179   -2.2651   18.0105 O.2     1  UNL1       -0.2721
      9 N           6.1930   -3.0550   20.2634 N.am    1  UNL1       -0.2775
     10 C           5.0047   -3.4924   21.0675 C.3     1  UNL1        0.0938
     11 C           5.1681   -3.8450   22.5162 C.3     1  UNL1        0.0259
     12 C           6.5198   -3.7604   23.1609 C.3     1  UNL1        0.0257
     13 C           7.7081   -3.3231   22.3568 C.3     1  UNL1        0.0259
     14 C           7.5447   -2.9704   20.9081 C.3     1  UNL1        0.0938
     15 C           4.6779   -2.7870   18.1699 C.3     1  UNL1        0.2272
     16 C           4.1767   -0.5428   16.9606 C.3     1  UNL1        0.1748
     17 O           3.8405   -1.5518   18.0185 O.3     1  UNL1       -0.3417
     18 C           7.1733   -5.1711   28.9560 C.2     1  UNL1        0.3078
     19 O           7.8047   -6.4752   29.3438 O.2     1  UNL1       -0.2516
     20 N           6.7053   -4.2196   30.0169 N.am    1  UNL1       -0.1708
     21 H           6.2909   -3.3636   29.7624 H       1  UNL1        0.2545
     22 C           6.8687   -4.5722   31.4657 C.2     1  UNL1        0.3751
     23 N           6.5822   -5.9678   31.9348 N.pl3   1  UNL1       -0.1313
     24 N           7.3186   -3.5292   32.4454 N.pl3   1  UNL1       -0.2906
     25 H           6.2869   -6.6524   31.2918 H       1  UNL1        0.3060
     26 H           7.5067   -2.6132   32.1375 H       1  UNL1        0.2545
     27 H           7.4258   -3.7606   33.3962 H       1  UNL1        0.2545
     28 C           6.0464   -1.6831   25.2730 C.3     1  UNL1        0.4183
     29 F           5.6464   -0.2918   24.8803 F       1  UNL1       -0.1659
     30 F           4.6012   -2.0786   25.3439 F       1  UNL1       -0.1659
     31 F           7.4916   -1.2876   25.2021 F       1  UNL1       -0.1659
@<TRIPOS>BOND
     1    16    17    1
     2    17    15    1
     3    15     7    1
     4     7     8    2
     5     7     9   am
     6     9    10    1
     7    10    11    1
     8    11    12    1
     9    12     1    1
    10     1     2   ar
    11     2     3   ar
    12     3     4   ar
    13     4    18    1
    14    18    19    2
    15    18    20   am
    16    20    22    1
    17    22    23    2
    18    22    24    1
    19     4     5   ar
    20     5     6   ar
    21     6    28    1
    22    28    29    1
    23    28    30    1
    24    28    31    1
    25    12    13    1
    26    13    14    1
    27    14     9    1
    28     6     1   ar
    29    20    21    1
    30    23    25    1
    31    24    26    1
    32    24    27    1
@<TRIPOS>MOLECULE
*****
 31 32 0 0 0
SMALL
GASTEIGER

@<TRIPOS>ATOM
      1 C           5.2659   -0.8494   34.2385 C.ar    1  UNL1       -0.0185
      2 C           4.5327   -2.0371   33.6893 C.ar    1  UNL1       -0.0041
      3 C           5.2314   -2.9869   32.7621 C.ar    1  UNL1        0.0057
      4 C           6.6633   -2.7489   32.3841 C.ar    1  UNL1        0.0696
      5 C           7.3966   -1.5612   32.9333 C.ar    1  UNL1        0.0095
      6 C           6.6979   -0.6114   33.8605 C.ar    1  UNL1        0.0677
      7 C           2.4712    2.9498   37.9474 C.2     1  UNL1        0.2558
      8 O           2.6022    2.7812   39.4321 O.2     1  UNL1       -0.2721
      9 N           3.1699    2.0000   37.0202 N.am    1  UNL1       -0.2775
     10 C           3.0389    2.1686   35.5355 C.3     1  UNL1        0.0938
     11 C           3.7376    1.2188   34.6083 C.3     1  UNL1        0.0259
     12 C           4.5673    0.1004   35.1657 C.3     1  UNL1        0.0257
     13 C           4.6983   -0.0682   36.6504 C.3     1  UNL1        0.0259
     14 C           3.9996    0.8816   37.5777 C.3     1  UNL1        0.0938
     15 C           1.6415    4.0681   37.3899 C.3     1  UNL1        0.2272
     16 C           3.5532    5.8030   37.6826 C.3     1  UNL1        0.1748
     17 O           2.2918    5.3625   37.0007 O.3     1  UNL1       -0.3417
     18 C           7.3620   -3.6987   31.4568 C.2     1  UNL1        0.3078
     19 O           8.8198   -3.5157   31.1546 O.2     1  UNL1       -0.2516
     20 N           6.6030   -4.8315   30.8319 N.am    1  UNL1       -0.1708
     21 H           5.6462   -4.9516   31.0303 H       1  UNL1        0.2545
     22 C           7.3017   -5.7812   29.9047 C.2     1  UNL1        0.3751
     23 N           8.5758   -6.4468   30.3332 N.pl3   1  UNL1       -0.1313
     24 N           6.7262   -6.0655   28.5489 N.pl3   1  UNL1       -0.2906
     25 H           8.9535   -6.2602   31.2230 H       1  UNL1        0.3060
     26 H           5.8899   -5.6287   28.2676 H       1  UNL1        0.2545
     27 H           7.1848   -6.6888   27.9403 H       1  UNL1        0.2545
     28 C           7.4312    0.5764   34.4097 C.3     1  UNL1        0.4183
     29 F           8.1644    1.7640   34.9589 F       1  UNL1       -0.1659
     30 F           6.9577    1.4041   33.2519 F       1  UNL1       -0.1659
     31 F           7.9047   -0.2514   35.5675 F       1  UNL1       -0.1659
@<TRIPOS>BOND
     1    16    17    1
     2    17    15    1
     3    15     7    1
     4     7     8    2
     5     7     9   am
     6     9    10    1
     7    10    11    1
     8    11    12    1
     9    12     1    1
    10     1     2   ar
    11     2     3   ar
    12     3     4   ar
    13     4    18    1
    14    18    19    2
    15    18    20   am
    16    20    22    1
    17    22    23    2
    18    22    24    1
    19     4     5   ar
    20     5     6   ar
    21     6    28    1
    22    28    29    1
    23    28    30    1
    24    28    31    1
    25    12    13    1
    26    13    14    1
    27    14     9    1
    28     6     1   ar
    29    20    21    1
    30    23    25    1
    31    24    26    1
    32    24    27    1
@<TRIPOS>MOLECULE
*****
 31 32 0 0 0
SMALL
GASTEIGER

@<TRIPOS>ATOM
      1 C           5.9653   -2.3767   32.6351 C.ar    1  UNL1       -0.0185
      2 C           4.5980   -2.5893   33.2140 C.ar    1  UNL1       -0.0041
      3 C           4.0661   -1.6425   34.2486 C.ar    1  UNL1        0.0057
      4 C           4.9015   -0.4830   34.7044 C.ar    1  UNL1        0.0696
      5 C           6.2688   -0.2704   34.1255 C.ar    1  UNL1        0.0095
      6 C           6.8007   -1.2173   33.0908 C.ar    1  UNL1        0.0677
      7 C           8.0931   -6.1642   28.4965 C.2     1  UNL1        0.2558
      8 O           8.5855   -7.5211   28.9041 O.2     1  UNL1       -0.2721
      9 N           7.5612   -5.2173   29.5312 N.am    1  UNL1       -0.2775
     10 C           7.0687   -3.8604   29.1235 C.3     1  UNL1        0.0938
     11 C           6.5368   -2.9135   30.1582 C.3     1  UNL1        0.0259
     12 C           6.4973   -3.3236   31.6005 C.3     1  UNL1        0.0257
     13 C           6.9897   -4.6805   32.0081 C.3     1  UNL1        0.0259
     14 C           7.5217   -5.6274   30.9734 C.3     1  UNL1        0.0938
     15 C           8.1326   -5.7541   27.0542 C.3     1  UNL1        0.2272
     16 C           7.7896   -7.6170   25.2759 C.3     1  UNL1        0.1748
     17 O           8.6978   -6.6869   26.0245 O.3     1  UNL1       -0.3417
     18 C           4.3695    0.4638   35.7390 C.2     1  UNL1        0.3078
     19 O           3.7682    1.7724   35.3196 O.2     1  UNL1       -0.2516
     20 N           4.4389    0.1021   37.1931 N.am    1  UNL1       -0.1708
     21 H           4.8336   -0.7568   37.4684 H       1  UNL1        0.2545
     22 C           3.9070    1.0490   38.2277 C.2     1  UNL1        0.3751
     23 N           2.9910    0.5465   39.3040 N.pl3   1  UNL1       -0.1313
     24 N           4.2910    2.4984   38.1860 N.pl3   1  UNL1       -0.2906
     25 H           2.7390   -0.4048   39.3314 H       1  UNL1        0.3060
     26 H           4.8922    2.8283   37.4796 H       1  UNL1        0.2545
     27 H           3.9419    3.1199   38.8651 H       1  UNL1        0.2545
     28 C           8.1681   -1.0046   32.5119 C.3     1  UNL1        0.4183
     29 F           9.5355   -0.7920   31.9331 F       1  UNL1       -0.1659
     30 F           7.5948   -0.0479   31.5091 F       1  UNL1       -0.1659
     31 F           8.7414   -1.9614   33.5148 F       1  UNL1       -0.1659
@<TRIPOS>BOND
     1    16    17    1
     2    17    15    1
     3    15     7    1
     4     7     8    2
     5     7     9   am
     6     9    10    1
     7    10    11    1
     8    11    12    1
     9    12     1    1
    10     1     2   ar
    11     2     3   ar
    12     3     4   ar
    13     4    18    1
    14    18    19    2
    15    18    20   am
    16    20    22    1
    17    22    23    2
    18    22    24    1
    19     4     5   ar
    20     5     6   ar
    21     6    28    1
    22    28    29    1
    23    28    30    1
    24    28    31    1
    25    12    13    1
    26    13    14    1
    27    14     9    1
    28     6     1   ar
    29    20    21    1
    30    23    25    1
    31    24    26    1
    32    24    27    1
@<TRIPOS>MOLECULE
*****
 31 32 0 0 0
SMALL
GASTEIGER

@<TRIPOS>ATOM
      1 C          -1.4091    2.6440   26.6954 C.ar    1  UNL1       -0.0185
      2 C          -2.7471    3.1619   27.1332 C.ar    1  UNL1       -0.0041
      3 C          -3.7107    3.7024   26.1187 C.ar    1  UNL1        0.0057
      4 C          -3.3364    3.7251   24.6664 C.ar    1  UNL1        0.0696
      5 C          -1.9985    3.2072   24.2285 C.ar    1  UNL1        0.0095
      6 C          -1.0349    2.6667   25.2430 C.ar    1  UNL1        0.0677
      7 C           2.4454    0.4819   30.7534 C.2     1  UNL1        0.2558
      8 O           2.4355   -0.9790   31.0934 O.2     1  UNL1       -0.2721
      9 N           1.4818    1.0224   29.7389 N.am    1  UNL1       -0.2775
     10 C           1.4918    2.4833   29.3988 C.3     1  UNL1        0.0938
     11 C           0.5281    3.0238   28.3843 C.3     1  UNL1        0.0259
     12 C          -0.4455    2.1035   27.7099 C.3     1  UNL1        0.0257
     13 C          -0.4555    0.6426   28.0499 C.3     1  UNL1        0.0259
     14 C           0.5082    0.1021   29.0644 C.3     1  UNL1        0.0938
     15 C           3.4191    1.4023   31.4278 C.3     1  UNL1        0.2272
     16 C           1.8019    2.2936   33.2555 C.3     1  UNL1        0.1748
     17 O           3.1731    1.8517   32.8376 O.3     1  UNL1       -0.3417
     18 C          -4.3001    4.2656   23.6519 C.2     1  UNL1        0.3078
     19 O          -3.9239    5.4554   22.8195 O.2     1  UNL1       -0.2516
     20 N          -5.6399    3.6163   23.4697 N.am    1  UNL1       -0.1708
     21 H          -5.8869    2.8354   24.0160 H       1  UNL1        0.2545
     22 C          -6.6036    4.1569   22.4552 C.2     1  UNL1        0.3751
     23 N          -8.0202    4.4527   22.8495 N.pl3   1  UNL1       -0.1313
     24 N          -6.1505    4.4015   21.0463 N.pl3   1  UNL1       -0.2906
     25 H          -8.3175    4.2922   23.7742 H       1  UNL1        0.3060
     26 H          -5.2207    4.2073   20.7875 H       1  UNL1        0.2545
     27 H          -6.7830    4.7563   20.3804 H       1  UNL1        0.2545
     28 C           0.3031    2.1488   24.8051 C.3     1  UNL1        0.4183
     29 F           1.6410    1.6309   24.3672 F       1  UNL1       -0.1659
     30 F           0.8600    3.5405   24.8605 F       1  UNL1       -0.1659
     31 F          -0.2538    0.7571   24.7497 F       1  UNL1       -0.1659
@<TRIPOS>BOND
     1    16    17    1
     2    17    15    1
     3    15     7    1
     4     7     8    2
     5     7     9   am
     6     9    10    1
     7    10    11    1
     8    11    12    1
     9    12     1    1
    10     1     2   ar
    11     2     3   ar
    12     3     4   ar
    13     4    18    1
    14    18    19    2
    15    18    20   am
    16    20    22    1
    17    22    23    2
    18    22    24    1
    19     4     5   ar
    20     5     6   ar
    21     6    28    1
    22    28    29    1
    23    28    30    1
    24    28    31    1
    25    12    13    1
    26    13    14    1
    27    14     9    1
    28     6     1   ar
    29    20    21    1
    30    23    25    1
    31    24    26    1
    32    24    27    1
