@<TRIPOS>MOLECULE
*****
 25 28 0 0 0
SMALL
GASTEIGER

@<TRIPOS>ATOM
      1 C         -12.0168  -17.4011   20.8561 C.2     1  UNL1        0.1475
      2 C         -13.1867  -17.4483   21.7936 C.2     1  UNL1        0.0367
      3 C         -13.0107  -17.9760   23.1867 C.2     1  UNL1        0.0217
      4 C         -11.6648  -18.4565   23.6422 C.2     1  UNL1        0.0804
      5 N         -11.1906  -19.0247   24.9469 N.2     1  UNL1       -0.2439
      6 C          -9.7276  -19.3286   24.8157 C.2     1  UNL1        0.1050
      7 C          -9.2976  -18.9484   23.4299 C.2     1  UNL1        0.0949
      8 C         -10.4948  -18.4093   22.7046 C.2     1  UNL1        0.0372
      9 C         -10.6708  -17.8816   21.3116 C.3     1  UNL1        0.1952
     10 C         -11.6589  -15.5192   19.1010 C.3     1  UNL1        0.2521
     11 O         -12.1928  -16.8734   19.4630 O.2     1  UNL1       -0.4729
     12 C          -7.9133  -19.0834   22.8681 C.2     1  UNL1        0.3426
     13 O          -7.3538  -20.4430   22.5711 O.2     1  UNL1       -0.2448
     14 O          -7.0886  -17.8587   22.6033 O.3     1  UNL1       -0.4454
     15 C          -7.5691  -16.5161   23.0681 C.3     1  UNL1        0.2087
     16 C          -7.2877  -16.0628   24.4700 C.3     1  UNL1        0.0445
     17 C          -5.8982  -15.6554   24.8618 C.3     1  UNL1        0.0210
     18 C          -5.6167  -15.2021   26.2637 C.3     1  UNL1        0.0722
     19 N          -6.7248  -15.1562   27.2738 N.3     1  UNL1       -0.2727
     20 C          -8.1142  -15.5636   26.8821 C.3     1  UNL1        0.0722
     21 C          -8.3957  -16.0169   25.4801 C.3     1  UNL1        0.0210
     22 C          -6.9275  -15.4116   26.5177 C.3     1  UNL1        0.0722
     23 C          -7.1820  -15.8215   25.2501 C.3     1  UNL1        0.0210
     24 O          -9.5009  -17.8345   20.3740 O.3     1  UNL1       -0.3415
     25 C          -9.1601  -19.0331   19.5391 C.3     1  UNL1        0.1751
@<TRIPOS>BOND
     1    10    11    1
     2    11     1    1
     3     1     2    2
     4     2     3    1
     5     3     4    2
     6     4     5    1
     7     5     6    2
     8     6     7    1
     9     7    12    1
    10    12    13    2
    11    12    14    1
    12    14    15    1
    13    15    16    1
    14    16    17    1
    15    17    18    1
    16    18    19    1
    17    19    20    1
    18    20    21    1
    19    19    22    1
    20    22    23    1
    21     7     8    2
    22     8     9    1
    23     9    24    1
    24    24    25    1
    25     9     1    1
    26     8     4    1
    27    21    16    1
    28    23    16    1
@<TRIPOS>MOLECULE
*****
 25 28 0 0 0
SMALL
GASTEIGER

@<TRIPOS>ATOM
      1 C          -6.9207  -15.5707   24.3557 C.2     1  UNL1        0.1475
      2 C          -8.2845  -15.2640   24.8995 C.2     1  UNL1        0.0367
      3 C          -9.4665  -16.0782   24.4634 C.2     1  UNL1        0.0217
      4 C          -9.2845  -17.1991   23.4834 C.2     1  UNL1        0.0804
      5 N         -10.2550  -18.1669   22.8739 N.2     1  UNL1       -0.2439
      6 C          -9.4909  -19.0718   21.9535 C.2     1  UNL1        0.1050
      7 C          -8.0481  -18.6633   21.9941 C.2     1  UNL1        0.0949
      8 C          -7.9206  -17.5059   22.9397 C.2     1  UNL1        0.0372
      9 C          -6.7387  -16.6917   23.3758 C.3     1  UNL1        0.1952
     10 C          -5.1782  -14.9283   26.1725 C.3     1  UNL1        0.2521
     11 O          -5.7388  -14.7565   24.7919 O.2     1  UNL1       -0.4729
     12 C          -6.9294  -19.3004   21.2242 C.2     1  UNL1        0.3426
     13 O          -6.4685  -20.6834   21.5773 O.2     1  UNL1       -0.2448
     14 O          -6.2717  -18.5544   20.1013 O.3     1  UNL1       -0.4454
     15 C          -5.1365  -19.1816   19.3479 C.3     1  UNL1        0.2087
     16 C          -3.7244  -18.9740   19.8094 C.3     1  UNL1        0.0445
     17 C          -3.1872  -19.7706   20.9613 C.3     1  UNL1        0.0210
     18 C          -1.7751  -19.5631   21.4229 C.3     1  UNL1        0.0722
     19 N          -0.9003  -18.5589   20.7326 N.3     1  UNL1       -0.2727
     20 C          -1.4375  -17.7624   19.5807 C.3     1  UNL1        0.0722
     21 C          -2.8496  -17.9699   19.1191 C.3     1  UNL1        0.0210
     22 C          -1.6674  -18.6377   20.4439 C.3     1  UNL1        0.0722
     23 C          -2.9442  -18.8254   20.0266 C.3     1  UNL1        0.0210
     24 O          -5.3748  -16.9985   22.8321 O.3     1  UNL1       -0.3415
     25 C          -4.3418  -17.6354   23.7136 C.3     1  UNL1        0.1751
@<TRIPOS>BOND
     1    10    11    1
     2    11     1    1
     3     1     2    2
     4     2     3    1
     5     3     4    2
     6     4     5    1
     7     5     6    2
     8     6     7    1
     9     7    12    1
    10    12    13    2
    11    12    14    1
    12    14    15    1
    13    15    16    1
    14    16    17    1
    15    17    18    1
    16    18    19    1
    17    19    20    1
    18    20    21    1
    19    19    22    1
    20    22    23    1
    21     7     8    2
    22     8     9    1
    23     9    24    1
    24    24    25    1
    25     9     1    1
    26     8     4    1
    27    21    16    1
    28    23    16    1
@<TRIPOS>MOLECULE
*****
 25 28 0 0 0
SMALL
GASTEIGER

@<TRIPOS>ATOM
      1 C         -10.9618  -18.2105   22.4094 C.2     1  UNL1        0.1475
      2 C         -11.6000  -18.6357   21.1204 C.2     1  UNL1        0.0367
      3 C         -10.7444  -19.0671   19.9663 C.2     1  UNL1        0.0217
      4 C          -9.2505  -19.0731   20.1013 C.2     1  UNL1        0.0804
      5 N          -8.1577  -19.4447   19.1434 N.2     1  UNL1       -0.2439
      6 C          -6.8440  -19.2490   19.8405 C.2     1  UNL1        0.1050
      7 C          -7.1249  -18.7565   21.2292 C.2     1  UNL1        0.0949
      8 C          -8.6123  -18.6478   21.3904 C.2     1  UNL1        0.0372
      9 C          -9.4679  -18.2165   22.5445 C.3     1  UNL1        0.1952
     10 C         -13.3044  -17.9677   23.5063 C.3     1  UNL1        0.2521
     11 O         -11.8174  -17.7791   23.5636 O.2     1  UNL1       -0.4729
     12 C          -6.0987  -18.4301   22.2734 C.2     1  UNL1        0.3426
     13 O          -5.9370  -17.0171   22.7501 O.2     1  UNL1       -0.2448
     14 O          -5.2342  -19.5167   22.8408 O.3     1  UNL1       -0.4454
     15 C          -3.9573  -19.8961   22.1513 C.3     1  UNL1        0.2087
     16 C          -3.1973  -18.8709   21.3630 C.3     1  UNL1        0.0445
     17 C          -3.1194  -18.9804   19.8689 C.3     1  UNL1        0.0210
     18 C          -2.3594  -17.9553   19.0805 C.3     1  UNL1        0.0722
     19 N          -1.6774  -16.8207   19.7860 N.3     1  UNL1       -0.2727
     20 C          -1.7554  -16.7113   21.2800 C.3     1  UNL1        0.0722
     21 C          -2.5154  -17.7364   22.0684 C.3     1  UNL1        0.0210
     22 C          -2.0821  -17.3582   20.2608 C.3     1  UNL1        0.0722
     23 C          -2.7693  -18.2852   20.9736 C.3     1  UNL1        0.0210
     24 O          -8.8297  -17.7912   23.8336 O.3     1  UNL1       -0.3415
     25 C          -8.8909  -16.3553   24.2629 C.3     1  UNL1        0.1751
@<TRIPOS>BOND
     1    10    11    1
     2    11     1    1
     3     1     2    2
     4     2     3    1
     5     3     4    2
     6     4     5    1
     7     5     6    2
     8     6     7    1
     9     7    12    1
    10    12    13    2
    11    12    14    1
    12    14    15    1
    13    15    16    1
    14    16    17    1
    15    17    18    1
    16    18    19    1
    17    19    20    1
    18    20    21    1
    19    19    22    1
    20    22    23    1
    21     7     8    2
    22     8     9    1
    23     9    24    1
    24    24    25    1
    25     9     1    1
    26     8     4    1
    27    21    16    1
    28    23    16    1
@<TRIPOS>MOLECULE
*****
 25 28 0 0 0
SMALL
GASTEIGER

@<TRIPOS>ATOM
      1 C          -3.5750  -19.4020   21.2472 C.2     1  UNL1        0.1475
      2 C          -3.9199  -20.5263   20.3162 C.2     1  UNL1        0.0367
      3 C          -5.3552  -20.8203   19.9946 C.2     1  UNL1        0.0217
      4 C          -6.4456  -19.9899   20.6041 C.2     1  UNL1        0.0804
      5 N          -7.9391  -20.0429   20.4745 N.2     1  UNL1       -0.2439
      6 C          -8.5171  -18.9512   21.3254 C.2     1  UNL1        0.1050
      7 C          -7.3810  -18.2236   21.9810 C.2     1  UNL1        0.0949
      8 C          -6.1007  -18.8656   21.5352 C.2     1  UNL1        0.0372
      9 C          -4.6653  -18.5717   21.8567 C.3     1  UNL1        0.1952
     10 C          -1.3867  -18.0849   20.7710 C.3     1  UNL1        0.2521
     11 O          -2.1396  -19.1080   21.5688 O.2     1  UNL1       -0.4729
     12 C          -7.5036  -17.0587   22.9179 C.2     1  UNL1        0.3426
     13 O          -6.6445  -15.8448   22.7216 O.2     1  UNL1       -0.2448
     14 O          -8.4853  -17.1075   24.0510 O.3     1  UNL1       -0.4454
     15 C          -9.7474  -16.2997   23.9851 C.3     1  UNL1        0.2087
     16 C         -10.8140  -16.6545   22.9920 C.3     1  UNL1        0.0445
     17 C         -11.8439  -17.6898   23.3353 C.3     1  UNL1        0.0210
     18 C         -12.9106  -18.0447   22.3422 C.3     1  UNL1        0.0722
     19 N         -12.9474  -17.3643   21.0058 N.3     1  UNL1       -0.2727
     20 C         -11.9176  -16.3292   20.6625 C.3     1  UNL1        0.0722
     21 C         -10.8509  -15.9743   21.6556 C.3     1  UNL1        0.0210
     22 C         -12.3437  -17.1366   21.5173 C.3     1  UNL1        0.0722
     23 C         -11.3792  -16.8157   22.4153 C.3     1  UNL1        0.0210
     24 O          -4.3204  -17.4473   22.7878 O.3     1  UNL1       -0.3415
     25 C          -3.9594  -17.7387   24.2142 C.3     1  UNL1        0.1751
@<TRIPOS>BOND
     1    10    11    1
     2    11     1    1
     3     1     2    2
     4     2     3    1
     5     3     4    2
     6     4     5    1
     7     5     6    2
     8     6     7    1
     9     7    12    1
    10    12    13    2
    11    12    14    1
    12    14    15    1
    13    15    16    1
    14    16    17    1
    15    17    18    1
    16    18    19    1
    17    19    20    1
    18    20    21    1
    19    19    22    1
    20    22    23    1
    21     7     8    2
    22     8     9    1
    23     9    24    1
    24    24    25    1
    25     9     1    1
    26     8     4    1
    27    21    16    1
    28    23    16    1
@<TRIPOS>MOLECULE
*****
 25 28 0 0 0
SMALL
GASTEIGER

@<TRIPOS>ATOM
      1 C          -5.7443  -16.6469   23.7817 C.2     1  UNL1        0.1475
      2 C          -4.2862  -16.9942   23.8367 C.2     1  UNL1        0.0367
      3 C          -3.7480  -18.1083   22.9885 C.2     1  UNL1        0.0217
      4 C          -4.6681  -18.8749   22.0854 C.2     1  UNL1        0.0804
      5 N          -4.4272  -20.0150   21.1407 N.2     1  UNL1       -0.2439
      6 C          -5.7366  -20.3722   20.5020 C.2     1  UNL1        0.1050
      7 C          -6.7867  -19.4529   21.0518 C.2     1  UNL1        0.0949
      8 C          -6.1263  -18.5276   22.0304 C.2     1  UNL1        0.0372
      9 C          -6.6644  -17.4136   22.8786 C.3     1  UNL1        0.1952
     10 C          -6.0513  -15.5398   26.1120 C.3     1  UNL1        0.2521
     11 O          -6.2825  -15.5329   24.6299 O.2     1  UNL1       -0.4729
     12 C          -8.2416  -19.4582   20.6871 C.2     1  UNL1        0.3426
     13 O          -8.6844  -18.9143   19.3611 O.2     1  UNL1       -0.2448
     14 O          -9.2539  -20.0073   21.6483 O.3     1  UNL1       -0.4454
     15 C         -10.7175  -19.9003   21.3383 C.3     1  UNL1        0.2087
     16 C         -11.4664  -18.6457   21.6778 C.3     1  UNL1        0.0445
     17 C         -12.1012  -18.4935   23.0284 C.3     1  UNL1        0.0210
     18 C         -12.8501  -17.2389   23.3680 C.3     1  UNL1        0.0722
     19 N         -12.9641  -16.1366   22.3570 N.3     1  UNL1       -0.2727
     20 C         -12.3292  -16.2888   21.0066 C.3     1  UNL1        0.0722
     21 C         -11.5804  -17.5434   20.6670 C.3     1  UNL1        0.0210
     22 C         -12.5437  -16.8055   22.1251 C.3     1  UNL1        0.0722
     23 C         -11.8665  -17.9399   21.8181 C.3     1  UNL1        0.0210
     24 O          -8.1226  -17.0662   22.8237 O.3     1  UNL1       -0.3415
     25 C          -8.5882  -15.9149   21.9824 C.3     1  UNL1        0.1751
@<TRIPOS>BOND
     1    10    11    1
     2    11     1    1
     3     1     2    2
     4     2     3    1
     5     3     4    2
     6     4     5    1
     7     5     6    2
     8     6     7    1
     9     7    12    1
    10    12    13    2
    11    12    14    1
    12    14    15    1
    13    15    16    1
    14    16    17    1
    15    17    18    1
    16    18    19    1
    17    19    20    1
    18    20    21    1
    19    19    22    1
    20    22    23    1
    21     7     8    2
    22     8     9    1
    23     9    24    1
    24    24    25    1
    25     9     1    1
    26     8     4    1
    27    21    16    1
    28    23    16    1
@<TRIPOS>MOLECULE
*****
 25 28 0 0 0
SMALL
GASTEIGER

@<TRIPOS>ATOM
      1 C          -6.5828  -20.1846   20.6146 C.2     1  UNL1        0.1475
      2 C          -5.7356  -21.0427   19.7227 C.2     1  UNL1        0.0367
      3 C          -4.2403  -20.9885   19.8294 C.2     1  UNL1        0.0217
      4 C          -3.5924  -20.0761   20.8282 C.2     1  UNL1        0.0804
      5 N          -2.1538  -19.8105   21.1596 N.2     1  UNL1       -0.2439
      6 C          -2.1119  -18.7881   22.2565 C.2     1  UNL1        0.1050
      7 C          -3.5247  -18.4218   22.6029 C.2     1  UNL1        0.0949
      8 C          -4.4397  -19.2179   21.7202 C.2     1  UNL1        0.0372
      9 C          -5.9349  -19.2721   21.6134 C.3     1  UNL1        0.1952
     10 C          -8.7644  -19.6765   19.2984 C.3     1  UNL1        0.2521
     11 O          -8.0781  -20.2388   20.5079 O.2     1  UNL1       -0.4729
     12 C          -3.9481  -17.4332   23.6485 C.2     1  UNL1        0.3426
     13 O          -3.7291  -17.7376   25.1009 O.2     1  UNL1       -0.2448
     14 O          -4.5904  -16.1401   23.2417 O.3     1  UNL1       -0.4454
     15 C          -4.9361  -15.1150   24.2807 C.3     1  UNL1        0.2087
     16 C          -6.1452  -15.3045   25.1481 C.3     1  UNL1        0.0445
     17 C          -5.9809  -15.6543   26.5976 C.3     1  UNL1        0.0210
     18 C          -7.1899  -15.8437   27.4650 C.3     1  UNL1        0.0722
     19 N          -8.5632  -15.6833   26.8830 N.3     1  UNL1       -0.2727
     20 C          -8.7274  -15.3335   25.4337 C.3     1  UNL1        0.0722
     21 C          -7.5184  -15.1441   24.5662 C.3     1  UNL1        0.0210
     22 C          -7.9306  -15.5696   26.3683 C.3     1  UNL1        0.0722
     23 C          -6.8374  -15.3983   25.5840 C.3     1  UNL1        0.0210
     24 O          -6.7821  -18.4139   22.5054 O.3     1  UNL1       -0.3415
     25 C          -7.6711  -17.3623   21.9105 C.3     1  UNL1        0.1751
@<TRIPOS>BOND
     1    10    11    1
     2    11     1    1
     3     1     2    2
     4     2     3    1
     5     3     4    2
     6     4     5    1
     7     5     6    2
     8     6     7    1
     9     7    12    1
    10    12    13    2
    11    12    14    1
    12    14    15    1
    13    15    16    1
    14    16    17    1
    15    17    18    1
    16    18    19    1
    17    19    20    1
    18    20    21    1
    19    19    22    1
    20    22    23    1
    21     7     8    2
    22     8     9    1
    23     9    24    1
    24    24    25    1
    25     9     1    1
    26     8     4    1
    27    21    16    1
    28    23    16    1
@<TRIPOS>MOLECULE
*****
 25 28 0 0 0
SMALL
GASTEIGER

@<TRIPOS>ATOM
      1 C          -2.5006  -19.2434   20.9529 C.2     1  UNL1        0.1475
      2 C          -3.0122  -20.3957   20.1403 C.2     1  UNL1        0.0367
      3 C          -4.4777  -20.7156   20.1321 C.2     1  UNL1        0.0217
      4 C          -5.4316  -19.8832   20.9366 C.2     1  UNL1        0.0804
      5 N          -6.9181  -19.9579   21.1226 N.2     1  UNL1       -0.2439
      6 C          -7.3252  -18.8517   22.0503 C.2     1  UNL1        0.1050
      7 C          -6.0903  -18.0934   22.4376 C.2     1  UNL1        0.0949
      8 C          -4.9200  -18.7309   21.7492 C.2     1  UNL1        0.0372
      9 C          -3.4545  -18.4110   21.7574 C.3     1  UNL1        0.1952
     10 C          -0.4214  -18.1890   19.8063 C.3     1  UNL1        0.2521
     11 O          -1.0351  -18.9234   20.9612 O.2     1  UNL1       -0.4729
     12 C          -6.0355  -16.9060   23.3525 C.2     1  UNL1        0.3426
     13 O          -4.9557  -16.8071   24.3890 O.2     1  UNL1       -0.2448
     14 O          -7.0604  -15.8175   23.2310 O.3     1  UNL1       -0.4454
     15 C          -8.1954  -15.7436   24.2088 C.3     1  UNL1        0.2087
     16 C          -9.3876  -16.6388   24.0431 C.3     1  UNL1        0.0445
     17 C         -10.4478  -16.2974   23.0383 C.3     1  UNL1        0.0210
     18 C         -11.6400  -17.1925   22.8726 C.3     1  UNL1        0.0722
     19 N         -11.7720  -18.4289   23.7116 N.3     1  UNL1       -0.2727
     20 C         -10.7118  -18.7703   24.7163 C.3     1  UNL1        0.0722
     21 C          -9.5196  -17.8752   24.8820 C.3     1  UNL1        0.0210
     22 C         -11.1008  -17.9692   23.8382 C.3     1  UNL1        0.0722
     23 C         -10.0228  -17.1598   23.9880 C.3     1  UNL1        0.0210
     24 O          -2.9429  -17.2586   22.5701 O.3     1  UNL1       -0.3415
     25 C          -2.3971  -16.0412   21.8845 C.3     1  UNL1        0.1751
@<TRIPOS>BOND
     1    10    11    1
     2    11     1    1
     3     1     2    2
     4     2     3    1
     5     3     4    2
     6     4     5    1
     7     5     6    2
     8     6     7    1
     9     7    12    1
    10    12    13    2
    11    12    14    1
    12    14    15    1
    13    15    16    1
    14    16    17    1
    15    17    18    1
    16    18    19    1
    17    19    20    1
    18    20    21    1
    19    19    22    1
    20    22    23    1
    21     7     8    2
    22     8     9    1
    23     9    24    1
    24    24    25    1
    25     9     1    1
    26     8     4    1
    27    21    16    1
    28    23    16    1
@<TRIPOS>MOLECULE
*****
 25 28 0 0 0
SMALL
GASTEIGER

@<TRIPOS>ATOM
      1 C          -2.9367  -18.3135   22.0560 C.2     1  UNL1        0.1475
      2 C          -2.6706  -16.9831   22.6954 C.2     1  UNL1        0.0367
      3 C          -3.8108  -16.1616   23.2202 C.2     1  UNL1        0.0217
      4 C          -5.2170  -16.6708   23.1056 C.2     1  UNL1        0.0804
      5 N          -6.5330  -16.0881   23.5284 N.2     1  UNL1       -0.2439
      6 C          -7.6124  -17.0586   23.1502 C.2     1  UNL1        0.1050
      7 C          -6.9636  -18.2410   22.4937 C.2     1  UNL1        0.0949
      8 C          -5.4831  -18.0013   22.4661 C.2     1  UNL1        0.0372
      9 C          -4.3430  -18.8227   21.9414 C.3     1  UNL1        0.1952
     10 C          -1.1276  -18.7535   20.2440 C.3     1  UNL1        0.2521
     11 O          -1.7966  -19.1350   21.5312 O.2     1  UNL1       -0.4729
     12 C          -7.6711  -19.4507   21.9588 C.2     1  UNL1        0.3426
     13 O          -7.4362  -20.7941   22.5833 O.2     1  UNL1       -0.2448
     14 O          -8.6133  -19.3169   20.7993 O.3     1  UNL1       -0.4454
     15 C         -10.0224  -19.8176   20.9165 C.3     1  UNL1        0.2087
     16 C         -11.0353  -19.0317   21.6951 C.3     1  UNL1        0.0445
     17 C         -11.1556  -19.2244   23.1779 C.3     1  UNL1        0.0210
     18 C         -12.1685  -18.4385   23.9566 C.3     1  UNL1        0.0722
     19 N         -13.0612  -17.4600   23.2525 N.3     1  UNL1       -0.2727
     20 C         -12.9410  -17.2673   21.7699 C.3     1  UNL1        0.0722
     21 C         -11.9280  -18.0532   20.9911 C.3     1  UNL1        0.0210
     22 C         -12.5212  -17.8678   22.7834 C.3     1  UNL1        0.0722
     23 C         -11.6053  -18.5784   22.0793 C.3     1  UNL1        0.0210
     24 O          -4.6091  -20.1532   21.3019 O.3     1  UNL1       -0.3415
     25 C          -4.5106  -20.3027   19.8126 C.3     1  UNL1        0.1751
@<TRIPOS>BOND
     1    10    11    1
     2    11     1    1
     3     1     2    2
     4     2     3    1
     5     3     4    2
     6     4     5    1
     7     5     6    2
     8     6     7    1
     9     7    12    1
    10    12    13    2
    11    12    14    1
    12    14    15    1
    13    15    16    1
    14    16    17    1
    15    17    18    1
    16    18    19    1
    17    19    20    1
    18    20    21    1
    19    19    22    1
    20    22    23    1
    21     7     8    2
    22     8     9    1
    23     9    24    1
    24    24    25    1
    25     9     1    1
    26     8     4    1
    27    21    16    1
    28    23    16    1
@<TRIPOS>MOLECULE
*****
 25 28 0 0 0
SMALL
GASTEIGER

@<TRIPOS>ATOM
      1 C          -7.6884  -20.5155   19.3607 C.2     1  UNL1        0.1475
      2 C          -6.4321  -21.3346   19.3817 C.2     1  UNL1        0.0367
      3 C          -5.3329  -20.9976   20.3453 C.2     1  UNL1        0.0217
      4 C          -5.4903  -19.8414   21.2878 C.2     1  UNL1        0.0804
      5 N          -4.5849  -19.2746   22.3409 N.2     1  UNL1       -0.2439
      6 C          -5.2818  -18.1051   22.9707 C.2     1  UNL1        0.1050
      7 C          -6.6178  -17.9491   22.3069 C.2     1  UNL1        0.0949
      8 C          -6.7467  -19.0222   21.2668 C.2     1  UNL1        0.0372
      9 C          -7.8458  -19.3593   20.3032 C.3     1  UNL1        0.1952
     10 C          -8.7590  -22.1543   17.6524 C.3     1  UNL1        0.2521
     11 O          -8.7876  -20.8526   18.3971 O.2     1  UNL1       -0.4729
     12 C          -7.6447  -16.9036   22.6270 C.2     1  UNL1        0.3426
     13 O          -7.8366  -15.7345   21.7071 O.2     1  UNL1       -0.2448
     14 O          -8.4796  -17.0273   23.8670 O.3     1  UNL1       -0.4454
     15 C          -9.7779  -16.2838   23.9741 C.3     1  UNL1        0.2087
     16 C         -10.9513  -16.6990   23.1369 C.3     1  UNL1        0.0445
     17 C         -11.2495  -15.9798   21.8547 C.3     1  UNL1        0.0210
     18 C         -12.4228  -16.3949   21.0174 C.3     1  UNL1        0.0722
     19 N         -13.2979  -17.5292   21.4622 N.3     1  UNL1       -0.2727
     20 C         -12.9996  -18.2483   22.7444 C.3     1  UNL1        0.0722
     21 C         -11.8263  -17.8332   23.5817 C.3     1  UNL1        0.0210
     22 C         -12.6662  -17.3377   21.9546 C.3     1  UNL1        0.0722
     23 C         -11.6053  -16.9624   22.7116 C.3     1  UNL1        0.0210
     24 O          -9.1022  -18.5402   20.2822 O.3     1  UNL1       -0.3415
     25 C         -10.4299  -19.2084   20.0807 C.3     1  UNL1        0.1751
@<TRIPOS>BOND
     1    10    11    1
     2    11     1    1
     3     1     2    2
     4     2     3    1
     5     3     4    2
     6     4     5    1
     7     5     6    2
     8     6     7    1
     9     7    12    1
    10    12    13    2
    11    12    14    1
    12    14    15    1
    13    15    16    1
    14    16    17    1
    15    17    18    1
    16    18    19    1
    17    19    20    1
    18    20    21    1
    19    19    22    1
    20    22    23    1
    21     7     8    2
    22     8     9    1
    23     9    24    1
    24    24    25    1
    25     9     1    1
    26     8     4    1
    27    21    16    1
    28    23    16    1
