@<TRIPOS>MOLECULE
*****
 23 25 0 0 0
SMALL
GASTEIGER

@<TRIPOS>ATOM
      1 C          -8.4761  -17.2268   22.5369 C.2     1  UNL1        0.2495
      2 O          -8.9633  -16.8685   21.1643 O.2     1  UNL1       -0.2699
      3 N          -9.4599  -17.4580   23.6454 N.am    1  UNL1       -0.2763
      4 C          -6.2616  -18.5705   22.3355 C.ar    1  UNL1        0.0296
      5 C          -4.7906  -18.6975   22.5997 C.ar    1  UNL1        0.0063
      6 C          -4.0629  -17.6077   23.3297 C.ar    1  UNL1        0.0005
      7 C          -4.8062  -16.3909   23.7954 C.ar    1  UNL1        0.0002
      8 C          -6.2772  -16.2640   23.5311 C.ar    1  UNL1        0.0050
      9 C          -7.0049  -17.3538   22.8012 C.ar    1  UNL1        0.0592
     10 S          -6.9893  -19.6603   21.6055 S.3     1  UNL1       -0.1135
     11 C          -8.3205  -19.7145   19.3751 C.3     1  UNL1        0.0129
     12 C          -7.0112  -19.6735   20.1058 C.3     1  UNL1        0.0622
     13 C         -10.9309  -17.3311   23.3812 C.3     1  UNL1        0.0927
     14 C         -11.9824  -18.3361   23.7475 C.3     1  UNL1        0.0383
     15 C         -13.3101  -17.8029   23.2970 C.3     1  UNL1        0.0704
     16 N         -13.0792  -16.4683   22.6523 N.3     1  UNL1       -0.2960
     17 C         -11.6087  -16.1768   22.7043 C.3     1  UNL1        0.0887
     18 H         -13.5933  -15.7464   23.1571 H       1  UNL1        0.1233
     19 C          -8.9725  -17.8163   25.0181 C.3     1  UNL1        0.0936
     20 C          -8.6898  -16.7358   26.0193 C.3     1  UNL1        0.0199
     21 C          -8.5612  -15.2424   25.9604 C.3     1  UNL1        0.0017
     22 C          -8.2901  -15.2077   27.4353 C.3     1  UNL1        0.0001
     23 C          -8.4188  -16.7009   27.4942 C.3     1  UNL1        0.0017
@<TRIPOS>BOND
     1    11    12    1
     2    12    10    1
     3    10     4    1
     4     4     5   ar
     5     5     6   ar
     6     6     7   ar
     7     7     8   ar
     8     8     9   ar
     9     9     1    1
    10     1     2    2
    11     1     3   am
    12     3    19    1
    13    19    20    1
    14    20    21    1
    15    21    22    1
    16    22    23    1
    17    13     3    1
    18    13    14    1
    19    14    15    1
    20    15    16    1
    21    16    17    1
    22     9     4   ar
    23    23    20    1
    24    17    13    1
    25    16    18    1
@<TRIPOS>MOLECULE
*****
 23 25 0 0 0
SMALL
GASTEIGER

@<TRIPOS>ATOM
      1 C          -8.2502  -19.0980   22.6530 C.2     1  UNL1        0.2495
      2 O          -7.8036  -20.5064   22.3946 O.2     1  UNL1       -0.2699
      3 N          -7.2511  -17.9792   22.6358 N.am    1  UNL1       -0.2763
      4 C         -10.6066  -18.4030   21.8076 C.ar    1  UNL1        0.0296
      5 C         -12.0522  -18.1132   22.0832 C.ar    1  UNL1        0.0063
      6 C         -12.5873  -18.2288   23.4797 C.ar    1  UNL1        0.0005
      7 C         -11.6768  -18.6340   24.6007 C.ar    1  UNL1        0.0002
      8 C         -10.2311  -18.9238   24.3251 C.ar    1  UNL1        0.0050
      9 C          -9.6960  -18.8082   22.9285 C.ar    1  UNL1        0.0592
     10 S         -10.0714  -18.2874   20.4111 S.3     1  UNL1       -0.1135
     11 C          -8.8574  -20.0464   18.9339 C.3     1  UNL1        0.0129
     12 C         -10.1260  -19.4677   19.4870 C.3     1  UNL1        0.0622
     13 C          -5.8054  -18.2689   22.3602 C.3     1  UNL1        0.0927
     14 C          -4.6399  -17.7925   23.1754 C.3     1  UNL1        0.0383
     15 C          -3.3855  -18.3150   22.5401 C.3     1  UNL1        0.0704
     16 N          -3.7758  -19.1144   21.3323 N.3     1  UNL1       -0.2960
     17 C          -5.2714  -19.0859   21.2212 C.3     1  UNL1        0.0887
     18 H          -3.4547  -20.0770   21.4357 H       1  UNL1        0.1233
     19 C          -7.6979  -16.5707   22.8942 C.3     1  UNL1        0.0936
     20 C          -7.7653  -16.0513   24.2997 C.3     1  UNL1        0.0199
     21 C          -6.7542  -15.6297   25.3244 C.3     1  UNL1        0.0017
     22 C          -7.8607  -15.3166   26.2875 C.3     1  UNL1        0.0001
     23 C          -8.8718  -15.7381   25.2629 C.3     1  UNL1        0.0017
@<TRIPOS>BOND
     1    11    12    1
     2    12    10    1
     3    10     4    1
     4     4     5   ar
     5     5     6   ar
     6     6     7   ar
     7     7     8   ar
     8     8     9   ar
     9     9     1    1
    10     1     2    2
    11     1     3   am
    12     3    19    1
    13    19    20    1
    14    20    21    1
    15    21    22    1
    16    22    23    1
    17    13     3    1
    18    13    14    1
    19    14    15    1
    20    15    16    1
    21    16    17    1
    22     9     4   ar
    23    23    20    1
    24    17    13    1
    25    16    18    1
@<TRIPOS>MOLECULE
*****
 23 25 0 0 0
SMALL
GASTEIGER

@<TRIPOS>ATOM
      1 C          -8.3382  -15.7934   23.2786 C.2     1  UNL1        0.2495
      2 O          -7.8060  -14.9912   22.1283 O.2     1  UNL1       -0.2699
      3 N          -9.4874  -16.7344   23.0687 N.am    1  UNL1       -0.2763
      4 C          -6.2358  -15.7794   24.8049 C.ar    1  UNL1        0.0296
      5 C          -5.6190  -15.6405   26.1652 C.ar    1  UNL1        0.0063
      6 C          -6.4877  -15.3769   27.3593 C.ar    1  UNL1        0.0005
      7 C          -7.9732  -15.2521   27.1932 C.ar    1  UNL1        0.0002
      8 C          -8.5900  -15.3910   25.8330 C.ar    1  UNL1        0.0050
      9 C          -7.7213  -15.6546   24.6389 C.ar    1  UNL1        0.0592
     10 S          -5.3671  -16.0430   23.6108 S.3     1  UNL1       -0.1135
     11 C          -4.3665  -18.2980   22.7964 C.3     1  UNL1        0.0129
     12 C          -4.2937  -17.0884   23.6804 C.3     1  UNL1        0.0622
     13 C         -10.1043  -16.8732   21.7086 C.3     1  UNL1        0.0927
     14 C         -11.0567  -15.9065   21.0696 C.3     1  UNL1        0.0383
     15 C         -11.4182  -16.4390   19.7147 C.3     1  UNL1        0.0704
     16 N         -10.6891  -17.7348   19.5162 N.3     1  UNL1       -0.2960
     17 C          -9.8771  -18.0032   20.7485 C.3     1  UNL1        0.0887
     18 H         -10.0746  -17.6655   18.7050 H       1  UNL1        0.1233
     19 C         -10.0196  -17.5365   24.2191 C.3     1  UNL1        0.0936
     20 C          -9.8037  -19.0203   24.2623 C.3     1  UNL1        0.0199
     21 C          -8.9293  -19.9870   23.5199 C.3     1  UNL1        0.0017
     22 C          -9.4983  -21.1186   24.3234 C.3     1  UNL1        0.0001
     23 C         -10.3726  -20.1520   25.0657 C.3     1  UNL1        0.0017
@<TRIPOS>BOND
     1    11    12    1
     2    12    10    1
     3    10     4    1
     4     4     5   ar
     5     5     6   ar
     6     6     7   ar
     7     7     8   ar
     8     8     9   ar
     9     9     1    1
    10     1     2    2
    11     1     3   am
    12     3    19    1
    13    19    20    1
    14    20    21    1
    15    21    22    1
    16    22    23    1
    17    13     3    1
    18    13    14    1
    19    14    15    1
    20    15    16    1
    21    16    17    1
    22     9     4   ar
    23    23    20    1
    24    17    13    1
    25    16    18    1
@<TRIPOS>MOLECULE
*****
 23 25 0 0 0
SMALL
GASTEIGER

@<TRIPOS>ATOM
      1 C          -8.1888  -17.9108   22.3428 C.2     1  UNL1        0.2495
      2 O          -7.9124  -19.2534   21.7339 O.2     1  UNL1       -0.2699
      3 N          -7.0665  -17.1097   22.9334 N.am    1  UNL1       -0.2763
      4 C         -10.4947  -17.6738   23.5160 C.ar    1  UNL1        0.0296
      5 C         -11.8934  -17.1321   23.5342 C.ar    1  UNL1        0.0063
      6 C         -12.3847  -16.2857   22.3975 C.ar    1  UNL1        0.0005
      7 C         -11.4774  -15.9809   21.2425 C.ar    1  UNL1        0.0002
      8 C         -10.0788  -16.5226   21.2243 C.ar    1  UNL1        0.0050
      9 C          -9.5875  -17.3691   22.3610 C.ar    1  UNL1        0.0592
     10 S         -10.0034  -18.5202   24.6527 S.3     1  UNL1       -0.1135
     11 C          -9.4419  -21.0334   24.3085 C.3     1  UNL1        0.0129
     12 C         -10.4013  -19.9639   24.7394 C.3     1  UNL1        0.0622
     13 C          -5.6679  -17.6513   22.9152 C.3     1  UNL1        0.0927
     14 C          -4.4560  -16.9830   23.4937 C.3     1  UNL1        0.0383
     15 C          -3.2746  -17.8750   23.2513 C.3     1  UNL1        0.0704
     16 N          -3.7564  -19.0947   22.5230 N.3     1  UNL1       -0.2960
     17 C          -5.2355  -18.9564   22.3153 C.3     1  UNL1        0.0887
     18 H          -3.5611  -19.9285   23.0771 H       1  UNL1        0.1233
     19 C          -7.3430  -15.7670   23.5424 C.3     1  UNL1        0.0936
     20 C          -7.3969  -15.6166   25.0338 C.3     1  UNL1        0.0199
     21 C          -6.3751  -15.4983   26.1257 C.3     1  UNL1        0.0017
     22 C          -7.4733  -15.4040   27.1431 C.3     1  UNL1        0.0001
     23 C          -8.4950  -15.5224   26.0513 C.3     1  UNL1        0.0017
@<TRIPOS>BOND
     1    11    12    1
     2    12    10    1
     3    10     4    1
     4     4     5   ar
     5     5     6   ar
     6     6     7   ar
     7     7     8   ar
     8     8     9   ar
     9     9     1    1
    10     1     2    2
    11     1     3   am
    12     3    19    1
    13    19    20    1
    14    20    21    1
    15    21    22    1
    16    22    23    1
    17    13     3    1
    18    13    14    1
    19    14    15    1
    20    15    16    1
    21    16    17    1
    22     9     4   ar
    23    23    20    1
    24    17    13    1
    25    16    18    1
@<TRIPOS>MOLECULE
*****
 23 25 0 0 0
SMALL
GASTEIGER

@<TRIPOS>ATOM
      1 C          -7.8128  -16.8096   21.9378 C.2     1  UNL1        0.2495
      2 O          -8.0028  -15.3811   21.5216 O.2     1  UNL1       -0.2699
      3 N          -8.9519  -17.7796   21.8312 N.am    1  UNL1       -0.2763
      4 C          -5.8198  -16.5217   23.5795 C.ar    1  UNL1        0.0296
      5 C          -4.4908  -16.9802   24.1022 C.ar    1  UNL1        0.0063
      6 C          -3.8255  -18.1851   23.5059 C.ar    1  UNL1        0.0005
      7 C          -4.4893  -18.9315   22.3868 C.ar    1  UNL1        0.0002
      8 C          -5.8184  -18.4730   21.8642 C.ar    1  UNL1        0.0050
      9 C          -6.4836  -17.2681   22.4605 C.ar    1  UNL1        0.0592
     10 S          -6.4851  -15.3168   24.1759 S.3     1  UNL1       -0.1135
     11 C          -8.8483  -15.5882   25.2207 C.3     1  UNL1        0.0129
     12 C          -7.3622  -15.4652   25.3836 C.3     1  UNL1        0.0622
     13 C         -10.2810  -17.3212   21.3085 C.3     1  UNL1        0.0927
     14 C         -11.2858  -16.4962   22.0568 C.3     1  UNL1        0.0383
     15 C         -12.4645  -16.2724   21.1565 C.3     1  UNL1        0.0704
     16 N         -12.1883  -16.9590   19.8518 N.3     1  UNL1       -0.2960
     17 C         -10.8388  -17.6072   19.9458 C.3     1  UNL1        0.0887
     18 H         -12.1924  -16.2765   19.0937 H       1  UNL1        0.1233
     19 C          -8.7619  -19.2082   22.2474 C.3     1  UNL1        0.0936
     20 C          -9.3671  -19.7032   23.5276 C.3     1  UNL1        0.0199
     21 C         -10.1521  -19.0766   24.6417 C.3     1  UNL1        0.0017
     22 C         -10.2229  -20.4033   25.3379 C.3     1  UNL1        0.0001
     23 C          -9.4379  -21.0299   24.2240 C.3     1  UNL1        0.0017
@<TRIPOS>BOND
     1    11    12    1
     2    12    10    1
     3    10     4    1
     4     4     5   ar
     5     5     6   ar
     6     6     7   ar
     7     7     8   ar
     8     8     9   ar
     9     9     1    1
    10     1     2    2
    11     1     3   am
    12     3    19    1
    13    19    20    1
    14    20    21    1
    15    21    22    1
    16    22    23    1
    17    13     3    1
    18    13    14    1
    19    14    15    1
    20    15    16    1
    21    16    17    1
    22     9     4   ar
    23    23    20    1
    24    17    13    1
    25    16    18    1
@<TRIPOS>MOLECULE
*****
 23 25 0 0 0
SMALL
GASTEIGER

@<TRIPOS>ATOM
      1 C          -8.0575  -15.8648   22.4716 C.2     1  UNL1        0.2495
      2 O          -7.8051  -14.9746   21.2910 O.2     1  UNL1       -0.2699
      3 N          -9.2448  -16.7815   22.4795 N.am    1  UNL1       -0.2763
      4 C          -5.8612  -16.6494   23.6163 C.ar    1  UNL1        0.0296
      5 C          -4.9263  -16.6230   24.7891 C.ar    1  UNL1        0.0063
      6 C          -5.2529  -15.7854   25.9898 C.ar    1  UNL1        0.0005
      7 C          -6.5144  -14.9743   26.0179 C.ar    1  UNL1        0.0002
      8 C          -7.4492  -15.0008   24.8451 C.ar    1  UNL1        0.0050
      9 C          -7.1226  -15.8384   23.6444 C.ar    1  UNL1        0.0592
     10 S          -5.5345  -17.4870   22.4156 S.3     1  UNL1       -0.1135
     11 C          -6.9555  -19.3213   21.2467 C.3     1  UNL1        0.0129
     12 C          -6.0139  -18.9062   22.3382 C.3     1  UNL1        0.0622
     13 C         -10.1797  -16.8079   21.3069 C.3     1  UNL1        0.0927
     14 C         -10.9663  -15.6445   20.7799 C.3     1  UNL1        0.0383
     15 C         -11.7649  -16.1200   19.6026 C.3     1  UNL1        0.0704
     16 N         -11.4719  -17.5774   19.4019 N.3     1  UNL1       -0.2960
     17 C         -10.4922  -18.0025   20.4552 C.3     1  UNL1        0.0887
     18 H         -11.0706  -17.7255   18.4759 H       1  UNL1        0.1233
     19 C          -9.4972  -17.6717   23.6602 C.3     1  UNL1        0.0936
     20 C         -10.8981  -18.0844   24.0024 C.3     1  UNL1        0.0199
     21 C         -12.2666  -17.5612   23.6804 C.3     1  UNL1        0.0017
     22 C         -12.8793  -18.6681   24.4863 C.3     1  UNL1        0.0001
     23 C         -11.5109  -19.1912   24.8082 C.3     1  UNL1        0.0017
@<TRIPOS>BOND
     1    11    12    1
     2    12    10    1
     3    10     4    1
     4     4     5   ar
     5     5     6   ar
     6     6     7   ar
     7     7     8   ar
     8     8     9   ar
     9     9     1    1
    10     1     2    2
    11     1     3   am
    12     3    19    1
    13    19    20    1
    14    20    21    1
    15    21    22    1
    16    22    23    1
    17    13     3    1
    18    13    14    1
    19    14    15    1
    20    15    16    1
    21    16    17    1
    22     9     4   ar
    23    23    20    1
    24    17    13    1
    25    16    18    1
@<TRIPOS>MOLECULE
*****
 23 25 0 0 0
SMALL
GASTEIGER

@<TRIPOS>ATOM
      1 C          -9.5016  -16.6925   23.7851 C.2     1  UNL1        0.2495
      2 O         -10.6009  -15.7325   23.4389 O.2     1  UNL1       -0.2699
      3 N          -9.2156  -17.8603   22.8883 N.am    1  UNL1       -0.2763
      4 C          -7.3628  -15.7867   24.9493 C.ar    1  UNL1        0.0296
      5 C          -6.5495  -15.5789   26.1924 C.ar    1  UNL1        0.0063
      6 C          -7.0616  -16.0689   27.5144 C.ar    1  UNL1        0.0005
      7 C          -8.3870  -16.7667   27.5933 C.ar    1  UNL1        0.0002
      8 C          -9.2003  -16.9746   26.3502 C.ar    1  UNL1        0.0050
      9 C          -8.6882  -16.4846   25.0282 C.ar    1  UNL1        0.0592
     10 S          -6.8507  -15.2967   23.6273 S.3     1  UNL1       -0.1135
     11 C          -4.6000  -16.5873   23.4905 C.3     1  UNL1        0.0129
     12 C          -5.3786  -15.3140   23.3402 C.3     1  UNL1        0.0622
     13 C         -10.0289  -18.0682   21.6452 C.3     1  UNL1        0.0927
     14 C         -10.3543  -19.3901   21.0153 C.3     1  UNL1        0.0383
     15 C         -11.1861  -19.1296   19.7946 C.3     1  UNL1        0.0704
     16 N         -11.3749  -17.6467   19.6700 N.3     1  UNL1       -0.2960
     17 C         -10.6596  -16.9907   20.8138 C.3     1  UNL1        0.0887
     18 H         -12.3686  -17.4199   19.7074 H       1  UNL1        0.1233
     19 C          -8.1162  -18.8203   23.2345 C.3     1  UNL1        0.0936
     20 C          -7.1416  -19.2561   22.1809 C.3     1  UNL1        0.0199
     21 C          -6.2990  -20.4764   21.9550 C.3     1  UNL1        0.0017
     22 C          -5.7633  -19.8724   20.6908 C.3     1  UNL1        0.0001
     23 C          -6.6058  -18.6522   20.9166 C.3     1  UNL1        0.0017
@<TRIPOS>BOND
     1    11    12    1
     2    12    10    1
     3    10     4    1
     4     4     5   ar
     5     5     6   ar
     6     6     7   ar
     7     7     8   ar
     8     8     9   ar
     9     9     1    1
    10     1     2    2
    11     1     3   am
    12     3    19    1
    13    19    20    1
    14    20    21    1
    15    21    22    1
    16    22    23    1
    17    13     3    1
    18    13    14    1
    19    14    15    1
    20    15    16    1
    21    16    17    1
    22     9     4   ar
    23    23    20    1
    24    17    13    1
    25    16    18    1
@<TRIPOS>MOLECULE
*****
 23 25 0 0 0
SMALL
GASTEIGER

@<TRIPOS>ATOM
      1 C          -7.6225  -18.2881   21.5216 C.2     1  UNL1        0.2495
      2 O          -6.2355  -18.1351   22.0718 O.2     1  UNL1       -0.2699
      3 N          -8.7353  -17.4281   22.0432 N.am    1  UNL1       -0.2763
      4 C          -6.8938  -20.3787   20.1620 C.ar    1  UNL1        0.0296
      5 C          -7.1681  -21.3916   19.0902 C.ar    1  UNL1        0.0063
      6 C          -8.4453  -21.3270   18.3063 C.ar    1  UNL1        0.0005
      7 C          -9.4483  -20.2494   18.5942 C.ar    1  UNL1        0.0002
      8 C          -9.1740  -19.2365   19.6659 C.ar    1  UNL1        0.0050
      9 C          -7.8968  -19.3011   20.4498 C.ar    1  UNL1        0.0592
     10 S          -5.6166  -20.4433   20.9459 S.3     1  UNL1       -0.1135
     11 C          -3.8907  -19.0981   19.5454 C.3     1  UNL1        0.0129
     12 C          -4.2969  -20.3655   20.2372 C.3     1  UNL1        0.0622
     13 C          -8.4611  -16.4152   23.1150 C.3     1  UNL1        0.0927
     14 C          -8.8281  -16.5432   24.5637 C.3     1  UNL1        0.0383
     15 C          -8.3656  -15.3035   25.2703 C.3     1  UNL1        0.0704
     16 N          -7.7128  -14.4092   24.2582 N.3     1  UNL1       -0.2960
     17 C          -7.7719  -15.0963   22.9261 C.3     1  UNL1        0.0887
     18 H          -6.7409  -14.2428   24.5190 H       1  UNL1        0.1233
     19 C         -10.1224  -17.5811   21.4930 C.3     1  UNL1        0.0936
     20 C         -11.2788  -17.7974   22.4236 C.3     1  UNL1        0.0199
     21 C         -12.5726  -17.0870   22.6907 C.3     1  UNL1        0.0017
     22 C         -12.9141  -18.1033   23.7397 C.3     1  UNL1        0.0001
     23 C         -11.6203  -18.8137   23.4726 C.3     1  UNL1        0.0017
@<TRIPOS>BOND
     1    11    12    1
     2    12    10    1
     3    10     4    1
     4     4     5   ar
     5     5     6   ar
     6     6     7   ar
     7     7     8   ar
     8     8     9   ar
     9     9     1    1
    10     1     2    2
    11     1     3   am
    12     3    19    1
    13    19    20    1
    14    20    21    1
    15    21    22    1
    16    22    23    1
    17    13     3    1
    18    13    14    1
    19    14    15    1
    20    15    16    1
    21    16    17    1
    22     9     4   ar
    23    23    20    1
    24    17    13    1
    25    16    18    1
@<TRIPOS>MOLECULE
*****
 23 25 0 0 0
SMALL
GASTEIGER

@<TRIPOS>ATOM
      1 C          -7.8124  -16.8729   22.8929 C.2     1  UNL1        0.2495
      2 O          -8.1110  -15.4793   23.3604 O.2     1  UNL1       -0.2699
      3 N          -8.9225  -17.7518   22.3976 N.am    1  UNL1       -0.2763
      4 C          -5.3685  -16.6952   23.7565 C.ar    1  UNL1        0.0296
      5 C          -3.9599  -17.2100   23.7843 C.ar    1  UNL1        0.0063
      6 C          -3.5866  -18.4175   22.9765 C.ar    1  UNL1        0.0005
      7 C          -4.6219  -19.1101   22.1408 C.ar    1  UNL1        0.0002
      8 C          -6.0305  -18.5953   22.1130 C.ar    1  UNL1        0.0050
      9 C          -6.4038  -17.3878   22.9208 C.ar    1  UNL1        0.0592
     10 S          -5.7418  -15.4877   24.5643 S.3     1  UNL1       -0.1135
     11 C          -6.6467  -15.5184   26.9995 C.3     1  UNL1        0.0129
     12 C          -5.4921  -15.4682   26.0432 C.3     1  UNL1        0.0622
     13 C         -10.3311  -17.2370   22.3697 C.3     1  UNL1        0.0927
     14 C         -11.4171  -17.5869   23.3434 C.3     1  UNL1        0.0383
     15 C         -12.6582  -16.8482   22.9388 C.3     1  UNL1        0.0704
     16 N         -12.3393  -16.0416   21.7149 N.3     1  UNL1       -0.2960
     17 C         -10.9010  -16.2820   21.3632 C.3     1  UNL1        0.0887
     18 H         -12.4882  -15.0506   21.9049 H       1  UNL1        0.1233
     19 C          -8.6239  -19.1455   21.9301 C.3     1  UNL1        0.0936
     20 C          -8.9595  -19.5537   20.5263 C.3     1  UNL1        0.0199
     21 C         -10.2292  -19.8290   19.7765 C.3     1  UNL1        0.0017
     22 C          -9.4341  -20.1310   18.5410 C.3     1  UNL1        0.0001
     23 C          -8.1645  -19.8558   19.2907 C.3     1  UNL1        0.0017
@<TRIPOS>BOND
     1    11    12    1
     2    12    10    1
     3    10     4    1
     4     4     5   ar
     5     5     6   ar
     6     6     7   ar
     7     7     8   ar
     8     8     9   ar
     9     9     1    1
    10     1     2    2
    11     1     3   am
    12     3    19    1
    13    19    20    1
    14    20    21    1
    15    21    22    1
    16    22    23    1
    17    13     3    1
    18    13    14    1
    19    14    15    1
    20    15    16    1
    21    16    17    1
    22     9     4   ar
    23    23    20    1
    24    17    13    1
    25    16    18    1
