@<TRIPOS>MOLECULE
*****
 21 23 0 0 0
SMALL
GASTEIGER

@<TRIPOS>ATOM
      1 C          -8.4830  -18.8284   21.6515 C.2     1  UNL1        0.3688
      2 N          -9.1641  -19.0291   22.9727 N.2     1  UNL1       -0.0400
      3 C         -10.6133  -18.6755   23.1308 C.2     1  UNL1        0.1818
      4 C         -11.2945  -18.8761   24.4520 C.3     1  UNL1        0.1000
      5 C         -12.7436  -18.5225   24.6100 C.2     1  UNL1       -0.0174
      6 C         -13.5116  -17.9683   23.4468 C.2     1  UNL1       -0.0038
      7 C         -12.8304  -17.7677   22.1255 C.2     1  UNL1        0.0101
      8 C         -11.3813  -18.1213   21.9675 C.2     1  UNL1        0.1209
      9 C         -10.7000  -17.9207   20.6462 C.2     1  UNL1        0.3788
     10 O         -11.4680  -17.3665   19.4830 O.2     1  UNL1       -0.2376
     11 N          -9.2509  -18.2742   20.4882 N.am    1  UNL1        0.0364
     12 C          -4.1355  -19.8891   21.1774 C.ar    1  UNL1        0.1401
     13 C          -5.1619  -20.5122   20.2784 C.ar    1  UNL1        0.0372
     14 C          -6.6110  -20.1587   20.4364 C.ar    1  UNL1        0.0106
     15 C          -7.0338  -19.1820   21.4934 C.ar    1  UNL1        0.0866
     16 C          -6.0074  -18.5589   22.3924 C.ar    1  UNL1        0.0106
     17 C          -4.5583  -18.9124   22.2344 C.ar    1  UNL1        0.0372
     18 O          -2.6863  -20.2426   21.0193 O.3     1  UNL1       -0.4612
     19 C          -1.7044  -19.2003   20.5731 C.3     1  UNL1        0.2820
     20 C          -2.4403  -17.2860   18.3836 C.1     1  UNL1       -0.0105
     21 C          -2.0723  -18.2431   19.4783 C.1     1  UNL1       -0.0307
@<TRIPOS>BOND
     1    20    21    3
     2    21    19    1
     3    19    18    1
     4    18    12    1
     5    12    13   ar
     6    13    14   ar
     7    14    15   ar
     8    15     1    1
     9     1     2    1
    10     2     3    2
    11     3     4    1
    12     4     5    1
    13     5     6    2
    14     6     7    1
    15     7     8    2
    16     8     9    1
    17     9    10    2
    18     9    11    1
    19    15    16   ar
    20    16    17   ar
    21    17    12   ar
    22    11     1    2
    23     8     3    1
@<TRIPOS>MOLECULE
*****
 21 23 0 0 0
SMALL
GASTEIGER

@<TRIPOS>ATOM
      1 C          -7.7135  -19.1317   21.9468 C.2     1  UNL1        0.3688
      2 N          -8.4962  -18.1676   21.1055 N.2     1  UNL1       -0.0400
      3 C          -9.9620  -17.9715   21.3567 C.2     1  UNL1        0.1818
      4 C         -10.7447  -17.0074   20.5154 C.3     1  UNL1        0.1000
      5 C         -12.2105  -16.8114   20.7666 C.2     1  UNL1       -0.0174
      6 C         -12.8935  -17.5794   21.8591 C.2     1  UNL1       -0.0038
      7 C         -12.1108  -18.5436   22.7004 C.2     1  UNL1        0.0101
      8 C         -10.6451  -18.7396   22.4492 C.2     1  UNL1        0.1209
      9 C          -9.8623  -19.7038   23.2905 C.2     1  UNL1        0.3788
     10 O         -10.5453  -20.4719   24.3830 O.2     1  UNL1       -0.2376
     11 N          -8.3965  -19.8998   23.0392 N.am    1  UNL1        0.0364
     12 C          -3.3162  -19.7199   21.1933 C.ar    1  UNL1        0.1401
     13 C          -4.3250  -20.4039   20.3190 C.ar    1  UNL1        0.0372
     14 C          -5.7908  -20.2078   20.5701 C.ar    1  UNL1        0.0106
     15 C          -6.2477  -19.3278   21.6956 C.ar    1  UNL1        0.0866
     16 C          -5.2389  -18.6438   22.5699 C.ar    1  UNL1        0.0106
     17 C          -3.7731  -18.8399   22.3187 C.ar    1  UNL1        0.0372
     18 O          -1.8504  -19.9160   20.9421 O.3     1  UNL1       -0.4612
     19 C          -1.0832  -18.9009   20.1478 C.3     1  UNL1        0.2820
     20 C          -2.5175  -17.1203   18.2055 C.1     1  UNL1       -0.0105
     21 C          -1.8003  -18.0106   19.1767 C.1     1  UNL1       -0.0307
@<TRIPOS>BOND
     1    20    21    3
     2    21    19    1
     3    19    18    1
     4    18    12    1
     5    12    13   ar
     6    13    14   ar
     7    14    15   ar
     8    15     1    1
     9     1     2    1
    10     2     3    2
    11     3     4    1
    12     4     5    1
    13     5     6    2
    14     6     7    1
    15     7     8    2
    16     8     9    1
    17     9    10    2
    18     9    11    1
    19    15    16   ar
    20    16    17   ar
    21    17    12   ar
    22    11     1    2
    23     8     3    1
@<TRIPOS>MOLECULE
*****
 21 23 0 0 0
SMALL
GASTEIGER

@<TRIPOS>ATOM
      1 C          -6.4819  -18.8678   22.2486 C.2     1  UNL1        0.3688
      2 N          -5.4535  -17.8454   22.6318 N.2     1  UNL1       -0.0400
      3 C          -4.0700  -17.9212   22.0570 C.2     1  UNL1        0.1818
      4 C          -3.0416  -16.8987   22.4402 C.3     1  UNL1        0.1000
      5 C          -1.6582  -16.9746   21.8655 C.2     1  UNL1       -0.0174
      6 C          -1.3032  -18.0729   20.9074 C.2     1  UNL1       -0.0038
      7 C          -2.3317  -19.0953   20.5242 C.2     1  UNL1        0.0101
      8 C          -3.7150  -19.0195   21.0990 C.2     1  UNL1        0.1209
      9 C          -4.7436  -20.0419   20.7158 C.2     1  UNL1        0.3788
     10 O          -4.3886  -21.1402   19.7578 O.2     1  UNL1       -0.2376
     11 N          -6.1269  -19.9661   21.2906 N.am    1  UNL1        0.0364
     12 C         -10.6322  -18.6403   23.9729 C.ar    1  UNL1        0.1401
     13 C         -10.0978  -19.9503   23.4746 C.ar    1  UNL1        0.0372
     14 C          -8.7144  -20.0262   22.8999 C.ar    1  UNL1        0.0106
     15 C          -7.8654  -18.7920   22.8234 C.ar    1  UNL1        0.0866
     16 C          -8.3998  -17.4820   23.3217 C.ar    1  UNL1        0.0106
     17 C          -9.7832  -17.4061   23.8964 C.ar    1  UNL1        0.0372
     18 O         -12.0157  -18.5645   24.5477 O.3     1  UNL1       -0.4612
     19 C         -13.1490  -18.0520   23.7095 C.3     1  UNL1        0.2820
     20 C         -12.6005  -16.8656   21.0091 C.1     1  UNL1       -0.0105
     21 C         -12.8748  -17.4588   22.3594 C.1     1  UNL1       -0.0307
@<TRIPOS>BOND
     1    20    21    3
     2    21    19    1
     3    19    18    1
     4    18    12    1
     5    12    13   ar
     6    13    14   ar
     7    14    15   ar
     8    15     1    1
     9     1     2    1
    10     2     3    2
    11     3     4    1
    12     4     5    1
    13     5     6    2
    14     6     7    1
    15     7     8    2
    16     8     9    1
    17     9    10    2
    18     9    11    1
    19    15    16   ar
    20    16    17   ar
    21    17    12   ar
    22    11     1    2
    23     8     3    1
@<TRIPOS>MOLECULE
*****
 21 23 0 0 0
SMALL
GASTEIGER

@<TRIPOS>ATOM
      1 C          -6.2145  -18.4706   21.3893 C.2     1  UNL1        0.3688
      2 N          -5.3844  -18.5412   20.1420 N.2     1  UNL1       -0.0400
      3 C          -3.8878  -18.4960   20.2334 C.2     1  UNL1        0.1818
      4 C          -3.0577  -18.5666   18.9861 C.3     1  UNL1        0.1000
      5 C          -1.5612  -18.5214   19.0776 C.2     1  UNL1       -0.0174
      6 C          -0.8948  -18.4055   20.4164 C.2     1  UNL1       -0.0038
      7 C          -1.7249  -18.3349   21.6638 C.2     1  UNL1        0.0101
      8 C          -3.2214  -18.3801   21.5723 C.2     1  UNL1        0.1209
      9 C          -4.0516  -18.3095   22.8197 C.2     1  UNL1        0.3788
     10 O          -3.3852  -18.1936   24.1585 O.2     1  UNL1       -0.2376
     11 N          -5.5481  -18.3547   22.7282 N.am    1  UNL1        0.0364
     12 C         -10.7040  -18.6063   21.1150 C.ar    1  UNL1        0.1401
     13 C         -10.0400  -17.6838   22.0938 C.ar    1  UNL1        0.0372
     14 C          -8.5435  -17.6385   22.1852 C.ar    1  UNL1        0.0106
     15 C          -7.7111  -18.5158   21.2979 C.ar    1  UNL1        0.0866
     16 C          -8.3751  -19.4383   20.3191 C.ar    1  UNL1        0.0106
     17 C          -9.8716  -19.4835   20.2276 C.ar    1  UNL1        0.0372
     18 O         -12.2006  -18.6515   21.0235 O.3     1  UNL1       -0.4612
     19 C         -13.0281  -17.6435   21.7645 C.3     1  UNL1        0.2820
     20 C         -13.8694  -18.1816   24.5934 C.1     1  UNL1       -0.0105
     21 C         -13.4487  -17.9125   23.1789 C.1     1  UNL1       -0.0307
@<TRIPOS>BOND
     1    20    21    3
     2    21    19    1
     3    19    18    1
     4    18    12    1
     5    12    13   ar
     6    13    14   ar
     7    14    15   ar
     8    15     1    1
     9     1     2    1
    10     2     3    2
    11     3     4    1
    12     4     5    1
    13     5     6    2
    14     6     7    1
    15     7     8    2
    16     8     9    1
    17     9    10    2
    18     9    11    1
    19    15    16   ar
    20    16    17   ar
    21    17    12   ar
    22    11     1    2
    23     8     3    1
@<TRIPOS>MOLECULE
*****
 21 23 0 0 0
SMALL
GASTEIGER

@<TRIPOS>ATOM
      1 C          -6.0228  -18.3630   22.1793 C.2     1  UNL1        0.3688
      2 N          -5.5247  -18.5417   20.7758 N.2     1  UNL1       -0.0400
      3 C          -4.0531  -18.4896   20.4898 C.2     1  UNL1        0.1818
      4 C          -3.5550  -18.6682   19.0863 C.3     1  UNL1        0.1000
      5 C          -2.0835  -18.6161   18.8003 C.2     1  UNL1       -0.0174
      6 C          -1.1100  -18.3854   19.9180 C.2     1  UNL1       -0.0038
      7 C          -1.6081  -18.2067   21.3215 C.2     1  UNL1        0.0101
      8 C          -3.0796  -18.2588   21.6074 C.2     1  UNL1        0.1209
      9 C          -3.5777  -18.0802   23.0110 C.2     1  UNL1        0.3788
     10 O          -2.6043  -17.8494   24.1287 O.2     1  UNL1       -0.2376
     11 N          -5.0493  -18.1323   23.2969 N.am    1  UNL1        0.0364
     12 C         -10.4374  -18.5192   23.0373 C.ar    1  UNL1        0.1401
     13 C          -9.7660  -19.6704   22.3489 C.ar    1  UNL1        0.0372
     14 C          -8.2945  -19.6184   22.0629 C.ar    1  UNL1        0.0106
     15 C          -7.4944  -18.4151   22.4653 C.ar    1  UNL1        0.0866
     16 C          -8.1658  -17.2639   23.1537 C.ar    1  UNL1        0.0106
     17 C          -9.6374  -17.3160   23.4396 C.ar    1  UNL1        0.0372
     18 O         -11.9091  -18.5713   23.3232 O.3     1  UNL1       -0.4612
     19 C         -12.8607  -17.7440   22.5109 C.3     1  UNL1        0.2820
     20 C         -11.8683  -16.2348   20.1156 C.1     1  UNL1       -0.0105
     21 C         -12.3645  -16.9894   21.3133 C.1     1  UNL1       -0.0307
@<TRIPOS>BOND
     1    20    21    3
     2    21    19    1
     3    19    18    1
     4    18    12    1
     5    12    13   ar
     6    13    14   ar
     7    14    15   ar
     8    15     1    1
     9     1     2    1
    10     2     3    2
    11     3     4    1
    12     4     5    1
    13     5     6    2
    14     6     7    1
    15     7     8    2
    16     8     9    1
    17     9    10    2
    18     9    11    1
    19    15    16   ar
    20    16    17   ar
    21    17    12   ar
    22    11     1    2
    23     8     3    1
@<TRIPOS>MOLECULE
*****
 21 23 0 0 0
SMALL
GASTEIGER

@<TRIPOS>ATOM
      1 C         -14.7356   -7.7213   18.7849 C.2     1  UNL1        0.3688
      2 N         -15.8812   -6.8131   19.1205 N.2     1  UNL1       -0.0400
      3 C         -17.2412   -7.3878   19.3855 C.2     1  UNL1        0.1818
      4 C         -18.3868   -6.4796   19.7210 C.3     1  UNL1        0.1000
      5 C         -19.7468   -7.0543   19.9860 C.2     1  UNL1       -0.0174
      6 C         -19.9611   -8.5372   19.9154 C.2     1  UNL1       -0.0038
      7 C         -18.8155   -9.4455   19.5798 C.2     1  UNL1        0.0101
      8 C         -17.4556   -8.8707   19.3148 C.2     1  UNL1        0.1209
      9 C         -16.3098   -9.7790   18.9792 C.2     1  UNL1        0.3788
     10 O         -16.5242  -11.2619   18.9086 O.2     1  UNL1       -0.2376
     11 N         -14.9499   -9.2043   18.7142 N.am    1  UNL1        0.0364
     12 C         -10.6557   -5.9974   17.9898 C.ar    1  UNL1        0.1401
     13 C         -11.4937   -5.4555   19.1097 C.ar    1  UNL1        0.0372
     14 C         -12.8536   -6.0301   19.3747 C.ar    1  UNL1        0.0106
     15 C         -13.3756   -7.1466   18.5199 C.ar    1  UNL1        0.0866
     16 C         -12.5376   -7.6885   17.4000 C.ar    1  UNL1        0.0106
     17 C         -11.1777   -7.1139   17.1350 C.ar    1  UNL1        0.0372
     18 O          -9.2957   -5.4227   17.7249 O.3     1  UNL1       -0.4612
     19 C          -9.1063   -4.4204   16.6251 C.3     1  UNL1        0.2820
     20 C         -10.5348   -1.7846   16.7356 C.1     1  UNL1       -0.0105
     21 C          -9.8205   -3.1025   16.6803 C.1     1  UNL1       -0.0307
@<TRIPOS>BOND
     1    20    21    3
     2    21    19    1
     3    19    18    1
     4    18    12    1
     5    12    13   ar
     6    13    14   ar
     7    14    15   ar
     8    15     1    1
     9     1     2    1
    10     2     3    2
    11     3     4    1
    12     4     5    1
    13     5     6    2
    14     6     7    1
    15     7     8    2
    16     8     9    1
    17     9    10    2
    18     9    11    1
    19    15    16   ar
    20    16    17   ar
    21    17    12   ar
    22    11     1    2
    23     8     3    1
@<TRIPOS>MOLECULE
*****
 21 23 0 0 0
SMALL
GASTEIGER

@<TRIPOS>ATOM
      1 C          -5.2625  -16.7926   23.6533 C.2     1  UNL1        0.3688
      2 N          -5.1209  -16.2446   25.0423 N.2     1  UNL1       -0.0400
      3 C          -6.3361  -15.7986   25.8002 C.2     1  UNL1        0.1818
      4 C          -6.1945  -15.2506   27.1893 C.3     1  UNL1        0.1000
      5 C          -7.4097  -14.8046   27.9471 C.2     1  UNL1       -0.0174
      6 C          -8.7666  -14.9066   27.3158 C.2     1  UNL1       -0.0038
      7 C          -8.9082  -15.4546   25.9267 C.2     1  UNL1        0.0101
      8 C          -7.6930  -15.9006   25.1689 C.2     1  UNL1        0.1209
      9 C          -7.8346  -16.4486   23.7797 C.2     1  UNL1        0.3788
     10 O          -9.1914  -16.5506   23.1484 O.2     1  UNL1       -0.2376
     11 N          -6.6194  -16.8946   23.0220 N.am    1  UNL1        0.0364
     12 C          -1.6169  -18.1306   21.3797 C.ar    1  UNL1        0.1401
     13 C          -2.6328  -19.1388   21.8284 C.ar    1  UNL1        0.0372
     14 C          -3.8480  -18.6928   22.5862 C.ar    1  UNL1        0.0106
     15 C          -4.0473  -17.2386   22.8954 C.ar    1  UNL1        0.0866
     16 C          -3.0313  -16.2304   22.4467 C.ar    1  UNL1        0.0106
     17 C          -1.8161  -16.6764   21.6889 C.ar    1  UNL1        0.0372
     18 O          -0.4016  -18.5766   20.6219 O.3     1  UNL1       -0.4612
     19 C          -0.2467  -18.2168   19.1740 C.3     1  UNL1        0.2820
     20 C          -2.5813  -17.1178   17.6435 C.1     1  UNL1       -0.0105
     21 C          -1.4140  -17.6673   18.4087 C.1     1  UNL1       -0.0307
@<TRIPOS>BOND
     1    20    21    3
     2    21    19    1
     3    19    18    1
     4    18    12    1
     5    12    13   ar
     6    13    14   ar
     7    14    15   ar
     8    15     1    1
     9     1     2    1
    10     2     3    2
    11     3     4    1
    12     4     5    1
    13     5     6    2
    14     6     7    1
    15     7     8    2
    16     8     9    1
    17     9    10    2
    18     9    11    1
    19    15    16   ar
    20    16    17   ar
    21    17    12   ar
    22    11     1    2
    23     8     3    1
@<TRIPOS>MOLECULE
*****
 21 23 0 0 0
SMALL
GASTEIGER

@<TRIPOS>ATOM
      1 C         -14.8680   -6.5075   19.0248 C.2     1  UNL1        0.3688
      2 N         -16.2885   -6.2495   19.4319 N.2     1  UNL1       -0.0400
      3 C         -17.2716   -7.3814   19.4825 C.2     1  UNL1        0.1818
      4 C         -18.6920   -7.1235   19.8896 C.3     1  UNL1        0.1000
      5 C         -19.6750   -8.2554   19.9402 C.2     1  UNL1       -0.0174
      6 C         -19.2375   -9.6451   19.5836 C.2     1  UNL1       -0.0038
      7 C         -17.8171   -9.9031   19.1765 C.2     1  UNL1        0.0101
      8 C         -16.8341   -8.7712   19.1260 C.2     1  UNL1        0.1209
      9 C         -15.4136   -9.0291   18.7189 C.2     1  UNL1        0.3788
     10 O         -14.9761  -10.4189   18.3623 O.2     1  UNL1       -0.2376
     11 N         -14.4306   -7.8973   18.6683 N.am    1  UNL1        0.0364
     12 C         -11.9190   -3.1119   18.8732 C.ar    1  UNL1        0.1401
     13 C         -11.8572   -4.2053   17.8481 C.ar    1  UNL1        0.0372
     14 C         -12.8402   -5.3371   17.8987 C.ar    1  UNL1        0.0106
     15 C         -13.8850   -5.3756   18.9743 C.ar    1  UNL1        0.0866
     16 C         -13.9468   -4.2822   19.9993 C.ar    1  UNL1        0.0106
     17 C         -12.9638   -3.1504   19.9488 C.ar    1  UNL1        0.0372
     18 O         -10.9359   -1.9800   18.8226 O.3     1  UNL1       -0.4612
     19 C         -11.1866   -0.8087   17.9198 C.3     1  UNL1        0.2820
     20 C         -13.6505    0.8641   18.2823 C.1     1  UNL1       -0.0105
     21 C         -12.4185    0.0277   18.1011 C.1     1  UNL1       -0.0307
@<TRIPOS>BOND
     1    20    21    3
     2    21    19    1
     3    19    18    1
     4    18    12    1
     5    12    13   ar
     6    13    14   ar
     7    14    15   ar
     8    15     1    1
     9     1     2    1
    10     2     3    2
    11     3     4    1
    12     4     5    1
    13     5     6    2
    14     6     7    1
    15     7     8    2
    16     8     9    1
    17     9    10    2
    18     9    11    1
    19    15    16   ar
    20    16    17   ar
    21    17    12   ar
    22    11     1    2
    23     8     3    1
@<TRIPOS>MOLECULE
*****
 21 23 0 0 0
SMALL
GASTEIGER

@<TRIPOS>ATOM
      1 C         -13.7121   -2.9496   19.1772 C.2     1  UNL1        0.3688
      2 N         -12.2195   -3.0354   19.0567 N.2     1  UNL1       -0.0400
      3 C         -11.5483   -4.3752   18.9883 C.2     1  UNL1        0.1818
      4 C         -10.0556   -4.4610   18.8678 C.3     1  UNL1        0.1000
      5 C          -9.3845   -5.8007   18.7994 C.2     1  UNL1       -0.0174
      6 C         -10.2060   -7.0546   18.8516 C.2     1  UNL1       -0.0038
      7 C         -11.6987   -6.9688   18.9721 C.2     1  UNL1        0.0101
      8 C         -12.3698   -5.6291   19.0404 C.2     1  UNL1        0.1209
      9 C         -13.8626   -5.5433   19.1609 C.2     1  UNL1        0.3788
     10 O         -14.6841   -6.7972   19.2131 O.2     1  UNL1       -0.2376
     11 N         -14.5337   -4.2036   19.2293 N.am    1  UNL1        0.0364
     12 C         -15.7257    1.0695   19.3824 C.ar    1  UNL1        0.1401
     13 C         -14.4406    0.9122   18.6248 C.ar    1  UNL1        0.0372
     14 C         -13.7695   -0.4274   18.5564 C.ar    1  UNL1        0.0106
     15 C         -14.3833   -1.6099   19.2456 C.ar    1  UNL1        0.0866
     16 C         -15.6683   -1.4526   20.0032 C.ar    1  UNL1        0.0106
     17 C         -16.3395   -0.1129   20.0716 C.ar    1  UNL1        0.0372
     18 O         -16.3969    2.4093   19.4507 O.3     1  UNL1       -0.4612
     19 C         -16.2207    3.2754   20.6626 C.3     1  UNL1        0.2820
     20 C         -17.4711    2.4784   23.2706 C.1     1  UNL1       -0.0105
     21 C         -16.8459    2.8769   21.9666 C.1     1  UNL1       -0.0307
@<TRIPOS>BOND
     1    20    21    3
     2    21    19    1
     3    19    18    1
     4    18    12    1
     5    12    13   ar
     6    13    14   ar
     7    14    15   ar
     8    15     1    1
     9     1     2    1
    10     2     3    2
    11     3     4    1
    12     4     5    1
    13     5     6    2
    14     6     7    1
    15     7     8    2
    16     8     9    1
    17     9    10    2
    18     9    11    1
    19    15    16   ar
    20    16    17   ar
    21    17    12   ar
    22    11     1    2
    23     8     3    1
