@<TRIPOS>MOLECULE
*****
 30 33 0 0 0
SMALL
GASTEIGER

@<TRIPOS>ATOM
      1 C           8.0513   -7.2034   24.4721 C.3     1  UNL1        0.0493
      2 C           7.6633   -5.8353   23.9949 C.2     1  UNL1        0.0588
      3 N           7.8353   -5.3057   22.6021 N.2     1  UNL1       -0.2525
      4 C           7.3135   -3.8997   22.5731 C.2     1  UNL1        0.0748
      5 C           6.8189   -3.5604   23.9480 C.2     1  UNL1       -0.0034
      6 C           6.2144   -2.2541   24.3700 C.3     1  UNL1        0.0300
      7 C           7.0351   -4.7567   24.8267 C.3     1  UNL1        0.1281
      8 C           7.2903   -2.9922   21.3788 C.2     1  UNL1        0.0231
      9 C           6.0231   -2.8152   20.5959 C.2     1  UNL1        0.0564
     10 C           4.7081   -3.4760   20.8857 C.2     1  UNL1        0.2496
     11 O           4.4293   -4.4300   22.0092 O.2     1  UNL1       -0.2698
     12 N           3.7208   -3.0154   19.8547 N.am    1  UNL1       -0.2804
     13 C           4.4256   -2.0699   18.9277 C.ar    1  UNL1        0.0508
     14 C           3.9556   -1.3056   17.7257 C.ar    1  UNL1        0.0170
     15 C           4.9085   -0.4176   16.9818 C.ar    1  UNL1        0.0309
     16 C           6.3314   -0.2939   17.4399 C.ar    1  UNL1        0.1402
     17 F           7.2843    0.5942   16.6960 F       1  UNL1       -0.2042
     18 C           6.8015   -1.0581   18.6420 C.ar    1  UNL1        0.0310
     19 C           5.8486   -1.9461   19.3859 C.ar    1  UNL1        0.0201
     20 H           2.7761   -3.2861   19.7965 H       1  UNL1        0.1552
     21 N           6.6846   -4.8567   26.2817 N.am    1  UNL1       -0.2968
     22 C           7.7591   -4.7384   27.3218 C.2     1  UNL1        0.2372
     23 O           9.1839   -4.5200   26.9068 O.2     1  UNL1       -0.2736
     24 H           5.7495   -5.0001   26.5541 H       1  UNL1        0.1500
     25 C           7.4086   -4.8385   28.7768 C.3     1  UNL1        0.1315
     26 C           7.1531   -3.6869   29.7034 C.3     1  UNL1        0.0265
     27 C           6.8387   -4.2444   31.0600 C.3     1  UNL1        0.0190
     28 C           6.8999   -5.7406   30.9718 C.3     1  UNL1        0.0689
     29 N           7.2521   -6.1077   29.5608 N.3     1  UNL1       -0.2913
     30 H           6.5085   -6.6757   29.1550 H       1  UNL1        0.1236
@<TRIPOS>BOND
     1     1     2    1
     2     2     3    2
     3     3     4    1
     4     4     8    1
     5     8     9    2
     6     9    10    1
     7    10    11    2
     8    10    12   am
     9    12    13    1
    10    13    14   ar
    11    14    15   ar
    12    15    16   ar
    13    16    17    1
    14    16    18   ar
    15    18    19   ar
    16     4     5    2
    17     5     6    1
    18     5     7    1
    19     7    21    1
    20    21    22   am
    21    22    23    2
    22    25    22    1
    23    25    26    1
    24    26    27    1
    25    27    28    1
    26    28    29    1
    27     7     2    1
    28    29    25    1
    29    19     9    1
    30    19    13   ar
    31    12    20    1
    32    21    24    1
    33    29    30    1
@<TRIPOS>MOLECULE
*****
 30 33 0 0 0
SMALL
GASTEIGER

@<TRIPOS>ATOM
      1 C           7.9111    1.2551   34.1083 C.3     1  UNL1        0.0493
      2 C           7.3173   -0.0276   33.6063 C.2     1  UNL1        0.0588
      3 N           8.0132   -1.0474   32.7544 N.2     1  UNL1       -0.2525
      4 C           7.0493   -2.1658   32.4897 C.2     1  UNL1        0.0748
      5 C           5.7577   -1.8372   33.1780 C.2     1  UNL1       -0.0034
      6 C           4.5182   -2.6818   33.1764 C.3     1  UNL1        0.0300
      7 C           5.9233   -0.5157   33.8681 C.3     1  UNL1        0.1281
      8 C           7.3281   -3.3967   31.6789 C.2     1  UNL1        0.0231
      9 C           6.9449   -3.4428   30.2294 C.2     1  UNL1        0.0564
     10 C           6.2802   -2.3416   29.4578 C.2     1  UNL1        0.2496
     11 O           5.8820   -1.0009   30.0001 O.2     1  UNL1       -0.2698
     12 N           6.0836   -2.8164   28.0486 N.am    1  UNL1       -0.2804
     13 C           6.6268   -4.2111   27.9493 C.ar    1  UNL1        0.0508
     14 C           6.7054   -5.1786   26.8057 C.ar    1  UNL1        0.0170
     15 C           7.3164   -6.5331   27.0101 C.ar    1  UNL1        0.0309
     16 C           7.8488   -6.9202   28.3579 C.ar    1  UNL1        0.1402
     17 F           8.4598   -8.2749   28.5622 F       1  UNL1       -0.2042
     18 C           7.7701   -5.9528   29.5015 C.ar    1  UNL1        0.0310
     19 C           7.1591   -4.5982   29.2972 C.ar    1  UNL1        0.0201
     20 H           5.6705   -2.3029   27.3172 H       1  UNL1        0.1552
     21 N           4.8785    0.1932   34.6778 N.am    1  UNL1       -0.2968
     22 C           4.9542    0.1805   36.1759 C.2     1  UNL1        0.2372
     23 O           6.0747   -0.5410   36.8642 O.2     1  UNL1       -0.2736
     24 H           4.1430    0.6667   34.2261 H       1  UNL1        0.1500
     25 C           3.9093    0.8894   36.9857 C.3     1  UNL1        0.1315
     26 C           3.1262    2.0937   36.5541 C.3     1  UNL1        0.0265
     27 C           2.1970    2.4670   37.6708 C.3     1  UNL1        0.0190
     28 C           2.4058    1.4934   38.7926 C.3     1  UNL1        0.0689
     29 N           3.4640    0.5184   38.3691 N.3     1  UNL1       -0.2913
     30 H           3.0826   -0.4276   38.3680 H       1  UNL1        0.1236
@<TRIPOS>BOND
     1     1     2    1
     2     2     3    2
     3     3     4    1
     4     4     8    1
     5     8     9    2
     6     9    10    1
     7    10    11    2
     8    10    12   am
     9    12    13    1
    10    13    14   ar
    11    14    15   ar
    12    15    16   ar
    13    16    17    1
    14    16    18   ar
    15    18    19   ar
    16     4     5    2
    17     5     6    1
    18     5     7    1
    19     7    21    1
    20    21    22   am
    21    22    23    2
    22    25    22    1
    23    25    26    1
    24    26    27    1
    25    27    28    1
    26    28    29    1
    27     7     2    1
    28    29    25    1
    29    19     9    1
    30    19    13   ar
    31    12    20    1
    32    21    24    1
    33    29    30    1
@<TRIPOS>MOLECULE
*****
 30 33 0 0 0
SMALL
GASTEIGER

@<TRIPOS>ATOM
      1 C           4.6888   -4.8272   18.9988 C.3     1  UNL1        0.0493
      2 C           4.1061   -3.5580   19.5461 C.2     1  UNL1        0.0588
      3 N           3.4143   -2.4907   18.7509 N.2     1  UNL1       -0.2525
      4 C           2.9935   -1.4064   19.6980 C.2     1  UNL1        0.0748
      5 C           3.4252   -1.8035   21.0785 C.2     1  UNL1       -0.0034
      6 C           3.2075   -1.0101   22.3328 C.3     1  UNL1        0.0300
      7 C           4.1128   -3.1333   20.9846 C.3     1  UNL1        0.1281
      8 C           2.2683   -0.1461   19.3293 C.2     1  UNL1        0.0231
      9 C           3.0412    1.0662   18.9015 C.2     1  UNL1        0.0564
     10 C           4.5339    1.1677   18.7946 C.2     1  UNL1        0.2496
     11 O           5.5159    0.0748   19.0968 O.2     1  UNL1       -0.2698
     12 N           4.8723    2.5541   18.3325 N.am    1  UNL1       -0.2804
     13 C           3.5887    3.3094   18.1538 C.ar    1  UNL1        0.0508
     14 C           3.3041    4.7156   17.7162 C.ar    1  UNL1        0.0170
     15 C           1.8879    5.2023   17.6304 C.ar    1  UNL1        0.0309
     16 C           0.7562    4.2827   17.9820 C.ar    1  UNL1        0.1402
     17 F          -0.6601    4.7694   17.8961 F       1  UNL1       -0.2042
     18 C           1.0407    2.8764   18.4195 C.ar    1  UNL1        0.0310
     19 C           2.4570    2.3898   18.5054 C.ar    1  UNL1        0.0201
     20 H           5.7778    2.9064   18.1743 H       1  UNL1        0.1552
     21 N           4.7035   -3.9032   22.1285 N.am    1  UNL1       -0.2968
     22 C           6.0348   -3.5043   22.6930 C.2     1  UNL1        0.2372
     23 O           6.7754   -2.3355   22.1137 O.2     1  UNL1       -0.2736
     24 H           4.2174   -4.6703   22.5087 H       1  UNL1        0.1500
     25 C           6.6254   -4.2741   23.8368 C.3     1  UNL1        0.1315
     26 C           7.7055   -5.3104   23.7379 C.3     1  UNL1        0.0265
     27 C           7.9873   -5.8196   25.1204 C.3     1  UNL1        0.0190
     28 C           7.0814   -5.0981   26.0737 C.3     1  UNL1        0.0689
     29 N           6.2398   -4.1430   25.2804 N.3     1  UNL1       -0.2913
     30 H           6.4070   -3.1883   25.5981 H       1  UNL1        0.1236
@<TRIPOS>BOND
     1     1     2    1
     2     2     3    2
     3     3     4    1
     4     4     8    1
     5     8     9    2
     6     9    10    1
     7    10    11    2
     8    10    12   am
     9    12    13    1
    10    13    14   ar
    11    14    15   ar
    12    15    16   ar
    13    16    17    1
    14    16    18   ar
    15    18    19   ar
    16     4     5    2
    17     5     6    1
    18     5     7    1
    19     7    21    1
    20    21    22   am
    21    22    23    2
    22    25    22    1
    23    25    26    1
    24    26    27    1
    25    27    28    1
    26    28    29    1
    27     7     2    1
    28    29    25    1
    29    19     9    1
    30    19    13   ar
    31    12    20    1
    32    21    24    1
    33    29    30    1
@<TRIPOS>MOLECULE
*****
 30 33 0 0 0
SMALL
GASTEIGER

@<TRIPOS>ATOM
      1 C          -0.5172    0.2575   28.4909 C.3     1  UNL1        0.0493
      2 C           0.7370    0.6438   29.2172 C.2     1  UNL1        0.0588
      3 N           0.8351    1.0296   30.6634 N.2     1  UNL1       -0.2525
      4 C           2.2722    1.3364   30.9648 C.2     1  UNL1        0.0748
      5 C           3.0622    1.1402   29.7049 C.2     1  UNL1       -0.0034
      6 C           4.5412    1.3374   29.5520 C.3     1  UNL1        0.0300
      7 C           2.1134    0.7121   28.6248 C.3     1  UNL1        0.1281
      8 C           2.8226    1.7642   32.2931 C.2     1  UNL1        0.0231
      9 C           3.5128    0.7667   33.1754 C.2     1  UNL1        0.0564
     10 C           3.7267   -0.6852   32.8655 C.2     1  UNL1        0.2496
     11 O           3.2880   -1.3946   31.6187 O.2     1  UNL1       -0.2698
     12 N           4.4564   -1.3032   34.0211 N.am    1  UNL1       -0.2804
     13 C           4.6934   -0.2333   35.0454 C.ar    1  UNL1        0.0508
     14 C           5.3649   -0.2586   36.3864 C.ar    1  UNL1        0.0170
     15 C           5.4532    0.9953   37.2047 C.ar    1  UNL1        0.0309
     16 C           4.8700    2.2747   36.6820 C.ar    1  UNL1        0.1402
     17 F           4.9584    3.5287   37.5004 F       1  UNL1       -0.2042
     18 C           4.1985    2.3000   35.3410 C.ar    1  UNL1        0.0310
     19 C           4.1102    1.0460   34.5227 C.ar    1  UNL1        0.0201
     20 H           4.7314   -2.2457   34.0945 H       1  UNL1        0.1552
     21 N           2.4771    0.4061   27.2021 N.am    1  UNL1       -0.2968
     22 C           3.2574   -0.8331   26.8775 C.2     1  UNL1        0.2372
     23 O           3.6740   -1.7664   27.9754 O.2     1  UNL1       -0.2736
     24 H           2.2037    1.0187   26.4815 H       1  UNL1        0.1500
     25 C           3.6211   -1.1391   25.4548 C.3     1  UNL1        0.1315
     26 C           3.0717   -0.4558   24.2377 C.3     1  UNL1        0.0265
     27 C           3.7092   -1.0765   23.0301 C.3     1  UNL1        0.0190
     28 C           4.6526   -2.1434   23.5008 C.3     1  UNL1        0.0689
     29 N           4.5982   -2.1821   24.9993 N.3     1  UNL1       -0.2913
     30 H           5.5215   -1.9832   25.3844 H       1  UNL1        0.1236
@<TRIPOS>BOND
     1     1     2    1
     2     2     3    2
     3     3     4    1
     4     4     8    1
     5     8     9    2
     6     9    10    1
     7    10    11    2
     8    10    12   am
     9    12    13    1
    10    13    14   ar
    11    14    15   ar
    12    15    16   ar
    13    16    17    1
    14    16    18   ar
    15    18    19   ar
    16     4     5    2
    17     5     6    1
    18     5     7    1
    19     7    21    1
    20    21    22   am
    21    22    23    2
    22    25    22    1
    23    25    26    1
    24    26    27    1
    25    27    28    1
    26    28    29    1
    27     7     2    1
    28    29    25    1
    29    19     9    1
    30    19    13   ar
    31    12    20    1
    32    21    24    1
    33    29    30    1
@<TRIPOS>MOLECULE
*****
 30 33 0 0 0
SMALL
GASTEIGER

@<TRIPOS>ATOM
      1 C           8.3628   -4.6778   20.8575 C.3     1  UNL1        0.0493
      2 C           7.6517   -4.3532   22.1377 C.2     1  UNL1        0.0588
      3 N           7.8840   -5.0098   23.4662 N.2     1  UNL1       -0.2525
      4 C           6.9593   -4.3774   24.4637 C.2     1  UNL1        0.0748
      5 C           6.1555   -3.3301   23.7517 C.2     1  UNL1       -0.0034
      6 C           5.1078   -2.4519   24.3689 C.3     1  UNL1        0.0300
      7 C           6.5835   -3.3152   22.3141 C.3     1  UNL1        0.1281
      8 C           6.8565   -4.7305   25.9180 C.2     1  UNL1        0.0231
      9 C           7.6790   -3.9890   26.9298 C.2     1  UNL1        0.0564
     10 C           8.6426   -2.8770   26.6385 C.2     1  UNL1        0.2496
     11 O           8.9530   -2.3112   25.2844 O.2     1  UNL1       -0.2698
     12 N           9.2414   -2.4300   27.9392 N.am    1  UNL1       -0.2804
     13 C           8.6478   -3.2658   29.0343 C.ar    1  UNL1        0.0508
     14 C           8.8618   -3.2740   30.5189 C.ar    1  UNL1        0.0170
     15 C           8.1102   -4.2456   31.3796 C.ar    1  UNL1        0.0309
     16 C           7.1446   -5.2091   30.7557 C.ar    1  UNL1        0.1402
     17 F           6.3929   -6.1808   31.6165 F       1  UNL1       -0.2042
     18 C           6.9305   -5.2009   29.2711 C.ar    1  UNL1        0.0310
     19 C           7.6821   -4.2293   28.4104 C.ar    1  UNL1        0.0201
     20 H           9.9071   -1.7139   28.0540 H       1  UNL1        0.1552
     21 N           6.0387   -2.4194   21.2413 N.am    1  UNL1       -0.2968
     22 C           5.0979   -2.9698   20.2108 C.2     1  UNL1        0.2372
     23 O           4.7017   -4.4160   20.2531 O.2     1  UNL1       -0.2736
     24 H           6.2987   -1.4703   21.2135 H       1  UNL1        0.1500
     25 C           4.5532   -2.0741   19.1380 C.3     1  UNL1        0.1315
     26 C           3.8525   -0.7654   19.3537 C.3     1  UNL1        0.0265
     27 C           3.4798   -0.2122   18.0102 C.3     1  UNL1        0.0190
     28 C           3.9501   -1.1790   16.9641 C.3     1  UNL1        0.0689
     29 N           4.6134   -2.3297   17.6612 N.3     1  UNL1       -0.2913
     30 H           5.5858   -2.4017   17.3618 H       1  UNL1        0.1236
@<TRIPOS>BOND
     1     1     2    1
     2     2     3    2
     3     3     4    1
     4     4     8    1
     5     8     9    2
     6     9    10    1
     7    10    11    2
     8    10    12   am
     9    12    13    1
    10    13    14   ar
    11    14    15   ar
    12    15    16   ar
    13    16    17    1
    14    16    18   ar
    15    18    19   ar
    16     4     5    2
    17     5     6    1
    18     5     7    1
    19     7    21    1
    20    21    22   am
    21    22    23    2
    22    25    22    1
    23    25    26    1
    24    26    27    1
    25    27    28    1
    26    28    29    1
    27     7     2    1
    28    29    25    1
    29    19     9    1
    30    19    13   ar
    31    12    20    1
    32    21    24    1
    33    29    30    1
@<TRIPOS>MOLECULE
*****
 30 33 0 0 0
SMALL
GASTEIGER

@<TRIPOS>ATOM
      1 C          -7.8371  -15.8781   27.2319 C.3     1  UNL1        0.0493
      2 C          -7.2901  -16.0141   25.8418 C.2     1  UNL1        0.0588
      3 N          -5.8460  -15.9137   25.4490 N.2     1  UNL1       -0.2525
      4 C          -5.7545  -16.1119   23.9649 C.2     1  UNL1        0.0748
      5 C          -7.1421  -16.3347   23.4407 C.2     1  UNL1       -0.0034
      6 C          -7.5152  -16.5757   22.0079 C.3     1  UNL1        0.0300
      7 C          -8.0912  -16.2742   24.6007 C.3     1  UNL1        0.1281
      8 C          -4.4963  -16.0910   23.1485 C.2     1  UNL1        0.0231
      9 C          -4.0321  -17.3368   22.4539 C.2     1  UNL1        0.0564
     10 C          -4.7178  -18.6705   22.4838 C.2     1  UNL1        0.2496
     11 O          -5.9881  -18.9927   23.2136 O.2     1  UNL1       -0.2698
     12 N          -3.9102  -19.6256   21.6558 N.am    1  UNL1       -0.2804
     13 C          -2.7254  -18.8822   21.1142 C.ar    1  UNL1        0.0508
     14 C          -1.5876  -19.3105   20.2355 C.ar    1  UNL1        0.0170
     15 C          -0.5252  -18.3243   19.8501 C.ar    1  UNL1        0.0309
     16 C          -0.6005  -16.9097   20.3434 C.ar    1  UNL1        0.1402
     17 F           0.4619  -15.9234   19.9579 F       1  UNL1       -0.2042
     18 C          -1.7383  -16.4813   21.2220 C.ar    1  UNL1        0.0310
     19 C          -2.8007  -17.4676   21.6074 C.ar    1  UNL1        0.0201
     20 H          -4.1208  -20.5739   21.4960 H       1  UNL1        0.1552
     21 N          -9.5799  -16.4441   24.5316 N.am    1  UNL1       -0.2968
     22 C         -10.1680  -17.7920   24.2361 C.2     1  UNL1        0.2372
     23 O          -9.2675  -18.9700   24.0096 O.2     1  UNL1       -0.2736
     24 H         -10.1710  -15.6710   24.6803 H       1  UNL1        0.1500
     25 C         -11.6568  -17.9619   24.1670 C.3     1  UNL1        0.1315
     26 C         -12.5483  -17.4836   23.0596 C.3     1  UNL1        0.0265
     27 C         -13.9579  -17.8660   23.4014 C.3     1  UNL1        0.0190
     28 C         -13.9375  -18.5806   24.7201 C.3     1  UNL1        0.0689
     29 N         -12.5154  -18.6398   25.1932 N.3     1  UNL1       -0.2913
     30 H         -12.2260  -19.6122   25.2989 H       1  UNL1        0.1236
@<TRIPOS>BOND
     1     1     2    1
     2     2     3    2
     3     3     4    1
     4     4     8    1
     5     8     9    2
     6     9    10    1
     7    10    11    2
     8    10    12   am
     9    12    13    1
    10    13    14   ar
    11    14    15   ar
    12    15    16   ar
    13    16    17    1
    14    16    18   ar
    15    18    19   ar
    16     4     5    2
    17     5     6    1
    18     5     7    1
    19     7    21    1
    20    21    22   am
    21    22    23    2
    22    25    22    1
    23    25    26    1
    24    26    27    1
    25    27    28    1
    26    28    29    1
    27     7     2    1
    28    29    25    1
    29    19     9    1
    30    19    13   ar
    31    12    20    1
    32    21    24    1
    33    29    30    1
@<TRIPOS>MOLECULE
*****
 30 33 0 0 0
SMALL
GASTEIGER

@<TRIPOS>ATOM
      1 C           1.6456    5.2597   29.4575 C.3     1  UNL1        0.0493
      2 C           0.7059    4.3791   28.6885 C.2     1  UNL1        0.0588
      3 N          -0.4385    4.8425   27.8367 N.2     1  UNL1       -0.2525
      4 C          -1.1061    3.6303   27.2581 C.2     1  UNL1        0.0748
      5 C          -0.3743    2.4178   27.7523 C.2     1  UNL1       -0.0034
      6 C          -0.7045    0.9927   27.4206 C.3     1  UNL1        0.0300
      7 C           0.7456    2.8806   28.6364 C.3     1  UNL1        0.1281
      8 C          -2.2966    3.6306   26.3454 C.2     1  UNL1        0.0231
      9 C          -2.1018    3.5876   24.8587 C.2     1  UNL1        0.0564
     10 C          -0.7844    3.5420   24.1430 C.2     1  UNL1        0.2496
     11 O           0.5697    3.5314   24.7883 O.2     1  UNL1       -0.2698
     12 N          -1.0587    3.5089   22.6687 N.am    1  UNL1       -0.2804
     13 C          -2.5457    3.5341   22.4732 C.ar    1  UNL1        0.0508
     14 C          -3.3960    3.5190   21.2376 C.ar    1  UNL1        0.0170
     15 C          -4.8910    3.5525   21.3555 C.ar    1  UNL1        0.0309
     16 C          -5.5356    3.6011   22.7090 C.ar    1  UNL1        0.1402
     17 F          -7.0307    3.6346   22.8269 F       1  UNL1       -0.2042
     18 C          -4.6854    3.6162   23.9446 C.ar    1  UNL1        0.0310
     19 C          -3.1904    3.5827   23.8267 C.ar    1  UNL1        0.0201
     20 H          -0.3817    3.4764   21.9547 H       1  UNL1        0.1552
     21 N           1.7319    1.9995   29.3441 N.am    1  UNL1       -0.2968
     22 C           1.4259    1.4849   30.7194 C.2     1  UNL1        0.2372
     23 O           0.1337    1.8512   31.3871 O.2     1  UNL1       -0.2736
     24 H           2.5801    1.7591   28.9059 H       1  UNL1        0.1500
     25 C           2.4123    0.6038   31.4271 C.3     1  UNL1        0.1315
     26 C           3.1527   -0.5529   30.8239 C.3     1  UNL1        0.0265
     27 C           4.0294   -1.1468   31.8862 C.3     1  UNL1        0.0190
     28 C           3.8309   -0.3571   33.1460 C.3     1  UNL1        0.0689
     29 N           2.8315    0.7248   32.8622 N.3     1  UNL1       -0.2913
     30 H           3.2555    1.6385   33.0231 H       1  UNL1        0.1236
@<TRIPOS>BOND
     1     1     2    1
     2     2     3    2
     3     3     4    1
     4     4     8    1
     5     8     9    2
     6     9    10    1
     7    10    11    2
     8    10    12   am
     9    12    13    1
    10    13    14   ar
    11    14    15   ar
    12    15    16   ar
    13    16    17    1
    14    16    18   ar
    15    18    19   ar
    16     4     5    2
    17     5     6    1
    18     5     7    1
    19     7    21    1
    20    21    22   am
    21    22    23    2
    22    25    22    1
    23    25    26    1
    24    26    27    1
    25    27    28    1
    26    28    29    1
    27     7     2    1
    28    29    25    1
    29    19     9    1
    30    19    13   ar
    31    12    20    1
    32    21    24    1
    33    29    30    1
@<TRIPOS>MOLECULE
*****
 30 33 0 0 0
SMALL
GASTEIGER

@<TRIPOS>ATOM
      1 C           4.6611   -4.6420   18.6070 C.3     1  UNL1        0.0493
      2 C           4.6318   -3.1902   18.9829 C.2     1  UNL1        0.0588
      3 N           3.8656   -2.1117   18.2761 N.2     1  UNL1       -0.2525
      4 C           4.1239   -0.8169   18.9880 C.2     1  UNL1        0.0748
      5 C           5.0498   -1.0953   20.1349 C.2     1  UNL1       -0.0034
      6 C           5.5703   -0.0843   21.1131 C.3     1  UNL1        0.0300
      7 C           5.3637   -2.5621   20.1317 C.3     1  UNL1        0.1281
      8 C           3.5560    0.5213   18.6180 C.2     1  UNL1        0.0231
      9 C           2.1929    0.9175   19.1027 C.2     1  UNL1        0.0564
     10 C           1.2855    0.0854   19.9595 C.2     1  UNL1        0.2496
     11 O           1.5818   -1.2890   20.4822 O.2     1  UNL1       -0.2698
     12 N           0.0297    0.8691   20.2019 N.am    1  UNL1       -0.2804
     13 C           0.1609    2.1855   19.4949 C.ar    1  UNL1        0.0508
     14 C          -0.7642    3.3608   19.3820 C.ar    1  UNL1        0.0170
     15 C          -0.3524    4.5660   18.5896 C.ar    1  UNL1        0.0309
     16 C           0.9846    4.5959   17.9102 C.ar    1  UNL1        0.1402
     17 F           1.3964    5.8012   17.1178 F       1  UNL1       -0.2042
     18 C           1.9097    3.4206   18.0231 C.ar    1  UNL1        0.0310
     19 C           1.4979    2.2154   18.8155 C.ar    1  UNL1        0.0201
     20 H          -0.7448    0.5717   20.7320 H       1  UNL1        0.1552
     21 N           6.2533   -3.2754   21.1063 N.am    1  UNL1       -0.2968
     22 C           5.7143   -3.7035   22.4391 C.2     1  UNL1        0.2372
     23 O           4.2860   -3.4183   22.7974 O.2     1  UNL1       -0.2736
     24 H           7.1908   -3.4626   20.8712 H       1  UNL1        0.1500
     25 C           6.6039   -4.4169   23.4137 C.3     1  UNL1        0.1315
     26 C           6.5922   -4.2491   24.9042 C.3     1  UNL1        0.0265
     27 C           7.6425   -5.1517   25.4806 C.3     1  UNL1        0.0190
     28 C           8.3032   -5.8775   24.3462 C.3     1  UNL1        0.0689
     29 N           7.6613   -5.4233   23.0689 N.3     1  UNL1       -0.2913
     30 H           7.2388   -6.2196   22.5916 H       1  UNL1        0.1236
@<TRIPOS>BOND
     1     1     2    1
     2     2     3    2
     3     3     4    1
     4     4     8    1
     5     8     9    2
     6     9    10    1
     7    10    11    2
     8    10    12   am
     9    12    13    1
    10    13    14   ar
    11    14    15   ar
    12    15    16   ar
    13    16    17    1
    14    16    18   ar
    15    18    19   ar
    16     4     5    2
    17     5     6    1
    18     5     7    1
    19     7    21    1
    20    21    22   am
    21    22    23    2
    22    25    22    1
    23    25    26    1
    24    26    27    1
    25    27    28    1
    26    28    29    1
    27     7     2    1
    28    29    25    1
    29    19     9    1
    30    19    13   ar
    31    12    20    1
    32    21    24    1
    33    29    30    1
@<TRIPOS>MOLECULE
*****
 30 33 0 0 0
SMALL
GASTEIGER

@<TRIPOS>ATOM
      1 C         -11.6836   -6.3984   18.9837 C.3     1  UNL1        0.0493
      2 C         -12.7715   -5.3847   19.1806 C.2     1  UNL1        0.0588
      3 N         -12.5955   -3.8952   19.2002 N.2     1  UNL1       -0.2525
      4 C         -13.9416   -3.2724   19.4243 C.2     1  UNL1        0.0748
      5 C         -14.9494   -4.3770   19.5432 C.2     1  UNL1       -0.0034
      6 C         -16.4219   -4.2061   19.7724 C.3     1  UNL1        0.0300
      7 C         -14.2262   -5.6825   19.3926 C.3     1  UNL1        0.1281
      8 C         -14.2293   -1.8029   19.5138 C.2     1  UNL1        0.0231
      9 C         -14.6190   -1.0386   18.2833 C.2     1  UNL1        0.0564
     10 C         -14.7613   -1.6052   16.9017 C.2     1  UNL1        0.2496
     11 O         -14.5389   -3.0354   16.5080 O.2     1  UNL1       -0.2698
     12 N         -15.1651   -0.4903   15.9830 N.am    1  UNL1       -0.2804
     13 C         -15.2723    0.7652   16.7967 C.ar    1  UNL1        0.0508
     14 C         -15.6336    2.1732   16.4268 C.ar    1  UNL1        0.0170
     15 C         -15.6575    3.2423   17.4786 C.ar    1  UNL1        0.0309
     16 C         -15.3200    2.9035   18.9003 C.ar    1  UNL1        0.1402
     17 F         -15.3439    3.9727   19.9521 F       1  UNL1       -0.2042
     18 C         -14.9587    1.4955   19.2702 C.ar    1  UNL1        0.0310
     19 C         -14.9348    0.4263   18.2184 C.ar    1  UNL1        0.0201
     20 H         -15.3306   -0.5689   15.0157 H       1  UNL1        0.1552
     21 N         -14.8485   -7.0463   19.4447 N.am    1  UNL1       -0.2968
     22 C         -15.5974   -7.5748   18.2573 C.2     1  UNL1        0.2372
     23 O         -15.7240   -6.7396   17.0178 O.2     1  UNL1       -0.2736
     24 H         -14.7655   -7.5945   20.2582 H       1  UNL1        0.1500
     25 C         -16.2198   -8.9386   18.3095 C.3     1  UNL1        0.1315
     26 C         -17.6694   -9.2553   18.0899 C.3     1  UNL1        0.0265
     27 C         -17.8473  -10.7376   18.2351 C.3     1  UNL1        0.0190
     28 C         -16.5076  -11.3370   18.5445 C.3     1  UNL1        0.0689
     29 N         -15.5017  -10.2252   18.5905 N.3     1  UNL1       -0.2913
     30 H         -14.7814  -10.3808   17.8853 H       1  UNL1        0.1236
@<TRIPOS>BOND
     1     1     2    1
     2     2     3    2
     3     3     4    1
     4     4     8    1
     5     8     9    2
     6     9    10    1
     7    10    11    2
     8    10    12   am
     9    12    13    1
    10    13    14   ar
    11    14    15   ar
    12    15    16   ar
    13    16    17    1
    14    16    18   ar
    15    18    19   ar
    16     4     5    2
    17     5     6    1
    18     5     7    1
    19     7    21    1
    20    21    22   am
    21    22    23    2
    22    25    22    1
    23    25    26    1
    24    26    27    1
    25    27    28    1
    26    28    29    1
    27     7     2    1
    28    29    25    1
    29    19     9    1
    30    19    13   ar
    31    12    20    1
    32    21    24    1
    33    29    30    1
