@<TRIPOS>MOLECULE
*****
 32 36 0 0 0
SMALL
GASTEIGER

@<TRIPOS>ATOM
      1 C           6.2914   -2.9702   25.3577 C.3     1  UNL1        0.0719
      2 C           5.0297   -2.4104   24.7706 C.3     1  UNL1        0.0197
      3 C           4.6800   -2.6904   23.3390 C.3     1  UNL1        0.0041
      4 C           5.5921   -3.5301   22.4947 C.3     1  UNL1        0.0271
      5 C           6.8538   -4.0899   23.0817 C.3     1  UNL1        0.0041
      6 C           7.2034   -3.8099   24.5133 C.3     1  UNL1        0.0197
      7 O           6.0925   -5.1539   27.4052 O.2     1  UNL1       -0.2701
      8 C           6.5416   -3.7820   27.8130 C.2     1  UNL1        0.2458
      9 N           6.6411   -2.6902   26.7893 N.am    1  UNL1       -0.3025
     10 H           6.9359   -1.7899   27.0569 H       1  UNL1        0.1497
     11 C           6.8914   -3.5020   29.2445 C.ar    1  UNL1        0.0534
     12 C           7.3627   -2.1364   29.6480 C.ar    1  UNL1        0.0045
     13 C           7.7124   -1.8562   31.0796 C.ar    1  UNL1        0.0001
     14 C           7.5909   -2.9418   32.1075 C.ar    1  UNL1        0.0000
     15 C           7.1196   -4.3076   31.7040 C.ar    1  UNL1        0.0001
     16 C           6.7698   -4.5876   30.2725 C.ar    1  UNL1        0.0045
     17 C           5.2424   -3.8101   21.0631 C.3     1  UNL1        0.1127
     18 O           6.1870   -4.5924   20.1995 O.3     1  UNL1       -0.3844
     19 H           5.8120   -4.6828   19.3095 H       1  UNL1        0.2103
     20 C           3.9481   -3.3078   20.4951 C.3     1  UNL1        0.0564
     21 C           3.9312   -2.0704   19.6473 C.3     1  UNL1        0.1119
     22 C           2.8291   -1.0544   19.5924 C.ar    1  UNL1       -0.0002
     23 C           1.5122   -0.9625   20.3047 C.ar    1  UNL1       -0.0024
     24 C           0.5963    0.1958   20.0414 C.ar    1  UNL1       -0.0003
     25 C           0.9974    1.2623   19.0658 C.ar    1  UNL1        0.0000
     26 C           2.3142    1.1705   18.3535 C.ar    1  UNL1        0.0012
     27 C           3.2301    0.0121   18.6168 C.ar    1  UNL1        0.0152
     28 C           4.5800   -0.3448   18.0688 C.ar    1  UNL1        0.0804
     29 C           5.6622    0.0938   17.1271 C.ar    1  UNL1        0.1177
     30 N           6.7643   -0.9224   17.1821 N.ar    1  UNL1       -0.2223
     31 C           6.3633   -1.9889   18.1577 C.ar    1  UNL1        0.1788
     32 N           5.0133   -1.6319   18.7057 N.ar    1  UNL1       -0.3069
@<TRIPOS>BOND
     1     7     8    2
     2     8     9   am
     3     1     9    1
     4     1     2    1
     5     2     3    1
     6     3     4    1
     7     4    17    1
     8    17    18    1
     9    17    20    1
    10    20    21    1
    11    21    22    1
    12    22    23   ar
    13    23    24   ar
    14    24    25   ar
    15    25    26   ar
    16    26    27   ar
    17    27    28    1
    18    28    29   ar
    19    29    30   ar
    20    30    31   ar
    21    31    32   ar
    22     4     5    1
    23     5     6    1
    24     8    11    1
    25    11    12   ar
    26    12    13   ar
    27    13    14   ar
    28    14    15   ar
    29    15    16   ar
    30     6     1    1
    31    16    11   ar
    32    32    21    1
    33    27    22   ar
    34    32    28   ar
    35     9    10    1
    36    18    19    1
@<TRIPOS>MOLECULE
*****
 32 36 0 0 0
SMALL
GASTEIGER

@<TRIPOS>ATOM
      1 C           0.5391    2.0590   23.4521 C.3     1  UNL1        0.0719
      2 C           0.0810    3.4549   23.1496 C.3     1  UNL1        0.0197
      3 C          -0.8306    4.1683   24.1037 C.3     1  UNL1        0.0041
      4 C          -1.2840    3.4858   25.3601 C.3     1  UNL1        0.0271
      5 C          -0.8258    2.0899   25.6625 C.3     1  UNL1        0.0041
      6 C           0.0857    1.3765   24.7085 C.3     1  UNL1        0.0197
      7 O          -0.5060    1.1085   20.8055 O.2     1  UNL1       -0.2701
      8 C           0.9281    0.8703   21.1748 C.2     1  UNL1        0.2458
      9 N           1.4507    1.3455   22.4981 N.am    1  UNL1       -0.3025
     10 H           2.3920    1.1892   22.7405 H       1  UNL1        0.1497
     11 C           1.8398    0.1568   20.2209 C.ar    1  UNL1        0.0534
     12 C           2.1267    0.7490   18.8731 C.ar    1  UNL1        0.0045
     13 C           3.0384    0.0356   17.9191 C.ar    1  UNL1        0.0001
     14 C           3.6629   -1.2700   18.3131 C.ar    1  UNL1        0.0000
     15 C           3.3760   -1.8623   19.6611 C.ar    1  UNL1        0.0001
     16 C           2.4643   -1.1488   20.6150 C.ar    1  UNL1        0.0045
     17 C          -2.1955    4.1992   26.3141 C.3     1  UNL1        0.1127
     18 O          -1.7127    5.4179   27.0433 O.3     1  UNL1       -0.3844
     19 H          -2.4204    5.7538   27.6154 H       1  UNL1        0.2103
     20 C          -3.5899    3.6939   26.5389 C.3     1  UNL1        0.0564
     21 C          -4.7318    4.2697   25.7550 C.3     1  UNL1        0.1119
     22 C          -5.0274    4.0097   24.3076 C.ar    1  UNL1       -0.0002
     23 C          -4.3359    3.1664   23.2777 C.ar    1  UNL1       -0.0024
     24 C          -4.8738    3.0994   21.8791 C.ar    1  UNL1       -0.0003
     25 C          -6.1033    3.8756   21.5104 C.ar    1  UNL1        0.0000
     26 C          -6.7948    4.7188   22.5403 C.ar    1  UNL1        0.0012
     27 C          -6.2568    4.7859   23.9389 C.ar    1  UNL1        0.0152
     28 C          -6.7211    5.5256   25.1584 C.ar    1  UNL1        0.0804
     29 C          -7.7679    6.4625   25.6843 C.ar    1  UNL1        0.1177
     30 N          -7.4723    6.7224   27.1317 N.ar    1  UNL1       -0.2223
     31 C          -6.2428    5.9462   27.5004 C.ar    1  UNL1        0.1788
     32 N          -5.7786    5.2065   26.2809 N.ar    1  UNL1       -0.3069
@<TRIPOS>BOND
     1     7     8    2
     2     8     9   am
     3     1     9    1
     4     1     2    1
     5     2     3    1
     6     3     4    1
     7     4    17    1
     8    17    18    1
     9    17    20    1
    10    20    21    1
    11    21    22    1
    12    22    23   ar
    13    23    24   ar
    14    24    25   ar
    15    25    26   ar
    16    26    27   ar
    17    27    28    1
    18    28    29   ar
    19    29    30   ar
    20    30    31   ar
    21    31    32   ar
    22     4     5    1
    23     5     6    1
    24     8    11    1
    25    11    12   ar
    26    12    13   ar
    27    13    14   ar
    28    14    15   ar
    29    15    16   ar
    30     6     1    1
    31    16    11   ar
    32    32    21    1
    33    27    22   ar
    34    32    28   ar
    35     9    10    1
    36    18    19    1
@<TRIPOS>MOLECULE
*****
 32 36 0 0 0
SMALL
GASTEIGER

@<TRIPOS>ATOM
      1 C           6.5994   -3.9019   22.6089 C.3     1  UNL1        0.0719
      2 C           7.7299   -3.3770   21.7746 C.3     1  UNL1        0.0197
      3 C           7.4621   -2.8467   20.3972 C.3     1  UNL1        0.0041
      4 C           6.0639   -2.8412   19.8544 C.3     1  UNL1        0.0271
      5 C           4.9333   -3.3662   20.6887 C.3     1  UNL1        0.0041
      6 C           5.2011   -3.8965   22.0661 C.3     1  UNL1        0.0197
      7 O           8.0655   -6.4958   22.9589 O.2     1  UNL1       -0.2701
      8 C           7.6001   -5.7292   24.1613 C.2     1  UNL1        0.2458
      9 N           6.8670   -4.4323   23.9863 N.am    1  UNL1       -0.3025
     10 H           6.5616   -3.9292   24.7755 H       1  UNL1        0.1497
     11 C           7.8677   -6.2596   25.5387 C.ar    1  UNL1        0.0534
     12 C           7.9010   -7.7398   25.7790 C.ar    1  UNL1        0.0045
     13 C           8.1687   -8.2702   27.1563 C.ar    1  UNL1        0.0001
     14 C           8.4030   -7.3203   28.2933 C.ar    1  UNL1        0.0000
     15 C           8.3697   -5.8400   28.0530 C.ar    1  UNL1        0.0001
     16 C           8.1021   -5.3097   26.6757 C.ar    1  UNL1        0.0045
     17 C           5.7961   -2.3109   18.4770 C.3     1  UNL1        0.1127
     18 O           6.9098   -2.2277   17.4757 O.3     1  UNL1       -0.3844
     19 H           6.5693   -1.8656   16.6427 H       1  UNL1        0.2103
     20 C           4.4145   -1.8637   18.1010 C.3     1  UNL1        0.0564
     21 C           3.9881   -0.4487   18.3583 C.3     1  UNL1        0.1119
     22 C           2.7633   -0.0199   19.1106 C.ar    1  UNL1       -0.0002
     23 C           1.6741   -0.8012   19.7839 C.ar    1  UNL1       -0.0024
     24 C           0.5516   -0.0829   20.4722 C.ar    1  UNL1       -0.0003
     25 C           0.5182    1.4167   20.4873 C.ar    1  UNL1        0.0000
     26 C           1.6074    2.1979   19.8140 C.ar    1  UNL1        0.0012
     27 C           2.7299    1.4796   19.1257 C.ar    1  UNL1        0.0152
     28 C           3.9341    1.9775   18.3827 C.ar    1  UNL1        0.0804
     29 C           4.6577    3.2121   17.9328 C.ar    1  UNL1        0.1177
     30 N           5.8825    2.7833   17.1805 N.ar    1  UNL1       -0.2223
     31 C           5.9159    1.2837   17.1654 C.ar    1  UNL1        0.1788
     32 N           4.7117    0.7858   17.9084 N.ar    1  UNL1       -0.3069
@<TRIPOS>BOND
     1     7     8    2
     2     8     9   am
     3     1     9    1
     4     1     2    1
     5     2     3    1
     6     3     4    1
     7     4    17    1
     8    17    18    1
     9    17    20    1
    10    20    21    1
    11    21    22    1
    12    22    23   ar
    13    23    24   ar
    14    24    25   ar
    15    25    26   ar
    16    26    27   ar
    17    27    28    1
    18    28    29   ar
    19    29    30   ar
    20    30    31   ar
    21    31    32   ar
    22     4     5    1
    23     5     6    1
    24     8    11    1
    25    11    12   ar
    26    12    13   ar
    27    13    14   ar
    28    14    15   ar
    29    15    16   ar
    30     6     1    1
    31    16    11   ar
    32    32    21    1
    33    27    22   ar
    34    32    28   ar
    35     9    10    1
    36    18    19    1
@<TRIPOS>MOLECULE
*****
 32 36 0 0 0
SMALL
GASTEIGER

@<TRIPOS>ATOM
      1 C           1.4021    0.6245   20.5711 C.3     1  UNL1        0.0719
      2 C           1.8038    1.6146   19.5183 C.3     1  UNL1        0.0197
      3 C           2.7125    1.1943   18.4013 C.3     1  UNL1        0.0041
      4 C           3.2195   -0.2159   18.3372 C.3     1  UNL1        0.0271
      5 C           2.8179   -1.2060   19.3900 C.3     1  UNL1        0.0041
      6 C           1.9092   -0.7857   20.5070 C.3     1  UNL1        0.0197
      7 O           2.5569    1.7395   23.1056 O.2     1  UNL1       -0.2701
      8 C           1.0708    1.6022   22.9554 C.2     1  UNL1        0.2458
      9 N           0.4934    1.0447   21.6882 N.am    1  UNL1       -0.3025
     10 H          -0.4820    0.9546   21.5896 H       1  UNL1        0.1497
     11 C           0.1620    2.0224   24.0724 C.ar    1  UNL1        0.0534
     12 C          -0.8154    3.1408   23.8635 C.ar    1  UNL1        0.0045
     13 C          -1.7243    3.5610   24.9804 C.ar    1  UNL1        0.0001
     14 C          -1.6556    2.8627   26.3062 C.ar    1  UNL1        0.0000
     15 C          -0.6781    1.7442   26.5151 C.ar    1  UNL1        0.0001
     16 C           0.2307    1.3241   25.3981 C.ar    1  UNL1        0.0045
     17 C           4.1282   -0.6362   17.2202 C.3     1  UNL1        0.1127
     18 O           3.5884   -1.4455   16.0784 O.3     1  UNL1       -0.3844
     19 H           4.3018   -1.6309   15.4479 H       1  UNL1        0.2103
     20 C           5.5767   -0.2471   17.2451 C.3     1  UNL1        0.0564
     21 C           6.3341   -0.2577   18.5398 C.3     1  UNL1        0.1119
     22 C           6.5608   -1.4518   19.4188 C.ar    1  UNL1       -0.0002
     23 C           6.1393   -2.8858   19.2923 C.ar    1  UNL1       -0.0024
     24 C           6.5215   -3.8761   20.3520 C.ar    1  UNL1       -0.0003
     25 C           7.3252   -3.4325   21.5383 C.ar    1  UNL1        0.0000
     26 C           7.7467   -1.9985   21.6649 C.ar    1  UNL1        0.0012
     27 C           7.3645   -1.0082   20.6051 C.ar    1  UNL1        0.0152
     28 C           7.6344    0.4601   20.4592 C.ar    1  UNL1        0.0804
     29 C           8.2980    1.6418   21.1023 C.ar    1  UNL1        0.1177
     30 N           8.0712    2.8359   20.2232 N.ar    1  UNL1       -0.2223
     31 C           7.2675    2.3922   19.0369 C.ar    1  UNL1        0.1788
     32 N           6.9976    0.9239   19.1828 N.ar    1  UNL1       -0.3069
@<TRIPOS>BOND
     1     7     8    2
     2     8     9   am
     3     1     9    1
     4     1     2    1
     5     2     3    1
     6     3     4    1
     7     4    17    1
     8    17    18    1
     9    17    20    1
    10    20    21    1
    11    21    22    1
    12    22    23   ar
    13    23    24   ar
    14    24    25   ar
    15    25    26   ar
    16    26    27   ar
    17    27    28    1
    18    28    29   ar
    19    29    30   ar
    20    30    31   ar
    21    31    32   ar
    22     4     5    1
    23     5     6    1
    24     8    11    1
    25    11    12   ar
    26    12    13   ar
    27    13    14   ar
    28    14    15   ar
    29    15    16   ar
    30     6     1    1
    31    16    11   ar
    32    32    21    1
    33    27    22   ar
    34    32    28   ar
    35     9    10    1
    36    18    19    1
@<TRIPOS>MOLECULE
*****
 32 36 0 0 0
SMALL
GASTEIGER

@<TRIPOS>ATOM
      1 C          -9.3415  -16.3842   23.7134 C.3     1  UNL1        0.0719
      2 C          -8.6362  -16.7196   22.4327 C.3     1  UNL1        0.0197
      3 C          -7.1581  -16.4958   22.3098 C.3     1  UNL1        0.0041
      4 C          -6.3854  -15.9366   23.4674 C.3     1  UNL1        0.0271
      5 C          -7.0906  -15.6013   24.7481 C.3     1  UNL1        0.0041
      6 C          -8.5687  -15.8251   24.8710 C.3     1  UNL1        0.0197
      7 O         -10.4288  -19.1764   23.8620 O.2     1  UNL1       -0.2701
      8 C         -11.3633  -18.0040   23.9108 C.2     1  UNL1        0.2458
      9 N         -10.8196  -16.6080   23.8365 N.am    1  UNL1       -0.3025
     10 H         -11.4330  -15.8386   23.8685 H       1  UNL1        0.1497
     11 C         -12.8414  -18.2277   24.0339 C.ar    1  UNL1        0.0534
     12 C         -13.7020  -18.2454   22.8055 C.ar    1  UNL1        0.0045
     13 C         -15.1802  -18.4691   22.9285 C.ar    1  UNL1        0.0001
     14 C         -15.7976  -18.6751   24.2799 C.ar    1  UNL1        0.0000
     15 C         -14.9369  -18.6574   25.5084 C.ar    1  UNL1        0.0001
     16 C         -13.4588  -18.4337   25.3853 C.ar    1  UNL1        0.0045
     17 C          -4.9073  -15.7128   23.3444 C.3     1  UNL1        0.1127
     18 O          -4.3765  -14.3341   23.0846 O.3     1  UNL1       -0.3844
     19 H          -3.4084  -14.3647   23.0334 H       1  UNL1        0.2103
     20 C          -3.9598  -16.8678   23.4813 C.3     1  UNL1        0.0564
     21 C          -3.5977  -17.6874   22.2784 C.3     1  UNL1        0.1119
     22 C          -4.3631  -18.8645   21.7506 C.ar    1  UNL1       -0.0002
     23 C          -5.6210  -19.5349   22.2175 C.ar    1  UNL1       -0.0024
     24 C          -6.1610  -20.7191   21.4719 C.ar    1  UNL1       -0.0003
     25 C          -5.4429  -21.2330   20.2593 C.ar    1  UNL1        0.0000
     26 C          -4.1849  -20.5627   19.7924 C.ar    1  UNL1        0.0012
     27 C          -3.6450  -19.3784   20.5381 C.ar    1  UNL1        0.0152
     28 C          -2.4358  -18.5189   20.3164 C.ar    1  UNL1        0.0804
     29 C          -1.2447  -18.3052   19.4300 C.ar    1  UNL1        0.1177
     30 N          -0.4794  -17.1280   19.9578 N.ar    1  UNL1       -0.2223
     31 C          -1.1974  -16.6141   21.1704 C.ar    1  UNL1        0.1788
     32 N          -2.4066  -17.4737   21.3920 N.ar    1  UNL1       -0.3069
@<TRIPOS>BOND
     1     7     8    2
     2     8     9   am
     3     1     9    1
     4     1     2    1
     5     2     3    1
     6     3     4    1
     7     4    17    1
     8    17    18    1
     9    17    20    1
    10    20    21    1
    11    21    22    1
    12    22    23   ar
    13    23    24   ar
    14    24    25   ar
    15    25    26   ar
    16    26    27   ar
    17    27    28    1
    18    28    29   ar
    19    29    30   ar
    20    30    31   ar
    21    31    32   ar
    22     4     5    1
    23     5     6    1
    24     8    11    1
    25    11    12   ar
    26    12    13   ar
    27    13    14   ar
    28    14    15   ar
    29    15    16   ar
    30     6     1    1
    31    16    11   ar
    32    32    21    1
    33    27    22   ar
    34    32    28   ar
    35     9    10    1
    36    18    19    1
@<TRIPOS>MOLECULE
*****
 32 36 0 0 0
SMALL
GASTEIGER

@<TRIPOS>ATOM
      1 C           5.8030   -2.2142   24.0748 C.3     1  UNL1        0.0719
      2 C           4.3061   -2.1652   23.9923 C.3     1  UNL1        0.0197
      3 C           3.6298   -1.0101   23.3152 C.3     1  UNL1        0.0041
      4 C           4.4504    0.0958   22.7206 C.3     1  UNL1        0.0271
      5 C           5.9473    0.0468   22.8031 C.3     1  UNL1        0.0041
      6 C           6.6236   -1.1083   23.4802 C.3     1  UNL1        0.0197
      7 O           6.5698   -4.6429   22.4893 O.2     1  UNL1       -0.2701
      8 C           6.8628   -4.5835   23.9592 C.2     1  UNL1        0.2458
      9 N           6.4794   -3.3692   24.7519 N.am    1  UNL1       -0.3025
     10 H           6.6717   -3.3303   25.7166 H       1  UNL1        0.1497
     11 C           7.5392   -5.7385   24.6363 C.ar    1  UNL1        0.0534
     12 C           7.2325   -6.0509   26.0710 C.ar    1  UNL1        0.0045
     13 C           7.9088   -7.2059   26.7483 C.ar    1  UNL1        0.0001
     14 C           8.8918   -8.0484   25.9908 C.ar    1  UNL1        0.0000
     15 C           9.1985   -7.7360   24.5560 C.ar    1  UNL1        0.0001
     16 C           8.5221   -6.5811   23.8788 C.ar    1  UNL1        0.0045
     17 C           3.7741    1.2509   22.0435 C.3     1  UNL1        0.1127
     18 O           3.5710    2.5398   22.7835 O.3     1  UNL1       -0.3844
     19 H           3.1226    3.1771   22.2058 H       1  UNL1        0.2103
     20 C           3.3009    1.1171   20.6263 C.3     1  UNL1        0.0564
     21 C           4.1432    0.3909   19.6197 C.3     1  UNL1        0.1119
     22 C           4.2240   -1.0969   19.4469 C.ar    1  UNL1       -0.0002
     23 C           3.5480   -2.2287   20.1625 C.ar    1  UNL1       -0.0024
     24 C           3.8314   -3.6458   19.7608 C.ar    1  UNL1       -0.0003
     25 C           4.7907   -3.9312   18.6436 C.ar    1  UNL1        0.0000
     26 C           5.4667   -2.7994   17.9280 C.ar    1  UNL1        0.0012
     27 C           5.1834   -1.3823   18.3296 C.ar    1  UNL1        0.0152
     28 C           5.6954   -0.0708   17.8120 C.ar    1  UNL1        0.0804
     29 C           6.6048    0.5633   16.8016 C.ar    1  UNL1        0.1177
     30 N           6.5239    2.0512   16.9745 N.ar    1  UNL1       -0.2223
     31 C           5.5646    2.3365   18.0918 C.ar    1  UNL1        0.1788
     32 N           5.0526    1.0251   18.6094 N.ar    1  UNL1       -0.3069
@<TRIPOS>BOND
     1     7     8    2
     2     8     9   am
     3     1     9    1
     4     1     2    1
     5     2     3    1
     6     3     4    1
     7     4    17    1
     8    17    18    1
     9    17    20    1
    10    20    21    1
    11    21    22    1
    12    22    23   ar
    13    23    24   ar
    14    24    25   ar
    15    25    26   ar
    16    26    27   ar
    17    27    28    1
    18    28    29   ar
    19    29    30   ar
    20    30    31   ar
    21    31    32   ar
    22     4     5    1
    23     5     6    1
    24     8    11    1
    25    11    12   ar
    26    12    13   ar
    27    13    14   ar
    28    14    15   ar
    29    15    16   ar
    30     6     1    1
    31    16    11   ar
    32    32    21    1
    33    27    22   ar
    34    32    28   ar
    35     9    10    1
    36    18    19    1
@<TRIPOS>MOLECULE
*****
 32 36 0 0 0
SMALL
GASTEIGER

@<TRIPOS>ATOM
      1 C           3.5811    0.1159   26.2064 C.3     1  UNL1        0.0719
      2 C           2.8333    0.0067   24.9107 C.3     1  UNL1        0.0197
      3 C           3.3246   -0.9184   23.8370 C.3     1  UNL1        0.0041
      4 C           4.5636   -1.7342   24.0590 C.3     1  UNL1        0.0271
      5 C           5.3114   -1.6250   25.3547 C.3     1  UNL1        0.0041
      6 C           4.8201   -0.7000   26.4284 C.3     1  UNL1        0.0197
      7 O           2.1555   -0.9906   28.6031 O.2     1  UNL1       -0.2701
      8 C           2.3771    0.4877   28.4786 C.2     1  UNL1        0.2458
      9 N           3.0898    1.0409   27.2803 N.am    1  UNL1       -0.3025
     10 H           3.2352    2.0112   27.1985 H       1  UNL1        0.1497
     11 C           1.8859    1.4128   29.5523 C.ar    1  UNL1        0.0534
     12 C           1.2639    2.7269   29.1832 C.ar    1  UNL1        0.0045
     13 C           0.7727    3.6521   30.2569 C.ar    1  UNL1        0.0001
     14 C           0.9035    3.2630   31.6997 C.ar    1  UNL1        0.0000
     15 C           1.5255    1.9489   32.0688 C.ar    1  UNL1        0.0001
     16 C           2.0167    1.0238   30.9951 C.ar    1  UNL1        0.0045
     17 C           5.0549   -2.6592   22.9853 C.3     1  UNL1        0.1127
     18 O           6.4210   -3.2699   23.0887 O.3     1  UNL1       -0.3844
     19 H           6.5805   -3.8378   22.3187 H       1  UNL1        0.2103
     20 C           4.1800   -2.9736   21.8080 C.3     1  UNL1        0.0564
     21 C           4.2666   -2.1385   20.5650 C.3     1  UNL1        0.1119
     22 C           3.1871   -1.2488   20.0236 C.ar    1  UNL1       -0.0002
     23 C           1.8024   -0.9402   20.5108 C.ar    1  UNL1       -0.0024
     24 C           0.9319    0.0103   19.7436 C.ar    1  UNL1       -0.0003
     25 C           1.4460    0.6522   18.4891 C.ar    1  UNL1        0.0000
     26 C           2.8307    0.3436   18.0019 C.ar    1  UNL1        0.0012
     27 C           3.7012   -0.6069   18.7691 C.ar    1  UNL1        0.0152
     28 C           5.0985   -1.0999   18.5353 C.ar    1  UNL1        0.0804
     29 C           6.2798   -1.0078   17.6154 C.ar    1  UNL1        0.1177
     30 N           7.3593   -1.8976   18.1568 N.ar    1  UNL1       -0.2223
     31 C           6.8451   -2.5395   19.4113 C.ar    1  UNL1        0.1788
     32 N           5.4479   -2.0465   19.6452 N.ar    1  UNL1       -0.3069
@<TRIPOS>BOND
     1     7     8    2
     2     8     9   am
     3     1     9    1
     4     1     2    1
     5     2     3    1
     6     3     4    1
     7     4    17    1
     8    17    18    1
     9    17    20    1
    10    20    21    1
    11    21    22    1
    12    22    23   ar
    13    23    24   ar
    14    24    25   ar
    15    25    26   ar
    16    26    27   ar
    17    27    28    1
    18    28    29   ar
    19    29    30   ar
    20    30    31   ar
    21    31    32   ar
    22     4     5    1
    23     5     6    1
    24     8    11    1
    25    11    12   ar
    26    12    13   ar
    27    13    14   ar
    28    14    15   ar
    29    15    16   ar
    30     6     1    1
    31    16    11   ar
    32    32    21    1
    33    27    22   ar
    34    32    28   ar
    35     9    10    1
    36    18    19    1
@<TRIPOS>MOLECULE
*****
 32 36 0 0 0
SMALL
GASTEIGER

@<TRIPOS>ATOM
      1 C           2.8297   -0.2616   27.9795 C.3     1  UNL1        0.0719
      2 C           3.8688    0.4333   28.8085 C.3     1  UNL1        0.0197
      3 C           3.4685    1.1594   30.0585 C.3     1  UNL1        0.0041
      4 C           2.0291    1.1905   30.4795 C.3     1  UNL1        0.0271
      5 C           0.9900    0.4956   29.6504 C.3     1  UNL1        0.0041
      6 C           1.3903   -0.2304   28.4004 C.3     1  UNL1        0.0197
      7 O           2.6972    1.1332   25.3267 O.2     1  UNL1       -0.2701
      8 C           3.1637   -0.2903   25.4030 C.2     1  UNL1        0.2458
      9 N           3.2299   -0.9877   26.7294 N.am    1  UNL1       -0.3025
     10 H           3.5361   -1.9220   26.7795 H       1  UNL1        0.1497
     11 C           3.5639   -1.0165   24.1530 C.ar    1  UNL1        0.0534
     12 C           2.9881   -0.6059   22.8302 C.ar    1  UNL1        0.0045
     13 C           3.3882   -1.3321   21.5802 C.ar    1  UNL1        0.0001
     14 C           4.3643   -2.4687   21.6530 C.ar    1  UNL1        0.0000
     15 C           4.9402   -2.8793   22.9759 C.ar    1  UNL1        0.0001
     16 C           4.5399   -2.1532   24.2259 C.ar    1  UNL1        0.0045
     17 C           1.6288    1.9166   31.7295 C.3     1  UNL1        0.1127
     18 O           0.2320    1.7831   32.2597 O.3     1  UNL1       -0.3844
     19 H           0.1408    2.3125   33.0674 H       1  UNL1        0.2103
     20 C           2.6254    2.7762   32.4493 C.3     1  UNL1        0.0564
     21 C           2.8095    2.6309   33.9309 C.3     1  UNL1        0.1119
     22 C           3.6216    1.5740   34.6189 C.ar    1  UNL1       -0.0002
     23 C           4.4343    0.4296   34.0899 C.ar    1  UNL1       -0.0024
     24 C           5.1533   -0.4818   35.0397 C.ar    1  UNL1       -0.0003
     25 C           5.0595   -0.2490   36.5186 C.ar    1  UNL1        0.0000
     26 C           4.2468    0.8954   37.0476 C.ar    1  UNL1        0.0012
     27 C           3.5278    1.8068   36.0978 C.ar    1  UNL1        0.0152
     28 C           2.6578    3.0077   36.3237 C.ar    1  UNL1        0.0804
     29 C           2.0621    3.8938   37.3773 C.ar    1  UNL1        0.1177
     30 N           1.2500    4.9507   36.6892 N.ar    1  UNL1       -0.2223
     31 C           1.3438    4.7178   35.2103 C.ar    1  UNL1        0.1788
     32 N           2.2138    3.5170   34.9845 N.ar    1  UNL1       -0.3069
@<TRIPOS>BOND
     1     7     8    2
     2     8     9   am
     3     1     9    1
     4     1     2    1
     5     2     3    1
     6     3     4    1
     7     4    17    1
     8    17    18    1
     9    17    20    1
    10    20    21    1
    11    21    22    1
    12    22    23   ar
    13    23    24   ar
    14    24    25   ar
    15    25    26   ar
    16    26    27   ar
    17    27    28    1
    18    28    29   ar
    19    29    30   ar
    20    30    31   ar
    21    31    32   ar
    22     4     5    1
    23     5     6    1
    24     8    11    1
    25    11    12   ar
    26    12    13   ar
    27    13    14   ar
    28    14    15   ar
    29    15    16   ar
    30     6     1    1
    31    16    11   ar
    32    32    21    1
    33    27    22   ar
    34    32    28   ar
    35     9    10    1
    36    18    19    1
@<TRIPOS>MOLECULE
*****
 32 36 0 0 0
SMALL
GASTEIGER

@<TRIPOS>ATOM
      1 C           5.9971   -3.6809   22.9376 C.3     1  UNL1        0.0719
      2 C           4.6278   -3.6748   22.3254 C.3     1  UNL1        0.0197
      3 C           4.4451   -3.2414   20.9011 C.3     1  UNL1        0.0041
      4 C           5.6317   -2.8141   20.0890 C.3     1  UNL1        0.0271
      5 C           7.0010   -2.8202   20.7012 C.3     1  UNL1        0.0041
      6 C           7.1837   -3.2537   22.1256 C.3     1  UNL1        0.0197
      7 O           6.2244   -1.6277   25.1132 O.2     1  UNL1       -0.2701
      8 C           6.2936   -3.0878   25.4497 C.2     1  UNL1        0.2458
      9 N           6.1800   -4.1144   24.3620 N.am    1  UNL1       -0.3025
     10 H           6.2254   -5.0727   24.5829 H       1  UNL1        0.1497
     11 C           6.4764   -3.5213   26.8741 C.ar    1  UNL1        0.0534
     12 C           6.6237   -4.9776   27.2016 C.ar    1  UNL1        0.0045
     13 C           6.8065   -5.4112   28.6260 C.ar    1  UNL1        0.0001
     14 C           6.8420   -4.3884   29.7226 C.ar    1  UNL1        0.0000
     15 C           6.6947   -2.9320   29.3950 C.ar    1  UNL1        0.0001
     16 C           6.5118   -2.4985   27.9707 C.ar    1  UNL1        0.0045
     17 C           5.4490   -2.3807   18.6647 C.3     1  UNL1        0.1127
     18 O           6.6134   -2.4009   17.7193 O.3     1  UNL1       -0.3844
     19 H           6.3258   -2.0930   16.8456 H       1  UNL1        0.2103
     20 C           4.1017   -1.9270   18.1857 C.3     1  UNL1        0.0564
     21 C           3.6030   -0.5567   18.5374 C.3     1  UNL1        0.1119
     22 C           4.2566    0.7415   18.1666 C.ar    1  UNL1       -0.0002
     23 C           5.5049    1.0523   17.3951 C.ar    1  UNL1       -0.0024
     24 C           5.9173    2.4782   17.1788 C.ar    1  UNL1       -0.0003
     25 C           5.0814    3.5932   17.7339 C.ar    1  UNL1        0.0000
     26 C           3.8332    3.2823   18.5053 C.ar    1  UNL1        0.0012
     27 C           3.4208    1.8564   18.7216 C.ar    1  UNL1        0.0152
     28 C           2.2506    1.2473   19.4356 C.ar    1  UNL1        0.0804
     29 C           1.0107    1.5600   20.2199 C.ar    1  UNL1        0.1177
     30 N           0.3572    0.2618   20.5907 N.ar    1  UNL1       -0.2223
     31 C           1.1930   -0.8532   20.0356 C.ar    1  UNL1        0.1788
     32 N           2.3632   -0.2441   19.3217 N.ar    1  UNL1       -0.3069
@<TRIPOS>BOND
     1     7     8    2
     2     8     9   am
     3     1     9    1
     4     1     2    1
     5     2     3    1
     6     3     4    1
     7     4    17    1
     8    17    18    1
     9    17    20    1
    10    20    21    1
    11    21    22    1
    12    22    23   ar
    13    23    24   ar
    14    24    25   ar
    15    25    26   ar
    16    26    27   ar
    17    27    28    1
    18    28    29   ar
    19    29    30   ar
    20    30    31   ar
    21    31    32   ar
    22     4     5    1
    23     5     6    1
    24     8    11    1
    25    11    12   ar
    26    12    13   ar
    27    13    14   ar
    28    14    15   ar
    29    15    16   ar
    30     6     1    1
    31    16    11   ar
    32    32    21    1
    33    27    22   ar
    34    32    28   ar
    35     9    10    1
    36    18    19    1
