@<TRIPOS>MOLECULE
*****
 22 22 0 0 0
SMALL
GASTEIGER

@<TRIPOS>ATOM
      1 C         -10.2702  -19.5959   22.0632 C.ar    1  UNL1        0.1382
      2 C         -10.9461  -19.7685   20.7353 C.ar    1  UNL1        0.0369
      3 C         -10.1376  -19.7347   19.4723 C.ar    1  UNL1        0.0028
      4 C          -8.6534  -19.5282   19.5371 C.ar    1  UNL1       -0.0040
      5 C          -7.9775  -19.3556   20.8650 C.ar    1  UNL1       -0.0178
      6 C          -8.7859  -19.3894   22.1281 C.ar    1  UNL1        0.0327
      7 O         -11.0787  -19.6297   23.3263 O.3     1  UNL1       -0.4755
      8 C         -11.6897  -18.3680   23.8597 C.3     1  UNL1        0.2054
      9 C         -12.7405  -17.6497   23.0660 C.3     1  UNL1        0.0473
     10 C         -12.4482  -16.2983   22.4844 C.3     1  UNL1        0.0038
     11 C         -11.4902  -16.1545   20.0737 C.3     1  UNL1        0.0000
     12 C         -11.2820  -16.1165   21.5587 C.3     1  UNL1        0.0001
     13 C          -6.4932  -19.1492   20.9299 C.3     1  UNL1        0.0435
     14 C          -5.8192  -18.9626   22.2569 C.3     1  UNL1        0.0737
     15 N          -4.6976  -17.9764   22.3965 N.3     1  UNL1       -0.2895
     16 H          -4.9905  -17.2944   23.0961 H       1  UNL1        0.1237
     17 C          -3.3306  -18.4468   22.7961 C.3     1  UNL1        0.1552
     18 C          -2.2981  -18.7302   21.7456 C.2     1  UNL1        0.2419
     19 O          -2.0098  -20.1452   21.3397 O.2     1  UNL1       -0.2734
     20 N          -1.5538  -17.5986   21.1009 N.am    1  UNL1       -0.2749
     21 C          -0.5214  -17.8820   20.0503 C.3     1  UNL1        0.1149
     22 C          -1.8421  -16.1836   21.5067 C.3     1  UNL1        0.1149
@<TRIPOS>BOND
     1    11    12    1
     2    12    10    1
     3    10     9    1
     4     9     8    1
     5     8     7    1
     6     7     1    1
     7     1     2   ar
     8     2     3   ar
     9     3     4   ar
    10     4     5   ar
    11     5    13    1
    12    13    14    1
    13    14    15    1
    14    15    17    1
    15    17    18    1
    16    18    19    2
    17    18    20   am
    18    20    21    1
    19    20    22    1
    20     5     6   ar
    21     6     1   ar
    22    15    16    1
@<TRIPOS>MOLECULE
*****
 22 22 0 0 0
SMALL
GASTEIGER

@<TRIPOS>ATOM
      1 C         -10.0226  -17.7705   21.2904 C.ar    1  UNL1        0.1382
      2 C         -10.6890  -18.6360   20.2624 C.ar    1  UNL1        0.0369
      3 C          -9.8749  -19.6021   19.4537 C.ar    1  UNL1        0.0028
      4 C          -8.3945  -19.7028   19.6731 C.ar    1  UNL1       -0.0040
      5 C          -7.7281  -18.8373   20.7012 C.ar    1  UNL1       -0.0178
      6 C          -8.5422  -17.8712   21.5098 C.ar    1  UNL1        0.0327
      7 O         -10.8367  -16.8043   22.0990 O.3     1  UNL1       -0.4755
      8 C         -12.2342  -17.1616   22.5101 C.3     1  UNL1        0.2054
      9 C         -12.4623  -18.1962   23.5721 C.3     1  UNL1        0.0473
     10 C         -11.2924  -18.8449   24.2507 C.3     1  UNL1        0.0038
     11 C          -9.2896  -20.4788   23.9876 C.3     1  UNL1        0.0000
     12 C         -10.7164  -20.1159   23.7005 C.3     1  UNL1        0.0001
     13 C          -6.2476  -18.9380   20.9206 C.3     1  UNL1        0.0435
     14 C          -5.6940  -19.9984   21.8255 C.3     1  UNL1        0.0737
     15 N          -4.5766  -19.6694   22.7707 N.3     1  UNL1       -0.2895
     16 H          -4.0264  -20.5208   22.8840 H       1  UNL1        0.1237
     17 C          -3.6110  -18.5710   22.4372 C.3     1  UNL1        0.1552
     18 C          -2.4196  -18.8570   21.5720 C.2     1  UNL1        0.2419
     19 O          -2.0572  -20.2740   21.2391 O.2     1  UNL1       -0.2734
     20 N          -1.5906  -17.7259   21.0395 N.am    1  UNL1       -0.2749
     21 C          -0.3992  -18.0119   20.1742 C.3     1  UNL1        0.1149
     22 C          -1.9530  -16.3089   21.3723 C.3     1  UNL1        0.1149
@<TRIPOS>BOND
     1    11    12    1
     2    12    10    1
     3    10     9    1
     4     9     8    1
     5     8     7    1
     6     7     1    1
     7     1     2   ar
     8     2     3   ar
     9     3     4   ar
    10     4     5   ar
    11     5    13    1
    12    13    14    1
    13    14    15    1
    14    15    17    1
    15    17    18    1
    16    18    19    2
    17    18    20   am
    18    20    21    1
    19    20    22    1
    20     5     6   ar
    21     6     1   ar
    22    15    16    1
@<TRIPOS>MOLECULE
*****
 22 22 0 0 0
SMALL
GASTEIGER

@<TRIPOS>ATOM
      1 C          -4.0345  -18.3758   22.7144 C.ar    1  UNL1        0.1382
      2 C          -2.7242  -18.8690   22.1761 C.ar    1  UNL1        0.0369
      3 C          -2.6986  -19.7910   20.9932 C.ar    1  UNL1        0.0028
      4 C          -3.9833  -20.2197   20.3485 C.ar    1  UNL1       -0.0040
      5 C          -5.2936  -19.7264   20.8868 C.ar    1  UNL1       -0.0178
      6 C          -5.3192  -18.8045   22.0697 C.ar    1  UNL1        0.0327
      7 O          -4.0600  -17.4538   23.8973 O.3     1  UNL1       -0.4755
      8 C          -4.6964  -16.1006   23.7799 C.3     1  UNL1        0.2054
      9 C          -5.7924  -15.7028   24.7236 C.3     1  UNL1        0.0473
     10 C          -5.5235  -15.6303   26.1975 C.3     1  UNL1        0.0038
     11 C          -7.8391  -16.1035   27.2764 C.3     1  UNL1        0.0000
     12 C          -6.6211  -15.2384   27.1418 C.3     1  UNL1        0.0001
     13 C          -6.5784  -20.1551   20.2421 C.3     1  UNL1        0.0435
     14 C          -7.8588  -19.4508   20.5804 C.3     1  UNL1        0.0737
     15 N          -8.8080  -19.0545   19.4886 N.3     1  UNL1       -0.2895
     16 H          -8.4712  -19.4938   18.6318 H       1  UNL1        0.1237
     17 C         -10.2654  -19.3901   19.6033 C.3     1  UNL1        0.1552
     18 C         -11.1902  -18.4720   20.3460 C.2     1  UNL1        0.2419
     19 O         -11.7865  -17.2844   19.6502 O.2     1  UNL1       -0.2734
     20 N         -11.5187  -18.7413   21.7847 N.am    1  UNL1       -0.2749
     21 C         -12.4436  -17.8232   22.5274 C.3     1  UNL1        0.1149
     22 C         -10.9224  -19.9289   22.4805 C.3     1  UNL1        0.1149
@<TRIPOS>BOND
     1    11    12    1
     2    12    10    1
     3    10     9    1
     4     9     8    1
     5     8     7    1
     6     7     1    1
     7     1     2   ar
     8     2     3   ar
     9     3     4   ar
    10     4     5   ar
    11     5    13    1
    12    13    14    1
    13    14    15    1
    14    15    17    1
    15    17    18    1
    16    18    19    2
    17    18    20   am
    18    20    21    1
    19    20    22    1
    20     5     6   ar
    21     6     1   ar
    22    15    16    1
@<TRIPOS>MOLECULE
*****
 22 22 0 0 0
SMALL
GASTEIGER

@<TRIPOS>ATOM
      1 C          -9.8669  -17.8700   22.3229 C.ar    1  UNL1        0.1382
      2 C         -11.0922  -18.0411   21.4747 C.ar    1  UNL1        0.0369
      3 C         -10.9977  -18.7459   20.1540 C.ar    1  UNL1        0.0028
      4 C          -9.6779  -19.2795   19.6814 C.ar    1  UNL1       -0.0040
      5 C          -8.4526  -19.1083   20.5295 C.ar    1  UNL1       -0.0178
      6 C          -8.5472  -18.4035   21.8503 C.ar    1  UNL1        0.0327
      7 O          -9.9615  -17.1652   23.6436 O.3     1  UNL1       -0.4755
      8 C          -8.7154  -16.8535   24.4183 C.3     1  UNL1        0.2054
      9 C          -8.6832  -15.6735   25.3439 C.3     1  UNL1        0.0473
     10 C          -8.1263  -15.8217   26.7288 C.3     1  UNL1        0.0038
     11 C          -5.6399  -15.4095   26.0978 C.3     1  UNL1        0.0000
     12 C          -6.7793  -15.2511   27.0605 C.3     1  UNL1        0.0001
     13 C          -7.1327  -19.6419   20.0569 C.3     1  UNL1        0.0435
     14 C          -6.3133  -20.5196   20.9558 C.3     1  UNL1        0.0737
     15 N          -4.8881  -20.1619   21.2575 N.3     1  UNL1       -0.2895
     16 H          -4.3999  -21.0362   21.4519 H       1  UNL1        0.1237
     17 C          -4.0683  -19.4251   20.2402 C.3     1  UNL1        0.1552
     18 C          -2.5895  -19.2710   20.4378 C.2     1  UNL1        0.2419
     19 O          -1.8633  -20.1682   21.3958 O.2     1  UNL1       -0.2734
     20 N          -1.8366  -18.2197   19.6774 N.am    1  UNL1       -0.2749
     21 C          -0.3578  -18.0656   19.8750 C.3     1  UNL1        0.1149
     22 C          -2.5628  -17.3225   18.7195 C.3     1  UNL1        0.1149
@<TRIPOS>BOND
     1    11    12    1
     2    12    10    1
     3    10     9    1
     4     9     8    1
     5     8     7    1
     6     7     1    1
     7     1     2   ar
     8     2     3   ar
     9     3     4   ar
    10     4     5   ar
    11     5    13    1
    12    13    14    1
    13    14    15    1
    14    15    17    1
    15    17    18    1
    16    18    19    2
    17    18    20   am
    18    20    21    1
    19    20    22    1
    20     5     6   ar
    21     6     1   ar
    22    15    16    1
@<TRIPOS>MOLECULE
*****
 22 22 0 0 0
SMALL
GASTEIGER

@<TRIPOS>ATOM
      1 C          -8.3818  -15.9675   24.8170 C.ar    1  UNL1        0.1382
      2 C          -8.1558  -15.4820   26.2181 C.ar    1  UNL1        0.0369
      3 C          -6.7589  -15.3329   26.7440 C.ar    1  UNL1        0.0028
      4 C          -5.5881  -15.6693   25.8688 C.ar    1  UNL1       -0.0040
      5 C          -5.8142  -16.1547   24.4677 C.ar    1  UNL1       -0.0178
      6 C          -7.2110  -16.3039   23.9418 C.ar    1  UNL1        0.0327
      7 O          -9.7787  -16.1166   24.2911 O.3     1  UNL1       -0.4755
      8 C         -10.0575  -17.0622   23.1606 C.3     1  UNL1        0.2054
      9 C         -11.3338  -17.8500   23.1392 C.3     1  UNL1        0.0473
     10 C         -12.3226  -17.6460   22.0298 C.3     1  UNL1        0.0038
     11 C         -11.6191  -16.3736   19.8767 C.3     1  UNL1        0.0000
     12 C         -12.2897  -16.3848   21.2184 C.3     1  UNL1        0.0001
     13 C          -4.6434  -16.4912   23.5924 C.3     1  UNL1        0.0435
     14 C          -4.4508  -17.8965   23.1048 C.3     1  UNL1        0.0737
     15 N          -4.8219  -18.2597   21.6975 N.3     1  UNL1       -0.2895
     16 H          -4.6851  -17.4223   21.1315 H       1  UNL1        0.1237
     17 C          -4.1064  -19.3770   20.9977 C.3     1  UNL1        0.1552
     18 C          -2.6168  -19.3243   20.8291 C.2     1  UNL1        0.2419
     19 O          -1.7368  -20.2173   21.6526 O.2     1  UNL1       -0.2734
     20 N          -2.0073  -18.3786   19.8370 N.am    1  UNL1       -0.2749
     21 C          -0.5177  -18.3259   19.6684 C.3     1  UNL1        0.1149
     22 C          -2.8873  -17.4856   19.0136 C.3     1  UNL1        0.1149
@<TRIPOS>BOND
     1    11    12    1
     2    12    10    1
     3    10     9    1
     4     9     8    1
     5     8     7    1
     6     7     1    1
     7     1     2   ar
     8     2     3   ar
     9     3     4   ar
    10     4     5   ar
    11     5    13    1
    12    13    14    1
    13    14    15    1
    14    15    17    1
    15    17    18    1
    16    18    19    2
    17    18    20   am
    18    20    21    1
    19    20    22    1
    20     5     6   ar
    21     6     1   ar
    22    15    16    1
@<TRIPOS>MOLECULE
*****
 22 22 0 0 0
SMALL
GASTEIGER

@<TRIPOS>ATOM
      1 C          -5.5410  -15.9029   24.2493 C.ar    1  UNL1        0.1382
      2 C          -5.2076  -15.5975   25.6795 C.ar    1  UNL1        0.0369
      3 C          -6.3070  -15.4171   26.6839 C.ar    1  UNL1        0.0028
      4 C          -7.7398  -15.5422   26.2581 C.ar    1  UNL1       -0.0040
      5 C          -8.0732  -15.8476   24.8279 C.ar    1  UNL1       -0.0178
      6 C          -6.9739  -16.0280   23.8235 C.ar    1  UNL1        0.0327
      7 O          -4.4417  -16.0833   23.2449 O.3     1  UNL1       -0.4755
      8 C          -3.6705  -17.3690   23.1998 C.3     1  UNL1        0.2054
      9 C          -4.3172  -18.6132   22.6670 C.3     1  UNL1        0.0473
     10 C          -3.4915  -19.6389   21.9484 C.3     1  UNL1        0.0038
     11 C          -3.8460  -18.8225   19.5075 C.3     1  UNL1        0.0000
     12 C          -3.7608  -19.9405   20.5039 C.3     1  UNL1        0.0001
     13 C          -9.5061  -15.9726   24.4020 C.3     1  UNL1        0.0435
     14 C          -9.8631  -16.8037   23.2055 C.3     1  UNL1        0.0737
     15 N         -10.8301  -17.9420   23.3443 N.3     1  UNL1       -0.2895
     16 H         -11.7281  -17.6102   22.9924 H       1  UNL1        0.1237
     17 C         -10.5535  -19.2486   22.6615 C.3     1  UNL1        0.1552
     18 C          -9.2386  -19.4726   21.9754 C.2     1  UNL1        0.2419
     19 O          -8.0323  -19.8651   22.7759 O.2     1  UNL1       -0.2734
     20 N          -9.1300  -19.3043   20.4888 N.am    1  UNL1       -0.2749
     21 C          -7.8150  -19.5283   19.8028 C.3     1  UNL1        0.1149
     22 C         -10.3363  -18.9118   19.6884 C.3     1  UNL1        0.1149
@<TRIPOS>BOND
     1    11    12    1
     2    12    10    1
     3    10     9    1
     4     9     8    1
     5     8     7    1
     6     7     1    1
     7     1     2   ar
     8     2     3   ar
     9     3     4   ar
    10     4     5   ar
    11     5    13    1
    12    13    14    1
    13    14    15    1
    14    15    17    1
    15    17    18    1
    16    18    19    2
    17    18    20   am
    18    20    21    1
    19    20    22    1
    20     5     6   ar
    21     6     1   ar
    22    15    16    1
@<TRIPOS>MOLECULE
*****
 22 22 0 0 0
SMALL
GASTEIGER

@<TRIPOS>ATOM
      1 C          -8.5030  -15.8554   24.8784 C.ar    1  UNL1        0.1382
      2 C          -8.3834  -15.5441   26.3409 C.ar    1  UNL1        0.0369
      3 C          -7.0291  -15.3775   26.9639 C.ar    1  UNL1        0.0028
      4 C          -5.7945  -15.5221   26.1245 C.ar    1  UNL1       -0.0040
      5 C          -5.9141  -15.8333   24.6621 C.ar    1  UNL1       -0.0178
      6 C          -7.2683  -16.0000   24.0390 C.ar    1  UNL1        0.0327
      7 O          -9.8573  -16.0220   24.2554 O.3     1  UNL1       -0.4755
      8 C         -10.3607  -17.3923   23.9105 C.3     1  UNL1        0.2054
      9 C         -10.1698  -18.5259   24.8741 C.3     1  UNL1        0.0473
     10 C          -9.6400  -19.8424   24.3878 C.3     1  UNL1        0.0038
     11 C          -7.8748  -19.7180   22.4855 C.3     1  UNL1        0.0000
     12 C          -9.2717  -20.0154   22.9440 C.3     1  UNL1        0.0001
     13 C          -4.6794  -15.9779   23.8226 C.3     1  UNL1        0.0435
     14 C          -4.0398  -17.3243   23.6551 C.3     1  UNL1        0.0737
     15 N          -4.2797  -18.1184   22.4052 N.3     1  UNL1       -0.2895
     16 H          -4.8570  -17.5397   21.7951 H       1  UNL1        0.1237
     17 C          -3.1181  -18.5906   21.5821 C.3     1  UNL1        0.1552
     18 C          -3.0933  -18.3357   20.1042 C.2     1  UNL1        0.2419
     19 O          -4.3494  -18.4795   19.2971 O.2     1  UNL1       -0.2734
     20 N          -1.8123  -17.9369   19.4333 N.am    1  UNL1       -0.2749
     21 C          -1.7875  -17.6819   17.9553 C.3     1  UNL1        0.1149
     22 C          -0.5561  -17.7930   20.2404 C.3     1  UNL1        0.1149
@<TRIPOS>BOND
     1    11    12    1
     2    12    10    1
     3    10     9    1
     4     9     8    1
     5     8     7    1
     6     7     1    1
     7     1     2   ar
     8     2     3   ar
     9     3     4   ar
    10     4     5   ar
    11     5    13    1
    12    13    14    1
    13    14    15    1
    14    15    17    1
    15    17    18    1
    16    18    19    2
    17    18    20   am
    18    20    21    1
    19    20    22    1
    20     5     6   ar
    21     6     1   ar
    22    15    16    1
@<TRIPOS>MOLECULE
*****
 22 22 0 0 0
SMALL
GASTEIGER

@<TRIPOS>ATOM
      1 C          -9.1650  -17.4088   21.4013 C.ar    1  UNL1        0.1382
      2 C          -8.9331  -16.4273   22.5116 C.ar    1  UNL1        0.0369
      3 C          -7.6966  -16.5271   23.3548 C.ar    1  UNL1        0.0028
      4 C          -6.6919  -17.6084   23.0878 C.ar    1  UNL1       -0.0040
      5 C          -6.9238  -18.5900   21.9775 C.ar    1  UNL1       -0.0178
      6 C          -8.1603  -18.4902   21.1343 C.ar    1  UNL1        0.0327
      7 O         -10.4015  -17.3091   20.5581 O.3     1  UNL1       -0.4755
      8 C         -11.5827  -18.1855   20.8523 C.3     1  UNL1        0.2054
      9 C         -11.5302  -19.1563   21.9945 C.3     1  UNL1        0.0473
     10 C         -11.8388  -18.6930   23.3875 C.3     1  UNL1        0.0038
     11 C          -9.7498  -19.9596   24.2716 C.3     1  UNL1        0.0000
     12 C         -10.9509  -19.0980   24.5266 C.3     1  UNL1        0.0001
     13 C          -5.9191  -19.6714   21.7105 C.3     1  UNL1        0.0435
     14 C          -5.1704  -19.6952   20.4110 C.3     1  UNL1        0.0737
     15 N          -3.8928  -20.4728   20.2956 N.3     1  UNL1       -0.2895
     16 H          -3.6572  -20.5064   19.3037 H       1  UNL1        0.1237
     17 C          -2.6633  -20.0066   21.0172 C.3     1  UNL1        0.1552
     18 C          -2.0780  -18.6603   20.7092 C.2     1  UNL1        0.2419
     19 O          -1.3243  -18.4450   19.4303 O.2     1  UNL1       -0.2734
     20 N          -2.2465  -17.5293   21.6800 N.am    1  UNL1       -0.2749
     21 C          -1.6613  -16.1830   21.3719 C.3     1  UNL1        0.1149
     22 C          -3.0003  -17.7446   22.9588 C.3     1  UNL1        0.1149
@<TRIPOS>BOND
     1    11    12    1
     2    12    10    1
     3    10     9    1
     4     9     8    1
     5     8     7    1
     6     7     1    1
     7     1     2   ar
     8     2     3   ar
     9     3     4   ar
    10     4     5   ar
    11     5    13    1
    12    13    14    1
    13    14    15    1
    14    15    17    1
    15    17    18    1
    16    18    19    2
    17    18    20   am
    18    20    21    1
    19    20    22    1
    20     5     6   ar
    21     6     1   ar
    22    15    16    1
@<TRIPOS>MOLECULE
*****
 22 22 0 0 0
SMALL
GASTEIGER

@<TRIPOS>ATOM
      1 C         -10.5957   -4.2911   17.8245 C.ar    1  UNL1        0.1382
      2 C          -9.6793   -4.8078   18.8936 C.ar    1  UNL1        0.0369
      3 C          -9.6192   -6.2782   19.1837 C.ar    1  UNL1        0.0028
      4 C         -10.4756   -7.2320   18.4048 C.ar    1  UNL1       -0.0040
      5 C         -11.3921   -6.7153   17.3357 C.ar    1  UNL1       -0.0178
      6 C         -11.4522   -5.2448   17.0455 C.ar    1  UNL1        0.0327
      7 O         -10.6558   -2.8206   17.5344 O.3     1  UNL1       -0.4755
      8 C         -11.2185   -1.8770   18.5556 C.3     1  UNL1        0.2054
      9 C         -12.6572   -1.9863   18.9655 C.3     1  UNL1        0.0473
     10 C         -13.0674   -2.9893   20.0028 C.3     1  UNL1        0.0038
     11 C         -13.5790   -5.5347   20.0976 C.3     1  UNL1        0.0000
     12 C         -13.9274   -4.1566   19.6185 C.3     1  UNL1        0.0001
     13 C         -12.2486   -7.6690   16.5566 C.3     1  UNL1        0.0435
     14 C         -13.6654   -7.9217   16.9795 C.3     1  UNL1        0.0737
     15 N         -13.9484   -8.7563   18.1933 N.3     1  UNL1       -0.2895
     16 H         -13.2910   -8.4595   18.9145 H       1  UNL1        0.1237
     17 C         -15.3128   -8.7360   18.8161 C.3     1  UNL1        0.1552
     18 C         -16.3432   -9.7426   18.3978 C.2     1  UNL1        0.2419
     19 O         -16.0255  -11.2076   18.4512 O.2     1  UNL1       -0.2734
     20 N         -17.6913   -9.2842   17.9261 N.am    1  UNL1       -0.2749
     21 C         -18.7217  -10.2907   17.5078 C.3     1  UNL1        0.1149
     22 C         -18.0090   -7.8192   17.8727 C.3     1  UNL1        0.1149
@<TRIPOS>BOND
     1    11    12    1
     2    12    10    1
     3    10     9    1
     4     9     8    1
     5     8     7    1
     6     7     1    1
     7     1     2   ar
     8     2     3   ar
     9     3     4   ar
    10     4     5   ar
    11     5    13    1
    12    13    14    1
    13    14    15    1
    14    15    17    1
    15    17    18    1
    16    18    19    2
    17    18    20   am
    18    20    21    1
    19    20    22    1
    20     5     6   ar
    21     6     1   ar
    22    15    16    1
