@<TRIPOS>MOLECULE
*****
 25 27 0 0 0
SMALL
GASTEIGER

@<TRIPOS>ATOM
      1 C           7.2094   -5.5530   26.2755 C.ar    1  UNL1        0.1418
      2 C           7.6977   -6.3238   27.4661 C.ar    1  UNL1        0.0739
      3 C           7.5559   -5.7461   28.8431 C.ar    1  UNL1        0.1471
      4 C           6.9258   -4.3977   29.0296 C.ar    1  UNL1        0.0937
      5 C           6.7841   -3.8200   30.4066 C.ar    1  UNL1        0.2110
      6 C           7.2723   -4.5908   31.5972 C.3     1  UNL1        0.1084
      7 N           6.1540   -2.4717   30.5930 N.ar    1  UNL1       -0.1571
      8 C           5.6657   -1.7009   29.4024 C.ar    1  UNL1        0.2082
      9 C           5.0356   -0.3525   29.5889 C.3     1  UNL1        0.1083
     10 C           5.8074   -2.2785   28.0254 C.ar    1  UNL1        0.0652
     11 C           6.4376   -3.6270   27.8390 C.ar    1  UNL1        0.0169
     12 C           6.5794   -4.2046   26.4619 C.ar    1  UNL1        0.0375
     13 C           6.0122   -1.8940   31.9701 C.ar    1  UNL1        0.2306
     14 C           7.1268   -1.0829   32.5615 C.ar    1  UNL1        0.0694
     15 C           6.9850   -0.5052   33.9386 C.ar    1  UNL1        0.0018
     16 C           5.7286   -0.7387   34.7241 C.ar    1  UNL1       -0.0221
     17 C           4.6141   -1.5498   34.1326 C.ar    1  UNL1        0.0018
     18 C           4.7559   -2.1274   32.7556 C.ar    1  UNL1        0.0694
     19 C           5.5868   -0.1610   36.1011 C.3     1  UNL1        0.0224
     20 C           6.8062    0.0941   36.9367 C.3     1  UNL1        0.0047
     21 C           4.2257    0.1616   36.6426 C.3     1  UNL1        0.0047
     22 C           8.1517   -7.3818   24.6888 C.3     1  UNL1        0.2525
     23 O           7.3512   -6.1307   24.8985 O.3     1  UNL1       -0.4713
     24 O           8.0442   -6.5169   30.0337 O.3     1  UNL1       -0.4711
     25 C           9.4062   -7.1450   30.0134 C.3     1  UNL1        0.2525
@<TRIPOS>UNITY_ATOM_ATTR
7 1
charge 1
@<TRIPOS>BOND
     1    22    23    1
     2    23     1    1
     3     1     2   ar
     4     2     3   ar
     5     3    24    1
     6    24    25    1
     7     3     4   ar
     8     4     5   ar
     9     5     6    1
    10     5     7   ar
    11     7    13    1
    12    13    14   ar
    13    14    15   ar
    14    15    16   ar
    15    16    19    1
    16    19    20    1
    17    19    21    1
    18    16    17   ar
    19    17    18   ar
    20     7     8   ar
    21     8     9    1
    22     8    10   ar
    23    10    11   ar
    24    11    12   ar
    25    12     1   ar
    26    11     4   ar
    27    18    13   ar
@<TRIPOS>MOLECULE
*****
 25 27 0 0 0
SMALL
GASTEIGER

@<TRIPOS>ATOM
      1 C           3.9270   -2.8661   19.9013 C.ar    1  UNL1        0.1418
      2 C           4.5304   -3.1781   21.2386 C.ar    1  UNL1        0.0739
      3 C           4.1481   -2.3676   22.4415 C.ar    1  UNL1        0.1471
      4 C           3.1624   -1.2451   22.3070 C.ar    1  UNL1        0.0937
      5 C           2.7801   -0.4345   23.5099 C.ar    1  UNL1        0.2110
      6 C           3.3835   -0.7466   24.8472 C.3     1  UNL1        0.1084
      7 N           1.7943    0.6880   23.3755 N.ar    1  UNL1       -0.1571
      8 C           1.1909    1.0001   22.0381 C.ar    1  UNL1        0.2082
      9 C           0.2051    2.1227   21.9037 C.3     1  UNL1        0.1083
     10 C           1.5732    0.1896   20.8352 C.ar    1  UNL1        0.0652
     11 C           2.5589   -0.9330   20.9697 C.ar    1  UNL1        0.0169
     12 C           2.9412   -1.7435   19.7668 C.ar    1  UNL1        0.0375
     13 C           1.4120    1.4985   24.5784 C.ar    1  UNL1        0.2306
     14 C           0.2088    1.1166   25.3885 C.ar    1  UNL1        0.0694
     15 C          -0.1735    1.9271   26.5914 C.ar    1  UNL1        0.0018
     16 C           0.6474    3.1196   26.9841 C.ar    1  UNL1       -0.0221
     17 C           1.8506    3.5014   26.1739 C.ar    1  UNL1        0.0018
     18 C           2.2329    2.6909   24.9711 C.ar    1  UNL1        0.0694
     19 C           0.2651    3.9301   28.1870 C.3     1  UNL1        0.0224
     20 C           0.7055    3.4970   29.5540 C.3     1  UNL1        0.0047
     21 C          -0.5575    5.1736   28.0229 C.3     1  UNL1        0.0047
     22 C           4.5394   -5.1529   18.8310 C.3     1  UNL1        0.2525
     23 O           4.3093   -3.6766   18.6984 O.3     1  UNL1       -0.4713
     24 O           4.7516   -2.6797   23.7788 O.3     1  UNL1       -0.4711
     25 C           5.9150   -3.6216   23.8753 C.3     1  UNL1        0.2525
@<TRIPOS>UNITY_ATOM_ATTR
7 1
charge 1
@<TRIPOS>BOND
     1    22    23    1
     2    23     1    1
     3     1     2   ar
     4     2     3   ar
     5     3    24    1
     6    24    25    1
     7     3     4   ar
     8     4     5   ar
     9     5     6    1
    10     5     7   ar
    11     7    13    1
    12    13    14   ar
    13    14    15   ar
    14    15    16   ar
    15    16    19    1
    16    19    20    1
    17    19    21    1
    18    16    17   ar
    19    17    18   ar
    20     7     8   ar
    21     8     9    1
    22     8    10   ar
    23    10    11   ar
    24    11    12   ar
    25    12     1   ar
    26    11     4   ar
    27    18    13   ar
@<TRIPOS>MOLECULE
*****
 25 27 0 0 0
SMALL
GASTEIGER

@<TRIPOS>ATOM
      1 C           4.3168    0.5660   35.8412 C.ar    1  UNL1        0.1418
      2 C           4.6908   -0.4964   34.8506 C.ar    1  UNL1        0.0739
      3 C           4.1377   -0.4506   33.4570 C.ar    1  UNL1        0.1471
      4 C           3.2106    0.6577   33.0541 C.ar    1  UNL1        0.0937
      5 C           2.6575    0.7035   31.6606 C.ar    1  UNL1        0.2110
      6 C           3.0315   -0.3589   30.6699 C.3     1  UNL1        0.1084
      7 N           1.7305    1.8117   31.2577 N.ar    1  UNL1       -0.1571
      8 C           1.3565    2.8742   32.2484 C.ar    1  UNL1        0.2082
      9 C           0.4294    3.9824   31.8455 C.3     1  UNL1        0.1083
     10 C           1.9096    2.8283   33.6419 C.ar    1  UNL1        0.0652
     11 C           2.8367    1.7200   34.0448 C.ar    1  UNL1        0.0169
     12 C           3.3898    1.6742   35.4383 C.ar    1  UNL1        0.0375
     13 C           1.1774    1.8576   29.8641 C.ar    1  UNL1        0.2306
     14 C           1.9028    2.6182   28.7939 C.ar    1  UNL1        0.0694
     15 C           1.3497    2.6640   27.4004 C.ar    1  UNL1        0.0018
     16 C           0.0712    1.9492   27.0770 C.ar    1  UNL1       -0.0221
     17 C          -0.6542    1.1886   28.1472 C.ar    1  UNL1        0.0018
     18 C          -0.1011    1.1428   29.5408 C.ar    1  UNL1        0.0694
     19 C          -0.4819    1.9951   25.6835 C.3     1  UNL1        0.0224
     20 C           0.1441    1.1672   24.6005 C.3     1  UNL1        0.0047
     21 C          -1.6610    2.8687   25.3729 C.3     1  UNL1        0.0047
     22 C           4.2185    1.3158   38.3268 C.3     1  UNL1        0.2525
     23 O           4.8700    0.5201   37.2348 O.3     1  UNL1       -0.4713
     24 O           4.5117   -1.5130   32.4663 O.3     1  UNL1       -0.4711
     25 C           5.1921   -2.7662   32.9316 C.3     1  UNL1        0.2525
@<TRIPOS>UNITY_ATOM_ATTR
7 1
charge 1
@<TRIPOS>BOND
     1    22    23    1
     2    23     1    1
     3     1     2   ar
     4     2     3   ar
     5     3    24    1
     6    24    25    1
     7     3     4   ar
     8     4     5   ar
     9     5     6    1
    10     5     7   ar
    11     7    13    1
    12    13    14   ar
    13    14    15   ar
    14    15    16   ar
    15    16    19    1
    16    19    20    1
    17    19    21    1
    18    16    17   ar
    19    17    18   ar
    20     7     8   ar
    21     8     9    1
    22     8    10   ar
    23    10    11   ar
    24    11    12   ar
    25    12     1   ar
    26    11     4   ar
    27    18    13   ar
@<TRIPOS>MOLECULE
*****
 25 27 0 0 0
SMALL
GASTEIGER

@<TRIPOS>ATOM
      1 C           4.0413   -2.5833   20.4088 C.ar    1  UNL1        0.1418
      2 C           2.9823   -1.7959   19.6957 C.ar    1  UNL1        0.0739
      3 C           2.1768   -0.7743   20.4423 C.ar    1  UNL1        0.1471
      4 C           2.4302   -0.5401   21.9020 C.ar    1  UNL1        0.0937
      5 C           1.6247    0.4815   22.6486 C.ar    1  UNL1        0.2110
      6 C           0.5657    1.2689   21.9355 C.3     1  UNL1        0.1084
      7 N           1.8781    0.7157   24.1084 N.ar    1  UNL1       -0.1571
      8 C           2.9372   -0.0717   24.8216 C.ar    1  UNL1        0.2082
      9 C           3.1906    0.1626   26.2813 C.3     1  UNL1        0.1083
     10 C           3.7427   -1.0933   24.0749 C.ar    1  UNL1        0.0652
     11 C           3.4892   -1.3275   22.6151 C.ar    1  UNL1        0.0169
     12 C           4.2947   -2.3491   21.8685 C.ar    1  UNL1        0.0375
     13 C           1.0726    1.7373   24.8550 C.ar    1  UNL1        0.2306
     14 C           1.5498    3.1573   24.9337 C.ar    1  UNL1        0.0694
     15 C           0.7442    4.1789   25.6803 C.ar    1  UNL1        0.0018
     16 C          -0.5385    3.7805   26.3482 C.ar    1  UNL1       -0.0221
     17 C          -1.0156    2.3606   26.2695 C.ar    1  UNL1        0.0018
     18 C          -0.2100    1.3390   25.5229 C.ar    1  UNL1        0.0694
     19 C          -1.3440    4.8021   27.0948 C.3     1  UNL1        0.0224
     20 C          -0.6744    5.7064   28.0868 C.3     1  UNL1        0.0047
     21 C          -2.8191    4.9195   26.8495 C.3     1  UNL1        0.0047
     22 C           4.1670   -4.7907   19.0444 C.3     1  UNL1        0.2525
     23 O           4.8468   -3.6049   19.6622 O.3     1  UNL1       -0.4713
     24 O           1.1178    0.0130   19.7291 O.3     1  UNL1       -0.4711
     25 C           1.4115    0.6257   18.3918 C.3     1  UNL1        0.2525
@<TRIPOS>UNITY_ATOM_ATTR
7 1
charge 1
@<TRIPOS>BOND
     1    22    23    1
     2    23     1    1
     3     1     2   ar
     4     2     3   ar
     5     3    24    1
     6    24    25    1
     7     3     4   ar
     8     4     5   ar
     9     5     6    1
    10     5     7   ar
    11     7    13    1
    12    13    14   ar
    13    14    15   ar
    14    15    16   ar
    15    16    19    1
    16    19    20    1
    17    19    21    1
    18    16    17   ar
    19    17    18   ar
    20     7     8   ar
    21     8     9    1
    22     8    10   ar
    23    10    11   ar
    24    11    12   ar
    25    12     1   ar
    26    11     4   ar
    27    18    13   ar
@<TRIPOS>MOLECULE
*****
 25 27 0 0 0
SMALL
GASTEIGER

@<TRIPOS>ATOM
      1 C          -2.5775    4.1984   26.2850 C.ar    1  UNL1        0.1418
      2 C          -1.5636    3.2601   26.8695 C.ar    1  UNL1        0.0739
      3 C          -0.6552    2.4800   25.9661 C.ar    1  UNL1        0.1471
      4 C          -0.7605    2.6382   24.4783 C.ar    1  UNL1        0.0937
      5 C           0.1480    1.8581   23.5749 C.ar    1  UNL1        0.2110
      6 C           1.1618    0.9198   24.1594 C.3     1  UNL1        0.1084
      7 N           0.0426    2.0162   22.0870 N.ar    1  UNL1       -0.1571
      8 C          -0.9712    2.9545   21.5024 C.ar    1  UNL1        0.2082
      9 C          -1.0766    3.1127   20.0145 C.3     1  UNL1        0.1083
     10 C          -1.8797    3.7347   22.4058 C.ar    1  UNL1        0.0652
     11 C          -1.7743    3.5765   23.8937 C.ar    1  UNL1        0.0169
     12 C          -2.6828    4.3566   24.7971 C.ar    1  UNL1        0.0375
     13 C           0.9511    1.2361   21.1837 C.ar    1  UNL1        0.2306
     14 C           0.5360   -0.1184   20.6906 C.ar    1  UNL1        0.0694
     15 C           1.4445   -0.8986   19.7872 C.ar    1  UNL1        0.0018
     16 C           2.7681   -0.3242   19.3769 C.ar    1  UNL1       -0.0221
     17 C           3.1831    1.0303   19.8700 C.ar    1  UNL1        0.0018
     18 C           2.2747    1.8104   20.7734 C.ar    1  UNL1        0.0694
     19 C           3.6766   -1.1043   18.4736 C.3     1  UNL1        0.0224
     20 C           4.0080   -0.5792   17.1081 C.3     1  UNL1        0.0047
     21 C           4.2536   -2.4094   18.9357 C.3     1  UNL1        0.0047
     22 C          -4.9475    5.0880   26.8693 C.3     1  UNL1        0.2525
     23 O          -3.4860    4.9785   27.1883 O.3     1  UNL1       -0.4713
     24 O           0.3587    1.5417   26.5507 O.3     1  UNL1       -0.4711
     25 C           0.1230    0.9280   27.8989 C.3     1  UNL1        0.2525
@<TRIPOS>UNITY_ATOM_ATTR
7 1
charge 1
@<TRIPOS>BOND
     1    22    23    1
     2    23     1    1
     3     1     2   ar
     4     2     3   ar
     5     3    24    1
     6    24    25    1
     7     3     4   ar
     8     4     5   ar
     9     5     6    1
    10     5     7   ar
    11     7    13    1
    12    13    14   ar
    13    14    15   ar
    14    15    16   ar
    15    16    19    1
    16    19    20    1
    17    19    21    1
    18    16    17   ar
    19    17    18   ar
    20     7     8   ar
    21     8     9    1
    22     8    10   ar
    23    10    11   ar
    24    11    12   ar
    25    12     1   ar
    26    11     4   ar
    27    18    13   ar
@<TRIPOS>MOLECULE
*****
 25 27 0 0 0
SMALL
GASTEIGER

@<TRIPOS>ATOM
      1 C           4.2232    0.7535   35.6645 C.ar    1  UNL1        0.1418
      2 C           3.2751    1.9100   35.7809 C.ar    1  UNL1        0.0739
      3 C           2.4475    2.3232   34.6001 C.ar    1  UNL1        0.1471
      4 C           2.5681    1.5800   33.3028 C.ar    1  UNL1        0.0937
      5 C           1.7405    1.9932   32.1220 C.ar    1  UNL1        0.2110
      6 C           0.7924    3.1497   32.2384 C.3     1  UNL1        0.1084
      7 N           1.8611    1.2500   30.8247 N.ar    1  UNL1       -0.1571
      8 C           2.8092    0.0934   30.7082 C.ar    1  UNL1        0.2082
      9 C           2.9298   -0.6498   29.4109 C.3     1  UNL1        0.1083
     10 C           3.6368   -0.3198   31.8890 C.ar    1  UNL1        0.0652
     11 C           3.5162    0.4235   33.1864 C.ar    1  UNL1        0.0169
     12 C           4.3437    0.0103   34.3672 C.ar    1  UNL1        0.0375
     13 C           1.0335    1.6632   29.6438 C.ar    1  UNL1        0.2306
     14 C           1.4637    2.8232   28.7956 C.ar    1  UNL1        0.0694
     15 C           0.6361    3.2364   27.6148 C.ar    1  UNL1        0.0018
     16 C          -0.6216    2.4897   27.2822 C.ar    1  UNL1       -0.0221
     17 C          -1.0517    1.3297   28.1303 C.ar    1  UNL1        0.0018
     18 C          -0.2241    0.9165   29.3112 C.ar    1  UNL1        0.0694
     19 C          -1.4492    2.9029   26.1013 C.3     1  UNL1        0.0224
     20 C          -2.7917    3.5380   26.3118 C.3     1  UNL1        0.0047
     21 C          -0.9342    2.6810   24.7101 C.3     1  UNL1        0.0047
     22 C           6.4141   -0.2492   36.6363 C.3     1  UNL1        0.2525
     23 O           5.0507    0.3403   36.8453 O.3     1  UNL1       -0.4713
     24 O           1.4994    3.4797   34.7166 O.3     1  UNL1       -0.4711
     25 C           1.8525    4.6551   35.5789 C.3     1  UNL1        0.2525
@<TRIPOS>UNITY_ATOM_ATTR
7 1
charge 1
@<TRIPOS>BOND
     1    22    23    1
     2    23     1    1
     3     1     2   ar
     4     2     3   ar
     5     3    24    1
     6    24    25    1
     7     3     4   ar
     8     4     5   ar
     9     5     6    1
    10     5     7   ar
    11     7    13    1
    12    13    14   ar
    13    14    15   ar
    14    15    16   ar
    15    16    19    1
    16    19    20    1
    17    19    21    1
    18    16    17   ar
    19    17    18   ar
    20     7     8   ar
    21     8     9    1
    22     8    10   ar
    23    10    11   ar
    24    11    12   ar
    25    12     1   ar
    26    11     4   ar
    27    18    13   ar
@<TRIPOS>MOLECULE
*****
 25 27 0 0 0
SMALL
GASTEIGER

@<TRIPOS>ATOM
      1 C           7.0535   -4.7702   30.1039 C.ar    1  UNL1        0.1418
      2 C           7.5350   -5.9135   29.2607 C.ar    1  UNL1        0.0739
      3 C           7.4599   -5.8261   27.7651 C.ar    1  UNL1        0.1471
      4 C           6.9033   -4.5954   27.1128 C.ar    1  UNL1        0.0937
      5 C           6.8282   -4.5080   25.6172 C.ar    1  UNL1        0.2110
      6 C           7.3096   -5.6513   24.7740 C.3     1  UNL1        0.1084
      7 N           6.2716   -3.2773   24.9649 N.ar    1  UNL1       -0.1571
      8 C           5.7901   -2.1340   25.8081 C.ar    1  UNL1        0.2082
      9 C           5.2336   -0.9033   25.1557 C.3     1  UNL1        0.1083
     10 C           5.8653   -2.2213   27.3036 C.ar    1  UNL1        0.0652
     11 C           6.4219   -3.4521   27.9560 C.ar    1  UNL1        0.0169
     12 C           6.4970   -3.5395   29.4516 C.ar    1  UNL1        0.0375
     13 C           6.1965   -3.1899   23.4693 C.ar    1  UNL1        0.2306
     14 C           7.3631   -2.6598   22.6895 C.ar    1  UNL1        0.0694
     15 C           7.2880   -2.5724   21.1939 C.ar    1  UNL1        0.0018
     16 C           6.0463   -3.0151   20.4782 C.ar    1  UNL1       -0.0221
     17 C           4.8798   -3.5452   21.2580 C.ar    1  UNL1        0.0018
     18 C           4.9549   -3.6326   22.7536 C.ar    1  UNL1        0.0694
     19 C           5.9712   -2.9278   18.9826 C.3     1  UNL1        0.0224
     20 C           7.0000   -2.1422   18.2246 C.3     1  UNL1        0.0047
     21 C           4.8673   -3.6258   18.2450 C.3     1  UNL1        0.0047
     22 C           6.5100   -3.7845   32.4455 C.3     1  UNL1        0.2525
     23 O           7.1286   -4.8576   31.5995 O.3     1  UNL1       -0.4713
     24 O           7.9413   -6.9695   26.9219 O.3     1  UNL1       -0.4711
     25 C           8.3042   -8.2750   27.5652 C.3     1  UNL1        0.2525
@<TRIPOS>UNITY_ATOM_ATTR
7 1
charge 1
@<TRIPOS>BOND
     1    22    23    1
     2    23     1    1
     3     1     2   ar
     4     2     3   ar
     5     3    24    1
     6    24    25    1
     7     3     4   ar
     8     4     5   ar
     9     5     6    1
    10     5     7   ar
    11     7    13    1
    12    13    14   ar
    13    14    15   ar
    14    15    16   ar
    15    16    19    1
    16    19    20    1
    17    19    21    1
    18    16    17   ar
    19    17    18   ar
    20     7     8   ar
    21     8     9    1
    22     8    10   ar
    23    10    11   ar
    24    11    12   ar
    25    12     1   ar
    26    11     4   ar
    27    18    13   ar
@<TRIPOS>MOLECULE
*****
 25 27 0 0 0
SMALL
GASTEIGER

@<TRIPOS>ATOM
      1 C           7.7789   -5.2988   27.3613 C.ar    1  UNL1        0.1418
      2 C           8.0405   -6.0169   26.0706 C.ar    1  UNL1        0.0739
      3 C           7.5400   -5.4432   24.7782 C.ar    1  UNL1        0.1471
      4 C           6.7778   -4.1513   24.7765 C.ar    1  UNL1        0.0937
      5 C           6.2773   -3.5775   23.4841 C.ar    1  UNL1        0.2110
      6 C           6.5389   -4.2957   22.1935 C.3     1  UNL1        0.1084
      7 N           5.5151   -2.2856   23.4823 N.ar    1  UNL1       -0.1571
      8 C           5.2535   -1.5674   24.7730 C.ar    1  UNL1        0.2082
      9 C           4.4913   -0.2755   24.7712 C.3     1  UNL1        0.1083
     10 C           5.7540   -2.1411   26.0654 C.ar    1  UNL1        0.0652
     11 C           6.5162   -3.4331   26.0671 C.ar    1  UNL1        0.0169
     12 C           7.0167   -4.0069   27.3595 C.ar    1  UNL1        0.0375
     13 C           5.0146   -1.7118   22.1899 C.ar    1  UNL1        0.2306
     14 C           5.9220   -0.8715   21.3411 C.ar    1  UNL1        0.0694
     15 C           5.4215   -0.2977   20.0487 C.ar    1  UNL1        0.0018
     16 C           4.0135   -0.5643   19.6052 C.ar    1  UNL1       -0.0221
     17 C           3.1062   -1.4046   20.4540 C.ar    1  UNL1        0.0018
     18 C           3.6067   -1.9784   21.7464 C.ar    1  UNL1        0.0694
     19 C           3.5130    0.0094   18.3128 C.3     1  UNL1        0.0224
     20 C           2.6764    1.2545   18.3190 C.3     1  UNL1        0.0047
     21 C           3.8491   -0.6618   17.0141 C.3     1  UNL1        0.0047
     22 C           7.3910   -5.8861   29.8622 C.3     1  UNL1        0.2525
     23 O           8.2794   -5.8726   28.6537 O.3     1  UNL1       -0.4713
     24 O           7.8016   -6.1614   23.4876 O.3     1  UNL1       -0.4711
     25 C           8.7745   -7.3024   23.4481 C.3     1  UNL1        0.2525
@<TRIPOS>UNITY_ATOM_ATTR
7 1
charge 1
@<TRIPOS>BOND
     1    22    23    1
     2    23     1    1
     3     1     2   ar
     4     2     3   ar
     5     3    24    1
     6    24    25    1
     7     3     4   ar
     8     4     5   ar
     9     5     6    1
    10     5     7   ar
    11     7    13    1
    12    13    14   ar
    13    14    15   ar
    14    15    16   ar
    15    16    19    1
    16    19    20    1
    17    19    21    1
    18    16    17   ar
    19    17    18   ar
    20     7     8   ar
    21     8     9    1
    22     8    10   ar
    23    10    11   ar
    24    11    12   ar
    25    12     1   ar
    26    11     4   ar
    27    18    13   ar
@<TRIPOS>MOLECULE
*****
 25 27 0 0 0
SMALL
GASTEIGER

@<TRIPOS>ATOM
      1 C          -2.2816    3.7177   24.8992 C.ar    1  UNL1        0.1418
      2 C          -2.4380    4.0212   23.4386 C.ar    1  UNL1        0.0739
      3 C          -1.5020    3.4067   22.4404 C.ar    1  UNL1        0.1471
      4 C          -0.4097    2.4886   22.9029 C.ar    1  UNL1        0.0937
      5 C           0.5263    1.8740   21.9048 C.ar    1  UNL1        0.2110
      6 C           0.3699    2.1775   20.4442 C.3     1  UNL1        0.1084
      7 N           1.6186    0.9560   22.3672 N.ar    1  UNL1       -0.1571
      8 C           1.7750    0.6524   23.8279 C.ar    1  UNL1        0.2082
      9 C           2.8674   -0.2656   24.2904 C.3     1  UNL1        0.1083
     10 C           0.8390    1.2670   24.8260 C.ar    1  UNL1        0.0652
     11 C          -0.2533    2.1851   24.3635 C.ar    1  UNL1        0.0169
     12 C          -1.1893    2.7997   25.3616 C.ar    1  UNL1        0.0375
     13 C           2.5546    0.3414   21.3691 C.ar    1  UNL1        0.2306
     14 C           3.8455    1.0265   21.0307 C.ar    1  UNL1        0.0694
     15 C           4.7814    0.4119   20.0325 C.ar    1  UNL1        0.0018
     16 C           4.4266   -0.8877   19.3729 C.ar    1  UNL1       -0.0221
     17 C           3.1358   -1.5727   19.7113 C.ar    1  UNL1        0.0018
     18 C           2.1998   -0.9581   20.7094 C.ar    1  UNL1        0.0694
     19 C           5.3625   -1.5023   18.3747 C.3     1  UNL1        0.0224
     20 C           6.2463   -0.6263   17.5370 C.3     1  UNL1        0.0047
     21 C           5.4148   -2.9927   18.2143 C.3     1  UNL1        0.0047
     22 C          -4.6833    4.0178   25.8436 C.3     1  UNL1        0.2525
     23 O          -3.2176    4.3323   25.8973 O.3     1  UNL1       -0.4713
     24 O          -1.6584    3.7102   20.9798 O.3     1  UNL1       -0.4711
     25 C          -2.9986    3.5628   20.3224 C.3     1  UNL1        0.2525
@<TRIPOS>UNITY_ATOM_ATTR
7 1
charge 1
@<TRIPOS>BOND
     1    22    23    1
     2    23     1    1
     3     1     2   ar
     4     2     3   ar
     5     3    24    1
     6    24    25    1
     7     3     4   ar
     8     4     5   ar
     9     5     6    1
    10     5     7   ar
    11     7    13    1
    12    13    14   ar
    13    14    15   ar
    14    15    16   ar
    15    16    19    1
    16    19    20    1
    17    19    21    1
    18    16    17   ar
    19    17    18   ar
    20     7     8   ar
    21     8     9    1
    22     8    10   ar
    23    10    11   ar
    24    11    12   ar
    25    12     1   ar
    26    11     4   ar
    27    18    13   ar
