@<TRIPOS>MOLECULE
*****
 28 30 0 0 0
SMALL
GASTEIGER

@<TRIPOS>ATOM
      1 C          -9.8740  -18.3287   22.7755 C.3     1  UNL1        0.0391
      2 C         -10.6017  -19.0482   21.6788 C.3     1  UNL1        0.0075
      3 C          -9.8456  -19.5677   20.4920 C.3     1  UNL1        0.0219
      4 C          -8.3617  -19.3676   20.4020 C.3     1  UNL1        0.0950
      5 N          -7.6340  -18.6482   21.4987 N.am    1  UNL1       -0.2636
      6 C          -6.1501  -18.4481   21.4086 C.2     1  UNL1        0.3077
      7 O          -5.4224  -17.7286   22.5054 O.2     1  UNL1       -0.2522
      8 N          -5.3939  -18.9676   20.2219 N.am    1  UNL1       -0.2681
      9 C          -8.3901  -18.1287   22.6854 C.3     1  UNL1        0.0989
     10 H          -5.8715  -19.4398   19.5021 H       1  UNL1        0.1564
     11 C          -3.9101  -18.7675   20.1319 C.ar    1  UNL1        0.0516
     12 C          -3.3337  -17.9076   19.0463 C.ar    1  UNL1        0.0156
     13 C          -1.8500  -17.7075   18.9562 C.ar    1  UNL1        0.0127
     14 C          -0.9424  -18.3672   19.9518 C.ar    1  UNL1        0.0578
     15 CL          0.5415  -18.1671   19.8618 Cl      1  UNL1       -0.0822
     16 C          -1.5187  -19.2271   21.0374 C.ar    1  UNL1        0.0127
     17 C          -3.0026  -19.4272   21.1274 C.ar    1  UNL1        0.0156
     18 C         -11.2741  -18.2721   23.3110 C.ar    1  UNL1       -0.0020
     19 C         -12.3551  -17.6030   22.5150 C.ar    1  UNL1       -0.0011
     20 C         -13.7550  -17.5464   23.0505 C.ar    1  UNL1        0.0204
     21 C         -14.0740  -18.1587   24.3822 C.ar    1  UNL1        0.0989
     22 N         -12.9930  -18.8278   25.1783 N.ar    1  UNL1       -0.2426
     23 C         -11.5930  -18.8844   24.6427 C.ar    1  UNL1        0.0946
     24 C          -9.6325  -17.5896   24.0582 C.3     1  UNL1        0.0117
     25 C          -9.3262  -16.1215   24.0316 C.3     1  UNL1        0.0421
     26 O          -7.0060  -15.0234   24.4327 O.co2   1  UNL1       -0.5492
     27 C          -8.3033  -15.5516   24.9692 C.2     1  UNL1        0.0503
     28 O          -8.5780  -15.5099   26.4433 O.co2   1  UNL1       -0.5492
@<TRIPOS>UNITY_ATOM_ATTR
26 1
charge -1
@<TRIPOS>BOND
     1    26    27   ar
     2    27    28   ar
     3    27    25    1
     4    25    24    1
     5    24     1    1
     6     1    18    1
     7    18    19   ar
     8    19    20   ar
     9    20    21   ar
    10    21    22   ar
    11    22    23   ar
    12     1     2    1
    13     2     3    1
    14     3     4    1
    15     4     5    1
    16     5     6   am
    17     6     7    2
    18     6     8   am
    19     8    11    1
    20    11    12   ar
    21    12    13   ar
    22    13    14   ar
    23    14    15    1
    24    14    16   ar
    25    16    17   ar
    26     5     9    1
    27     9     1    1
    28    23    18   ar
    29    17    11   ar
    30     8    10    1
@<TRIPOS>MOLECULE
*****
 28 30 0 0 0
SMALL
GASTEIGER

@<TRIPOS>ATOM
      1 C          -4.1983  -18.2520   21.3230 C.3     1  UNL1        0.0391
      2 C          -4.1830  -19.1971   20.1583 C.3     1  UNL1        0.0075
      3 C          -5.4440  -19.8947   19.7419 C.3     1  UNL1        0.0219
      4 C          -6.7202  -19.6471   20.4903 C.3     1  UNL1        0.0950
      5 N          -6.7354  -18.7020   21.6550 N.am    1  UNL1       -0.2636
      6 C          -8.0117  -18.4545   22.4033 C.2     1  UNL1        0.3077
      7 O          -8.0268  -17.5094   23.5680 O.2     1  UNL1       -0.2522
      8 N          -9.2726  -19.1521   21.9870 N.am    1  UNL1       -0.2681
      9 C          -5.4745  -18.0045   22.0713 C.3     1  UNL1        0.0989
     10 H          -9.2626  -19.7724   21.2225 H       1  UNL1        0.1564
     11 C         -10.5488  -18.9045   22.7354 C.ar    1  UNL1        0.0516
     12 C         -10.7039  -19.4072   24.1402 C.ar    1  UNL1        0.0156
     13 C         -11.9800  -19.1597   24.8886 C.ar    1  UNL1        0.0127
     14 C         -13.1010  -18.4095   24.2323 C.ar    1  UNL1        0.0578
     15 CL        -14.3772  -18.1619   24.9808 Cl      1  UNL1       -0.0822
     16 C         -12.9459  -17.9068   22.8276 C.ar    1  UNL1        0.0127
     17 C         -11.6697  -18.1543   22.0791 C.ar    1  UNL1        0.0156
     18 C          -2.7530  -18.1602   20.9320 C.ar    1  UNL1       -0.0020
     19 C          -2.0527  -16.8339   20.9546 C.ar    1  UNL1       -0.0011
     20 C          -0.6075  -16.7422   20.5636 C.ar    1  UNL1        0.0204
     21 C           0.1374  -17.9767   20.1500 C.ar    1  UNL1        0.0989
     22 N          -0.5629  -19.3030   20.1274 N.ar    1  UNL1       -0.2426
     23 C          -2.0081  -19.3947   20.5184 C.ar    1  UNL1        0.0946
     24 C          -3.7116  -17.2750   22.3519 C.3     1  UNL1        0.0117
     25 C          -4.5956  -16.8948   23.5024 C.3     1  UNL1        0.0421
     26 O          -4.6005  -14.4134   22.7325 O.co2   1  UNL1       -0.5492
     27 C          -4.8873  -15.4495   23.7785 C.2     1  UNL1        0.0503
     28 O          -5.4658  -15.0405   25.1007 O.co2   1  UNL1       -0.5492
@<TRIPOS>UNITY_ATOM_ATTR
26 1
charge -1
@<TRIPOS>BOND
     1    26    27   ar
     2    27    28   ar
     3    27    25    1
     4    25    24    1
     5    24     1    1
     6     1    18    1
     7    18    19   ar
     8    19    20   ar
     9    20    21   ar
    10    21    22   ar
    11    22    23   ar
    12     1     2    1
    13     2     3    1
    14     3     4    1
    15     4     5    1
    16     5     6   am
    17     6     7    2
    18     6     8   am
    19     8    11    1
    20    11    12   ar
    21    12    13   ar
    22    13    14   ar
    23    14    15    1
    24    14    16   ar
    25    16    17   ar
    26     5     9    1
    27     9     1    1
    28    23    18   ar
    29    17    11   ar
    30     8    10    1
@<TRIPOS>MOLECULE
*****
 28 30 0 0 0
SMALL
GASTEIGER

@<TRIPOS>ATOM
      1 C          -9.6614  -17.9289   23.2739 C.3     1  UNL1        0.0391
      2 C          -9.7228  -16.9347   24.3954 C.3     1  UNL1        0.0075
      3 C          -8.4783  -16.2219   24.8347 C.3     1  UNL1        0.0219
      4 C          -7.1723  -16.5033   24.1524 C.3     1  UNL1        0.0950
      5 N          -7.1110  -17.4974   23.0310 N.am    1  UNL1       -0.2636
      6 C          -5.8050  -17.7788   22.3487 C.2     1  UNL1        0.3077
      7 O          -5.7437  -18.7730   21.2272 O.2     1  UNL1       -0.2522
      8 N          -4.5605  -17.0660   22.7880 N.am    1  UNL1       -0.2681
      9 C          -8.3555  -18.2103   22.5917 C.3     1  UNL1        0.0989
     10 H          -4.6008  -16.4134   23.5241 H       1  UNL1        0.1564
     11 C          -3.2547  -17.3474   22.1058 C.ar    1  UNL1        0.0516
     12 C          -2.3854  -16.2120   21.6524 C.ar    1  UNL1        0.0156
     13 C          -1.0796  -16.4933   20.9702 C.ar    1  UNL1        0.0127
     14 C          -0.6429  -17.9100   20.7412 C.ar    1  UNL1        0.0578
     15 CL          0.6630  -18.1914   20.0589 Cl      1  UNL1       -0.0822
     16 C          -1.5121  -19.0454   21.1945 C.ar    1  UNL1        0.0127
     17 C          -2.8180  -18.7640   21.8768 C.ar    1  UNL1        0.0156
     18 C         -11.1223  -18.0016   23.6068 C.ar    1  UNL1       -0.0020
     19 C         -12.1251  -17.3018   22.7382 C.ar    1  UNL1       -0.0011
     20 C         -13.5859  -17.3745   23.0711 C.ar    1  UNL1        0.0204
     21 C         -14.0438  -18.1471   24.2726 C.ar    1  UNL1        0.0989
     22 N         -13.0409  -18.8469   25.1411 N.ar    1  UNL1       -0.2426
     23 C         -11.5802  -18.7742   24.8082 C.ar    1  UNL1        0.0946
     24 C         -10.1074  -18.9484   22.2680 C.3     1  UNL1        0.0117
     25 C          -9.2868  -19.1964   21.0371 C.3     1  UNL1        0.0421
     26 O         -11.0952  -18.3189   19.3909 O.co2   1  UNL1       -0.5492
     27 C          -9.9473  -19.2367   19.6909 C.2     1  UNL1        0.0503
     28 O          -9.4599  -20.1948   18.6448 O.co2   1  UNL1       -0.5492
@<TRIPOS>UNITY_ATOM_ATTR
26 1
charge -1
@<TRIPOS>BOND
     1    26    27   ar
     2    27    28   ar
     3    27    25    1
     4    25    24    1
     5    24     1    1
     6     1    18    1
     7    18    19   ar
     8    19    20   ar
     9    20    21   ar
    10    21    22   ar
    11    22    23   ar
    12     1     2    1
    13     2     3    1
    14     3     4    1
    15     4     5    1
    16     5     6   am
    17     6     7    2
    18     6     8   am
    19     8    11    1
    20    11    12   ar
    21    12    13   ar
    22    13    14   ar
    23    14    15    1
    24    14    16   ar
    25    16    17   ar
    26     5     9    1
    27     9     1    1
    28    23    18   ar
    29    17    11   ar
    30     8    10    1
@<TRIPOS>MOLECULE
*****
 28 30 0 0 0
SMALL
GASTEIGER

@<TRIPOS>ATOM
      1 C           3.7501   -1.4964   21.8527 C.3     1  UNL1        0.0391
      2 C           2.9441   -0.4624   22.5814 C.3     1  UNL1        0.0075
      3 C           3.0625   -0.3320   24.0711 C.3     1  UNL1        0.0219
      4 C           3.9869   -1.2357   24.8319 C.3     1  UNL1        0.0950
      5 N           4.7928   -2.2698   24.1032 N.am    1  UNL1       -0.2636
      6 C           5.7171   -3.1735   24.8641 C.2     1  UNL1        0.3077
      7 O           6.5231   -4.2076   24.1352 O.2     1  UNL1       -0.2522
      8 N           5.8355   -3.0431   26.3537 N.am    1  UNL1       -0.2681
      9 C           4.6744   -2.4002   22.6136 C.3     1  UNL1        0.0989
     10 H           5.3065   -2.3644   26.8320 H       1  UNL1        0.1564
     11 C           6.7598   -3.9469   27.1145 C.ar    1  UNL1        0.0516
     12 C           8.2399   -3.7046   27.0827 C.ar    1  UNL1        0.0156
     13 C           9.1642   -4.6083   27.8434 C.ar    1  UNL1        0.0127
     14 C           8.6087   -5.7543   28.6360 C.ar    1  UNL1        0.0578
     15 CL          9.5332   -6.6580   29.3967 Cl      1  UNL1       -0.0822
     16 C           7.1288   -5.9966   28.6678 C.ar    1  UNL1        0.0127
     17 C           6.2043   -5.0928   27.9070 C.ar    1  UNL1        0.0156
     18 C           3.0172   -0.8771   20.6996 C.ar    1  UNL1       -0.0020
     19 C           1.5484   -0.5940   20.8096 C.ar    1  UNL1       -0.0011
     20 C           0.8156    0.0253   19.6565 C.ar    1  UNL1        0.0204
     21 C           1.5518    0.3614   18.3935 C.ar    1  UNL1        0.0989
     22 N           3.0206    0.0782   18.2836 N.ar    1  UNL1       -0.2426
     23 C           3.7534   -0.5411   19.4366 C.ar    1  UNL1        0.0946
     24 C           4.3015   -2.3155   20.7235 C.3     1  UNL1        0.0117
     25 C           4.3666   -3.8093   20.8424 C.3     1  UNL1        0.0421
     26 O           2.7416   -4.4315   18.9132 O.co2   1  UNL1       -0.5492
     27 C           4.0167   -4.6713   19.6658 C.2     1  UNL1        0.0503
     28 O           4.9421   -5.7731   19.2418 O.co2   1  UNL1       -0.5492
@<TRIPOS>UNITY_ATOM_ATTR
26 1
charge -1
@<TRIPOS>BOND
     1    26    27   ar
     2    27    28   ar
     3    27    25    1
     4    25    24    1
     5    24     1    1
     6     1    18    1
     7    18    19   ar
     8    19    20   ar
     9    20    21   ar
    10    21    22   ar
    11    22    23   ar
    12     1     2    1
    13     2     3    1
    14     3     4    1
    15     4     5    1
    16     5     6   am
    17     6     7    2
    18     6     8   am
    19     8    11    1
    20    11    12   ar
    21    12    13   ar
    22    13    14   ar
    23    14    15    1
    24    14    16   ar
    25    16    17   ar
    26     5     9    1
    27     9     1    1
    28    23    18   ar
    29    17    11   ar
    30     8    10    1
@<TRIPOS>MOLECULE
*****
 28 30 0 0 0
SMALL
GASTEIGER

@<TRIPOS>ATOM
      1 C           3.6116   -1.1794   21.4796 C.3     1  UNL1        0.0391
      2 C           3.0851   -0.2461   22.5292 C.3     1  UNL1        0.0075
      3 C           3.4299   -0.4687   23.9720 C.3     1  UNL1        0.0219
      4 C           4.3011   -1.6248   24.3651 C.3     1  UNL1        0.0950
      5 N           4.8276   -2.5581   23.3155 N.am    1  UNL1       -0.2636
      6 C           5.6989   -3.7141   23.7086 C.2     1  UNL1        0.3077
      7 O           6.2254   -4.6474   22.6590 O.2     1  UNL1       -0.2522
      8 N           6.0437   -3.9368   25.1514 N.am    1  UNL1       -0.2681
      9 C           4.4829   -2.3354   21.8727 C.3     1  UNL1        0.0989
     10 H           5.6981   -3.3242   25.8403 H       1  UNL1        0.1564
     11 C           6.9149   -5.0928   25.5444 C.ar    1  UNL1        0.0516
     12 C           6.5451   -5.9439   26.7231 C.ar    1  UNL1        0.0156
     13 C           7.4163   -7.0998   27.1161 C.ar    1  UNL1        0.0127
     14 C           8.6573   -7.4049   26.3307 C.ar    1  UNL1        0.0578
     15 CL          9.5285   -8.5610   26.7238 Cl      1  UNL1       -0.0822
     16 C           9.0271   -6.5539   25.1521 C.ar    1  UNL1        0.0127
     17 C           8.1559   -5.3978   24.7590 C.ar    1  UNL1        0.0156
     18 C           2.8288   -0.2334   20.6180 C.ar    1  UNL1       -0.0020
     19 C           3.4493    1.0537   20.1616 C.ar    1  UNL1       -0.0011
     20 C           2.6664    1.9996   19.3000 C.ar    1  UNL1        0.0204
     21 C           1.2631    1.6584   18.8948 C.ar    1  UNL1        0.0989
     22 N           0.6426    0.3714   19.3512 N.ar    1  UNL1       -0.2426
     23 C           1.4254   -0.5745   20.2128 C.ar    1  UNL1        0.0946
     24 C           3.8662   -1.7842   20.1307 C.3     1  UNL1        0.0117
     25 C           3.9748   -3.2730   19.9848 C.3     1  UNL1        0.0421
     26 O           5.3871   -2.9647   17.8260 O.co2   1  UNL1       -0.5492
     27 C           4.6769   -3.8610   18.7967 C.2     1  UNL1        0.0503
     28 O           4.6686   -5.3451   18.5794 O.co2   1  UNL1       -0.5492
@<TRIPOS>UNITY_ATOM_ATTR
26 1
charge -1
@<TRIPOS>BOND
     1    26    27   ar
     2    27    28   ar
     3    27    25    1
     4    25    24    1
     5    24     1    1
     6     1    18    1
     7    18    19   ar
     8    19    20   ar
     9    20    21   ar
    10    21    22   ar
    11    22    23   ar
    12     1     2    1
    13     2     3    1
    14     3     4    1
    15     4     5    1
    16     5     6   am
    17     6     7    2
    18     6     8   am
    19     8    11    1
    20    11    12   ar
    21    12    13   ar
    22    13    14   ar
    23    14    15    1
    24    14    16   ar
    25    16    17   ar
    26     5     9    1
    27     9     1    1
    28    23    18   ar
    29    17    11   ar
    30     8    10    1
@<TRIPOS>MOLECULE
*****
 28 30 0 0 0
SMALL
GASTEIGER

@<TRIPOS>ATOM
      1 C           3.1608   -1.1292   21.4324 C.3     1  UNL1        0.0391
      2 C           3.2600   -0.8360   22.9001 C.3     1  UNL1        0.0075
      3 C           2.3508    0.1803   23.5250 C.3     1  UNL1        0.0219
      4 C           1.3423    0.9033   22.6822 C.3     1  UNL1        0.0950
      5 N           1.2431    0.6101   21.2145 N.am    1  UNL1       -0.2636
      6 C           0.2347    1.3331   20.3717 C.2     1  UNL1        0.3077
      7 O           0.1355    1.0399   18.9040 O.2     1  UNL1       -0.2522
      8 N          -0.6746    2.3494   20.9966 N.am    1  UNL1       -0.2681
      9 C           2.1523   -0.4062   20.5896 C.3     1  UNL1        0.0989
     10 H          -0.6095    2.5419   21.9599 H       1  UNL1        0.1564
     11 C          -1.6829    3.0724   20.1538 C.ar    1  UNL1        0.0516
     12 C          -1.2389    3.8293   18.9372 C.ar    1  UNL1        0.0156
     13 C          -2.2472    4.5523   18.0944 C.ar    1  UNL1        0.0127
     14 C          -3.6996    4.5184   18.4679 C.ar    1  UNL1        0.0578
     15 CL         -4.7080    5.2414   17.6250 Cl      1  UNL1       -0.0822
     16 C          -4.1436    3.7615   19.6845 C.ar    1  UNL1        0.0127
     17 C          -3.1352    3.0385   20.5274 C.ar    1  UNL1        0.0156
     18 C           4.2684   -2.0673   21.8111 C.ar    1  UNL1       -0.0020
     19 C           5.3434   -1.6162   22.7549 C.ar    1  UNL1       -0.0011
     20 C           6.4509   -2.5542   23.1336 C.ar    1  UNL1        0.0204
     21 C           6.4834   -3.9433   22.5685 C.ar    1  UNL1        0.0989
     22 N           5.4084   -4.3944   21.6247 N.ar    1  UNL1       -0.2426
     23 C           4.3009   -3.4563   21.2460 C.ar    1  UNL1        0.0946
     24 C           3.4462   -1.7482   20.0962 C.3     1  UNL1        0.0117
     25 C           3.6823   -0.8746   18.9000 C.3     1  UNL1        0.0421
     26 O           5.3655   -2.4961   17.7651 O.co2   1  UNL1       -0.5492
     27 C           4.2932   -1.4527   17.6579 C.2     1  UNL1        0.0503
     28 O           3.8317   -0.9873   16.3086 O.co2   1  UNL1       -0.5492
@<TRIPOS>UNITY_ATOM_ATTR
26 1
charge -1
@<TRIPOS>BOND
     1    26    27   ar
     2    27    28   ar
     3    27    25    1
     4    25    24    1
     5    24     1    1
     6     1    18    1
     7    18    19   ar
     8    19    20   ar
     9    20    21   ar
    10    21    22   ar
    11    22    23   ar
    12     1     2    1
    13     2     3    1
    14     3     4    1
    15     4     5    1
    16     5     6   am
    17     6     7    2
    18     6     8   am
    19     8    11    1
    20    11    12   ar
    21    12    13   ar
    22    13    14   ar
    23    14    15    1
    24    14    16   ar
    25    16    17   ar
    26     5     9    1
    27     9     1    1
    28    23    18   ar
    29    17    11   ar
    30     8    10    1
@<TRIPOS>MOLECULE
*****
 28 30 0 0 0
SMALL
GASTEIGER

@<TRIPOS>ATOM
      1 C           6.9965   -4.5400   26.5242 C.3     1  UNL1        0.0391
      2 C           6.6978   -3.4369   27.4958 C.3     1  UNL1        0.0075
      3 C           6.0668   -2.1641   27.0145 C.3     1  UNL1        0.0219
      4 C           5.7345   -1.9943   25.5616 C.3     1  UNL1        0.0950
      5 N           6.0332   -3.0974   24.5901 N.am    1  UNL1       -0.2636
      6 C           5.7009   -2.9276   23.1372 C.2     1  UNL1        0.3077
      7 O           5.9997   -4.0308   22.1657 O.2     1  UNL1       -0.2522
      8 N           5.0699   -1.6548   22.6559 N.am    1  UNL1       -0.2681
      9 C           6.6642   -4.3702   25.0713 C.3     1  UNL1        0.0989
     10 H           4.8738   -0.9308   23.2936 H       1  UNL1        0.1564
     11 C           4.7376   -1.4851   21.2031 C.ar    1  UNL1        0.0516
     12 C           5.8284   -1.2060   20.2119 C.ar    1  UNL1        0.0156
     13 C           5.4963   -1.0364   18.7591 C.ar    1  UNL1        0.0127
     14 C           4.0733   -1.1457   18.2973 C.ar    1  UNL1        0.0578
     15 CL          3.7411   -0.9760   16.8444 Cl      1  UNL1       -0.0822
     16 C           2.9825   -1.4247   19.2884 C.ar    1  UNL1        0.0127
     17 C           3.3147   -1.5944   20.7413 C.ar    1  UNL1        0.0156
     18 C           7.4924   -5.1687   27.7927 C.ar    1  UNL1       -0.0020
     19 C           8.9275   -5.5892   27.9102 C.ar    1  UNL1       -0.0011
     20 C           9.4233   -6.2179   29.1786 C.ar    1  UNL1        0.0204
     21 C           8.4841   -6.4261   30.3294 C.ar    1  UNL1        0.0989
     22 N           7.0490   -6.0057   30.2119 N.ar    1  UNL1       -0.2426
     23 C           6.5532   -5.3770   28.9435 C.ar    1  UNL1        0.0946
     24 C           7.4675   -5.8614   25.9931 C.3     1  UNL1        0.0117
     25 C           7.7455   -6.0250   24.5283 C.3     1  UNL1        0.0421
     26 O           8.6359   -7.4887   22.5751 O.co2   1  UNL1       -0.5492
     27 C           8.5494   -7.1950   24.0435 C.2     1  UNL1        0.0503
     28 O           9.2668   -8.0711   25.0272 O.co2   1  UNL1       -0.5492
@<TRIPOS>UNITY_ATOM_ATTR
26 1
charge -1
@<TRIPOS>BOND
     1    26    27   ar
     2    27    28   ar
     3    27    25    1
     4    25    24    1
     5    24     1    1
     6     1    18    1
     7    18    19   ar
     8    19    20   ar
     9    20    21   ar
    10    21    22   ar
    11    22    23   ar
    12     1     2    1
    13     2     3    1
    14     3     4    1
    15     4     5    1
    16     5     6   am
    17     6     7    2
    18     6     8   am
    19     8    11    1
    20    11    12   ar
    21    12    13   ar
    22    13    14   ar
    23    14    15    1
    24    14    16   ar
    25    16    17   ar
    26     5     9    1
    27     9     1    1
    28    23    18   ar
    29    17    11   ar
    30     8    10    1
@<TRIPOS>MOLECULE
*****
 28 30 0 0 0
SMALL
GASTEIGER

@<TRIPOS>ATOM
      1 C          -9.6498  -17.7077   23.2327 C.3     1  UNL1        0.0391
      2 C          -9.7019  -16.7878   24.4163 C.3     1  UNL1        0.0075
      3 C          -8.4469  -16.1339   24.9138 C.3     1  UNL1        0.0219
      4 C          -7.1399  -16.4000   24.2275 C.3     1  UNL1        0.0950
      5 N          -7.0878  -17.3199   23.0439 N.am    1  UNL1       -0.2636
      6 C          -5.7808  -17.5860   22.3577 C.2     1  UNL1        0.3077
      7 O          -5.7288  -18.5059   21.1740 O.2     1  UNL1       -0.2522
      8 N          -4.5258  -16.9321   22.8551 N.am    1  UNL1       -0.2681
      9 C          -8.3428  -17.9738   22.5465 C.3     1  UNL1        0.0989
     10 H          -4.5599  -16.3283   23.6320 H       1  UNL1        0.1564
     11 C          -3.2188  -17.1982   22.1689 C.ar    1  UNL1        0.0516
     12 C          -2.7585  -18.6096   21.9535 C.ar    1  UNL1        0.0156
     13 C          -1.4517  -18.8757   21.2673 C.ar    1  UNL1        0.0127
     14 C          -0.6049  -17.7306   20.7964 C.ar    1  UNL1        0.0578
     15 CL          0.7021  -17.9968   20.1101 Cl      1  UNL1       -0.0822
     16 C          -1.0651  -16.3193   21.0117 C.ar    1  UNL1        0.0127
     17 C          -2.3721  -16.0531   21.6980 C.ar    1  UNL1        0.0156
     18 C         -11.1157  -17.7685   23.5456 C.ar    1  UNL1       -0.0020
     19 C         -11.6051  -18.6131   24.6844 C.ar    1  UNL1       -0.0011
     20 C         -13.0708  -18.6739   24.9972 C.ar    1  UNL1        0.0204
     21 C         -14.0471  -17.8900   24.1712 C.ar    1  UNL1        0.0989
     22 N         -13.5577  -17.0453   23.0324 N.ar    1  UNL1       -0.2426
     23 C         -12.0920  -16.9846   22.7196 C.ar    1  UNL1        0.0946
     24 C         -10.1069  -18.6487   22.1577 C.3     1  UNL1        0.0117
     25 C          -9.9239  -20.1277   22.3281 C.3     1  UNL1        0.0421
     26 O          -9.3496  -21.0435   24.6906 O.co2   1  UNL1       -0.5492
     27 C          -8.9169  -20.6508   23.3091 C.2     1  UNL1        0.0503
     28 O          -7.4773  -20.7812   22.9085 O.co2   1  UNL1       -0.5492
@<TRIPOS>UNITY_ATOM_ATTR
26 1
charge -1
@<TRIPOS>BOND
     1    26    27   ar
     2    27    28   ar
     3    27    25    1
     4    25    24    1
     5    24     1    1
     6     1    18    1
     7    18    19   ar
     8    19    20   ar
     9    20    21   ar
    10    21    22   ar
    11    22    23   ar
    12     1     2    1
    13     2     3    1
    14     3     4    1
    15     4     5    1
    16     5     6   am
    17     6     7    2
    18     6     8   am
    19     8    11    1
    20    11    12   ar
    21    12    13   ar
    22    13    14   ar
    23    14    15    1
    24    14    16   ar
    25    16    17   ar
    26     5     9    1
    27     9     1    1
    28    23    18   ar
    29    17    11   ar
    30     8    10    1
@<TRIPOS>MOLECULE
*****
 28 30 0 0 0
SMALL
GASTEIGER

@<TRIPOS>ATOM
      1 C           3.4909   -0.8590   22.0488 C.3     1  UNL1        0.0391
      2 C           4.4207   -1.9972   22.3487 C.3     1  UNL1        0.0075
      3 C           4.7100   -2.3744   23.7713 C.3     1  UNL1        0.0219
      4 C           4.0695   -1.6134   24.8942 C.3     1  UNL1        0.0950
      5 N           3.1397   -0.4752   24.5943 N.am    1  UNL1       -0.2636
      6 C           2.4992    0.2858   25.7171 C.2     1  UNL1        0.3077
      7 O           1.5694    1.4240   25.4172 O.2     1  UNL1       -0.2522
      8 N           2.7885   -0.0915   27.1398 N.am    1  UNL1       -0.2681
      9 C           2.8504   -0.0980   23.1716 C.3     1  UNL1        0.0989
     10 H           3.3988   -0.8385   27.3366 H       1  UNL1        0.1564
     11 C           2.1480    0.6695   28.2625 C.ar    1  UNL1        0.0516
     12 C           0.7255    0.3859   28.6452 C.ar    1  UNL1        0.0156
     13 C           0.0850    1.1468   29.7678 C.ar    1  UNL1        0.0127
     14 C           0.8667    2.1915   30.5079 C.ar    1  UNL1        0.0578
     15 CL          0.2261    2.9525   31.6307 Cl      1  UNL1       -0.0822
     16 C           2.2891    2.4751   30.1253 C.ar    1  UNL1        0.0127
     17 C           2.9297    1.7141   29.0025 C.ar    1  UNL1        0.0156
     18 C           3.8521   -1.2748   20.6535 C.ar    1  UNL1       -0.0020
     19 C           3.5771   -2.6758   20.1936 C.ar    1  UNL1       -0.0011
     20 C           3.9383   -3.0916   18.7984 C.ar    1  UNL1        0.0204
     21 C           4.5743   -2.1063   17.8631 C.ar    1  UNL1        0.0989
     22 N           4.8492   -0.7053   18.3230 N.ar    1  UNL1       -0.2426
     23 C           4.4881   -0.2896   19.7183 C.ar    1  UNL1        0.0946
     24 C           2.6865    0.1348   21.2644 C.3     1  UNL1        0.0117
     25 C           1.1908    0.0279   21.2285 C.3     1  UNL1        0.0421
     26 O           0.7516    0.5154   18.7146 O.co2   1  UNL1       -0.5492
     27 C           0.4136    0.7368   20.1591 C.2     1  UNL1        0.0503
     28 O          -0.7015    1.6672   20.5345 O.co2   1  UNL1       -0.5492
@<TRIPOS>UNITY_ATOM_ATTR
26 1
charge -1
@<TRIPOS>BOND
     1    26    27   ar
     2    27    28   ar
     3    27    25    1
     4    25    24    1
     5    24     1    1
     6     1    18    1
     7    18    19   ar
     8    19    20   ar
     9    20    21   ar
    10    21    22   ar
    11    22    23   ar
    12     1     2    1
    13     2     3    1
    14     3     4    1
    15     4     5    1
    16     5     6   am
    17     6     7    2
    18     6     8   am
    19     8    11    1
    20    11    12   ar
    21    12    13   ar
    22    13    14   ar
    23    14    15    1
    24    14    16   ar
    25    16    17   ar
    26     5     9    1
    27     9     1    1
    28    23    18   ar
    29    17    11   ar
    30     8    10    1
