@<TRIPOS>MOLECULE
*****
 30 33 0 0 0
SMALL
GASTEIGER

@<TRIPOS>ATOM
      1 C         -10.2413  -19.4795   20.4940 C.3     1  UNL1        0.0545
      2 C          -9.9261  -19.8284   19.0695 C.3     1  UNL1        0.0161
      3 C          -8.4359  -19.9384   18.9381 C.3     1  UNL1        0.0058
      4 C          -7.8301  -19.6574   20.2812 C.3     1  UNL1        0.0237
      5 C          -8.9458  -19.3738   21.2428 C.3     1  UNL1        0.0201
      6 C          -6.3657  -19.6596   20.6057 C.ar    1  UNL1       -0.0225
      7 C          -5.4131  -20.4605   19.7683 C.ar    1  UNL1       -0.0046
      8 C          -3.9487  -20.4628   20.0928 C.ar    1  UNL1       -0.0046
      9 C          -3.4367  -19.6641   21.2546 C.ar    1  UNL1       -0.0218
     10 C          -4.3892  -18.8631   22.0920 C.ar    1  UNL1       -0.0046
     11 C          -5.8537  -18.8609   21.7676 C.ar    1  UNL1       -0.0046
     12 C          -1.9721  -19.6663   21.5791 C.3     1  UNL1        0.0322
     13 C          -1.0439  -18.7303   20.8633 C.3     1  UNL1        0.0464
     14 C          -1.5840  -17.7747   19.8411 C.2     1  UNL1        0.0507
     15 O          -1.3382  -18.0195   18.3818 O.co2   1  UNL1       -0.5492
     16 O          -2.3699  -16.5742   20.2782 O.co2   1  UNL1       -0.5492
     17 N         -11.6113  -19.2726   21.0686 N.3     1  UNL1       -0.2962
     18 H         -12.2363  -19.0937   20.2827 H       1  UNL1        0.1235
     19 C         -12.9753  -17.2102   21.8663 C.3     1  UNL1        0.0220
     20 C         -11.8482  -18.1792   22.0679 C.3     1  UNL1        0.0768
     21 C         -10.9579  -18.0549   23.2687 C.ar    1  UNL1       -0.0080
     22 C         -11.2127  -18.8994   24.4819 C.ar    1  UNL1       -0.0030
     23 C         -10.3225  -18.7751   25.6827 C.ar    1  UNL1       -0.0003
     24 C          -9.1775  -17.8063   25.6704 C.ar    1  UNL1       -0.0000
     25 C          -8.9226  -16.9617   24.4572 C.ar    1  UNL1       -0.0003
     26 C          -7.7776  -15.9928   24.4449 C.ar    1  UNL1       -0.0000
     27 C          -7.5228  -15.1483   23.2318 C.ar    1  UNL1       -0.0000
     28 C          -8.4130  -15.2726   22.0309 C.ar    1  UNL1       -0.0000
     29 C          -9.5581  -16.2415   22.0432 C.ar    1  UNL1       -0.0003
     30 C          -9.8129  -17.0860   23.2564 C.ar    1  UNL1       -0.0027
@<TRIPOS>UNITY_ATOM_ATTR
15 1
charge -1
@<TRIPOS>BOND
     1    20    19    1
     2    20    17    1
     3     1    17    1
     4     1     2    1
     5     2     3    1
     6     3     4    1
     7     4     6    1
     8     6     7   ar
     9     7     8   ar
    10     8     9   ar
    11     9    12    1
    12    12    13    1
    13    13    14    1
    14    14    15   ar
    15    14    16   ar
    16     9    10   ar
    17    10    11   ar
    18     4     5    1
    19    20    21    1
    20    21    22   ar
    21    22    23   ar
    22    23    24   ar
    23    24    25   ar
    24    25    26   ar
    25    26    27   ar
    26    27    28   ar
    27    28    29   ar
    28    29    30   ar
    29     5     1    1
    30    30    21   ar
    31    11     6   ar
    32    30    25   ar
    33    17    18    1
@<TRIPOS>MOLECULE
*****
 30 33 0 0 0
SMALL
GASTEIGER

@<TRIPOS>ATOM
      1 C           5.4077   -2.8846   22.0319 C.3     1  UNL1        0.0545
      2 C           6.5334   -1.9885   22.4562 C.3     1  UNL1        0.0161
      3 C           5.9929   -1.0053   23.4519 C.3     1  UNL1        0.0058
      4 C           4.5334   -1.2937   23.6429 C.3     1  UNL1        0.0237
      5 C           4.1717   -2.4552   22.7653 C.3     1  UNL1        0.0201
      6 C           3.5995   -0.5511   24.5519 C.ar    1  UNL1       -0.0225
      7 C           3.8172   -0.5790   26.0358 C.ar    1  UNL1       -0.0046
      8 C           2.8833    0.1636   26.9449 C.ar    1  UNL1       -0.0046
      9 C           1.7319    0.9341   26.3701 C.ar    1  UNL1       -0.0218
     10 C           1.5143    0.9620   24.8862 C.ar    1  UNL1       -0.0046
     11 C           2.4481    0.2194   23.9771 C.ar    1  UNL1       -0.0046
     12 C           0.7980    1.6768   27.2792 C.3     1  UNL1        0.0322
     13 C          -0.5126    1.0621   27.6725 C.3     1  UNL1        0.0464
     14 C          -0.5513   -0.0237   28.7066 C.2     1  UNL1        0.0507
     15 O          -1.7374   -0.9381   28.7900 O.co2   1  UNL1       -0.5492
     16 O           0.5962   -0.1951   29.6574 O.co2   1  UNL1       -0.5492
     17 N           5.5017   -4.0121   21.0470 N.3     1  UNL1       -0.2962
     18 H           6.4911   -4.2432   20.9575 H       1  UNL1        0.1235
     19 C           4.3349   -4.9972   18.9450 C.3     1  UNL1        0.0220
     20 C           4.9698   -3.8386   19.6552 C.3     1  UNL1        0.0768
     21 C           5.0727   -2.5063   18.9737 C.ar    1  UNL1       -0.0080
     22 C           6.3112   -2.1503   18.2060 C.ar    1  UNL1       -0.0030
     23 C           6.4141   -0.8180   17.5245 C.ar    1  UNL1       -0.0003
     24 C           5.2786    0.1582   17.6107 C.ar    1  UNL1       -0.0000
     25 C           4.0401   -0.1977   18.3785 C.ar    1  UNL1       -0.0003
     26 C           2.9046    0.7786   18.4647 C.ar    1  UNL1       -0.0000
     27 C           1.6662    0.4226   19.2325 C.ar    1  UNL1       -0.0000
     28 C           1.5632   -0.9097   19.9140 C.ar    1  UNL1       -0.0000
     29 C           2.6987   -1.8860   19.8277 C.ar    1  UNL1       -0.0003
     30 C           3.9371   -1.5300   19.0600 C.ar    1  UNL1       -0.0027
@<TRIPOS>UNITY_ATOM_ATTR
15 1
charge -1
@<TRIPOS>BOND
     1    20    19    1
     2    20    17    1
     3     1    17    1
     4     1     2    1
     5     2     3    1
     6     3     4    1
     7     4     6    1
     8     6     7   ar
     9     7     8   ar
    10     8     9   ar
    11     9    12    1
    12    12    13    1
    13    13    14    1
    14    14    15   ar
    15    14    16   ar
    16     9    10   ar
    17    10    11   ar
    18     4     5    1
    19    20    21    1
    20    21    22   ar
    21    22    23   ar
    22    23    24   ar
    23    24    25   ar
    24    25    26   ar
    25    26    27   ar
    26    27    28   ar
    27    28    29   ar
    28    29    30   ar
    29     5     1    1
    30    30    21   ar
    31    11     6   ar
    32    30    25   ar
    33    17    18    1
@<TRIPOS>MOLECULE
*****
 30 33 0 0 0
SMALL
GASTEIGER

@<TRIPOS>ATOM
      1 C           5.5742   -4.0575   20.0061 C.3     1  UNL1        0.0545
      2 C           4.5219   -4.8332   19.2704 C.3     1  UNL1        0.0161
      3 C           3.3857   -3.9015   18.9682 C.3     1  UNL1        0.0058
      4 C           3.7359   -2.5502   19.5170 C.3     1  UNL1        0.0237
      5 C           5.0884   -2.6466   20.1584 C.3     1  UNL1        0.0201
      6 C           2.8832   -1.3187   19.4382 C.ar    1  UNL1       -0.0225
      7 C           3.1279   -0.3048   18.3601 C.ar    1  UNL1       -0.0046
      8 C           2.2752    0.9267   18.2812 C.ar    1  UNL1       -0.0046
      9 C           1.1779    1.1444   19.2804 C.ar    1  UNL1       -0.0218
     10 C           0.9332    0.1305   20.3585 C.ar    1  UNL1       -0.0046
     11 C           1.7858   -1.1010   20.4373 C.ar    1  UNL1       -0.0046
     12 C           0.3251    2.3760   19.2016 C.3     1  UNL1        0.0322
     13 C           0.0555    3.0177   17.8728 C.3     1  UNL1        0.0464
     14 C          -1.1958    3.8188   17.6670 C.2     1  UNL1        0.0507
     15 O          -1.6886    4.0965   16.2778 O.co2   1  UNL1       -0.5492
     16 O          -1.9544    4.3421   18.8505 O.co2   1  UNL1       -0.5492
     17 N           6.8825   -4.5980   20.5022 N.3     1  UNL1       -0.2962
     18 H           6.6966   -5.5336   20.8634 H       1  UNL1        0.1235
     19 C           8.6824   -2.8546   21.1885 C.3     1  UNL1        0.0220
     20 C           7.6408   -3.8648   21.5687 C.3     1  UNL1        0.0768
     21 C           7.3575   -4.1417   23.0154 C.ar    1  UNL1       -0.0080
     22 C           6.4919   -3.2035   23.8032 C.ar    1  UNL1       -0.0030
     23 C           6.2086   -3.4805   25.2499 C.ar    1  UNL1       -0.0003
     24 C           6.7907   -4.6957   25.9089 C.ar    1  UNL1       -0.0000
     25 C           7.6563   -5.6340   25.1212 C.ar    1  UNL1       -0.0003
     26 C           8.2385   -6.8492   25.7802 C.ar    1  UNL1       -0.0000
     27 C           9.1040   -7.7874   24.9924 C.ar    1  UNL1       -0.0000
     28 C           9.3874   -7.5104   23.5457 C.ar    1  UNL1       -0.0000
     29 C           8.8052   -6.2952   22.8867 C.ar    1  UNL1       -0.0003
     30 C           7.9397   -5.3570   23.6744 C.ar    1  UNL1       -0.0027
@<TRIPOS>UNITY_ATOM_ATTR
15 1
charge -1
@<TRIPOS>BOND
     1    20    19    1
     2    20    17    1
     3     1    17    1
     4     1     2    1
     5     2     3    1
     6     3     4    1
     7     4     6    1
     8     6     7   ar
     9     7     8   ar
    10     8     9   ar
    11     9    12    1
    12    12    13    1
    13    13    14    1
    14    14    15   ar
    15    14    16   ar
    16     9    10   ar
    17    10    11   ar
    18     4     5    1
    19    20    21    1
    20    21    22   ar
    21    22    23   ar
    22    23    24   ar
    23    24    25   ar
    24    25    26   ar
    25    26    27   ar
    26    27    28   ar
    27    28    29   ar
    28    29    30   ar
    29     5     1    1
    30    30    21   ar
    31    11     6   ar
    32    30    25   ar
    33    17    18    1
@<TRIPOS>MOLECULE
*****
 30 33 0 0 0
SMALL
GASTEIGER

@<TRIPOS>ATOM
      1 C           5.5134   -3.4069   19.7070 C.3     1  UNL1        0.0545
      2 C           5.6562   -3.0195   18.2648 C.3     1  UNL1        0.0161
      3 C           4.6600   -1.9361   17.9752 C.3     1  UNL1        0.0058
      4 C           3.9015   -1.6539   19.2382 C.3     1  UNL1        0.0237
      5 C           4.4290   -2.5630   20.3085 C.3     1  UNL1        0.0201
      6 C           2.8078   -0.6407   19.4021 C.ar    1  UNL1       -0.0225
      7 C           1.6824   -0.9002   20.3592 C.ar    1  UNL1       -0.0046
      8 C           0.5885    0.1130   20.5231 C.ar    1  UNL1       -0.0046
      9 C           0.6201    1.3857   19.7300 C.ar    1  UNL1       -0.0218
     10 C           1.7456    1.6452   18.7728 C.ar    1  UNL1       -0.0046
     11 C           2.8394    0.6320   18.6089 C.ar    1  UNL1       -0.0046
     12 C          -0.4737    2.3991   19.8939 C.3     1  UNL1        0.0322
     13 C          -0.8315    2.9020   21.2610 C.3     1  UNL1        0.0464
     14 C          -2.2124    3.4212   21.5315 C.2     1  UNL1        0.0507
     15 O          -2.4096    4.5750   22.4695 O.co2   1  UNL1       -0.5492
     16 O          -3.3963    2.7865   20.8640 O.co2   1  UNL1       -0.5492
     17 N           6.3144   -4.4544   20.4220 N.3     1  UNL1       -0.2962
     18 H           5.6540   -5.0097   20.9659 H       1  UNL1        0.1235
     19 C           8.6885   -3.4750   20.8151 C.3     1  UNL1        0.0220
     20 C           7.4135   -4.0485   21.3586 C.3     1  UNL1        0.0768
     21 C           7.2376   -4.2162   22.8388 C.ar    1  UNL1       -0.0080
     22 C           6.4321   -3.2178   23.6162 C.ar    1  UNL1       -0.0030
     23 C           6.2561   -3.3855   25.0964 C.ar    1  UNL1       -0.0003
     24 C           6.8857   -4.5515   25.7992 C.ar    1  UNL1       -0.0000
     25 C           7.6912   -5.5500   25.0218 C.ar    1  UNL1       -0.0003
     26 C           8.3208   -6.7160   25.7246 C.ar    1  UNL1       -0.0000
     27 C           9.1263   -7.7144   24.9472 C.ar    1  UNL1       -0.0000
     28 C           9.3023   -7.5467   23.4670 C.ar    1  UNL1       -0.0000
     29 C           8.6727   -6.3807   22.7642 C.ar    1  UNL1       -0.0003
     30 C           7.8672   -5.3823   23.5416 C.ar    1  UNL1       -0.0027
@<TRIPOS>UNITY_ATOM_ATTR
15 1
charge -1
@<TRIPOS>BOND
     1    20    19    1
     2    20    17    1
     3     1    17    1
     4     1     2    1
     5     2     3    1
     6     3     4    1
     7     4     6    1
     8     6     7   ar
     9     7     8   ar
    10     8     9   ar
    11     9    12    1
    12    12    13    1
    13    13    14    1
    14    14    15   ar
    15    14    16   ar
    16     9    10   ar
    17    10    11   ar
    18     4     5    1
    19    20    21    1
    20    21    22   ar
    21    22    23   ar
    22    23    24   ar
    23    24    25   ar
    24    25    26   ar
    25    26    27   ar
    26    27    28   ar
    27    28    29   ar
    28    29    30   ar
    29     5     1    1
    30    30    21   ar
    31    11     6   ar
    32    30    25   ar
    33    17    18    1
@<TRIPOS>MOLECULE
*****
 30 33 0 0 0
SMALL
GASTEIGER

@<TRIPOS>ATOM
      1 C          -0.7533    2.4725   20.3638 C.3     1  UNL1        0.0545
      2 C          -0.4221    3.0763   19.0312 C.3     1  UNL1        0.0161
      3 C           0.6527    2.2425   18.3989 C.3     1  UNL1        0.0058
      4 C           0.9857    1.1236   19.3407 C.3     1  UNL1        0.0237
      5 C           0.1168    1.2657   20.5550 C.3     1  UNL1        0.0201
      6 C           2.0082    0.0509   19.1088 C.ar    1  UNL1       -0.0225
      7 C           2.1388   -1.0836   20.0814 C.ar    1  UNL1       -0.0046
      8 C           3.1613   -2.1563   19.8495 C.ar    1  UNL1       -0.0046
      9 C           4.0532   -2.0946   18.6451 C.ar    1  UNL1       -0.0218
     10 C           3.9225   -0.9601   17.6724 C.ar    1  UNL1       -0.0046
     11 C           2.9001    0.1127   17.9043 C.ar    1  UNL1       -0.0046
     12 C           5.0757   -3.1673   18.4131 C.3     1  UNL1        0.0322
     13 C           5.4604   -4.0909   19.5307 C.3     1  UNL1        0.0464
     14 C           6.5667   -3.7116   20.4699 C.2     1  UNL1        0.0507
     15 O           7.0983   -4.7172   21.4477 O.co2   1  UNL1       -0.5492
     16 O           7.1415   -2.3266   20.4312 O.co2   1  UNL1       -0.5492
     17 N          -1.7752    2.9854   21.3347 N.3     1  UNL1       -0.2962
     18 H          -2.5267    3.3969   20.7812 H       1  UNL1        0.1235
     19 C          -0.4490    5.1183   21.9994 C.3     1  UNL1        0.0220
     20 C          -1.3866    4.0056   22.3635 C.3     1  UNL1        0.0768
     21 C          -1.9357    3.9129   23.7563 C.ar    1  UNL1       -0.0080
     22 C          -3.1505    4.7057   24.1379 C.ar    1  UNL1       -0.0030
     23 C          -3.6995    4.6130   25.5307 C.ar    1  UNL1       -0.0003
     24 C          -3.0337    3.7275   26.5420 C.ar    1  UNL1       -0.0000
     25 C          -1.8189    2.9347   26.1604 C.ar    1  UNL1       -0.0003
     26 C          -1.1531    2.0492   27.1716 C.ar    1  UNL1       -0.0000
     27 C           0.0617    1.2564   26.7900 C.ar    1  UNL1       -0.0000
     28 C           0.6108    1.3491   25.3972 C.ar    1  UNL1       -0.0000
     29 C          -0.0550    2.2346   24.3860 C.ar    1  UNL1       -0.0003
     30 C          -1.2698    3.0273   24.7676 C.ar    1  UNL1       -0.0027
@<TRIPOS>UNITY_ATOM_ATTR
15 1
charge -1
@<TRIPOS>BOND
     1    20    19    1
     2    20    17    1
     3     1    17    1
     4     1     2    1
     5     2     3    1
     6     3     4    1
     7     4     6    1
     8     6     7   ar
     9     7     8   ar
    10     8     9   ar
    11     9    12    1
    12    12    13    1
    13    13    14    1
    14    14    15   ar
    15    14    16   ar
    16     9    10   ar
    17    10    11   ar
    18     4     5    1
    19    20    21    1
    20    21    22   ar
    21    22    23   ar
    22    23    24   ar
    23    24    25   ar
    24    25    26   ar
    25    26    27   ar
    26    27    28   ar
    27    28    29   ar
    28    29    30   ar
    29     5     1    1
    30    30    21   ar
    31    11     6   ar
    32    30    25   ar
    33    17    18    1
@<TRIPOS>MOLECULE
*****
 30 33 0 0 0
SMALL
GASTEIGER

@<TRIPOS>ATOM
      1 C           6.0781   -3.6645   21.7516 C.3     1  UNL1        0.0545
      2 C           5.0110   -2.8386   22.4068 C.3     1  UNL1        0.0161
      3 C           5.1588   -2.9845   23.8924 C.3     1  UNL1        0.0058
      4 C           6.3171   -3.9006   24.1553 C.3     1  UNL1        0.0237
      5 C           6.8853   -4.3208   22.8322 C.3     1  UNL1        0.0201
      6 C           6.8191   -4.3223   25.5044 C.ar    1  UNL1       -0.0225
      7 C           6.8272   -3.3436   26.6411 C.ar    1  UNL1       -0.0046
      8 C           7.3292   -3.7652   27.9902 C.ar    1  UNL1       -0.0046
      9 C           7.8230   -5.1656   28.2027 C.ar    1  UNL1       -0.0218
     10 C           7.8148   -6.1443   27.0659 C.ar    1  UNL1       -0.0046
     11 C           7.3128   -5.7226   25.7168 C.ar    1  UNL1       -0.0046
     12 C           8.3250   -5.5873   29.5519 C.3     1  UNL1        0.0322
     13 C           8.1733   -4.6699   30.7289 C.3     1  UNL1        0.0464
     14 C           7.0525   -4.8795   31.7035 C.2     1  UNL1        0.0507
     15 O           6.3536   -3.6981   32.3082 O.co2   1  UNL1       -0.5492
     16 O           6.6306   -6.2706   32.0735 O.co2   1  UNL1       -0.5492
     17 N           6.2992   -3.8087   20.2750 N.3     1  UNL1       -0.2962
     18 H           7.0829   -3.2021   20.0339 H       1  UNL1        0.1235
     19 C           4.1805   -4.5358   18.9586 C.3     1  UNL1        0.0220
     20 C           5.1916   -3.4870   19.3158 C.3     1  UNL1        0.0768
     21 C           5.0952   -2.1164   18.7140 C.ar    1  UNL1       -0.0080
     22 C           6.2025   -1.5998   17.8440 C.ar    1  UNL1       -0.0030
     23 C           6.1061   -0.2292   17.2421 C.ar    1  UNL1       -0.0003
     24 C           4.9024    0.6247   17.5102 C.ar    1  UNL1       -0.0000
     25 C           3.7951    0.1081   18.3802 C.ar    1  UNL1       -0.0003
     26 C           2.5914    0.9620   18.6483 C.ar    1  UNL1       -0.0000
     27 C           1.4841    0.4453   19.5183 C.ar    1  UNL1       -0.0000
     28 C           1.5805   -0.9253   20.1201 C.ar    1  UNL1       -0.0000
     29 C           2.7841   -1.7792   19.8521 C.ar    1  UNL1       -0.0003
     30 C           3.8914   -1.2625   18.9821 C.ar    1  UNL1       -0.0027
@<TRIPOS>UNITY_ATOM_ATTR
15 1
charge -1
@<TRIPOS>BOND
     1    20    19    1
     2    20    17    1
     3     1    17    1
     4     1     2    1
     5     2     3    1
     6     3     4    1
     7     4     6    1
     8     6     7   ar
     9     7     8   ar
    10     8     9   ar
    11     9    12    1
    12    12    13    1
    13    13    14    1
    14    14    15   ar
    15    14    16   ar
    16     9    10   ar
    17    10    11   ar
    18     4     5    1
    19    20    21    1
    20    21    22   ar
    21    22    23   ar
    22    23    24   ar
    23    24    25   ar
    24    25    26   ar
    25    26    27   ar
    26    27    28   ar
    27    28    29   ar
    28    29    30   ar
    29     5     1    1
    30    30    21   ar
    31    11     6   ar
    32    30    25   ar
    33    17    18    1
@<TRIPOS>MOLECULE
*****
 30 33 0 0 0
SMALL
GASTEIGER

@<TRIPOS>ATOM
      1 C          -5.0367  -19.0677   21.5691 C.3     1  UNL1        0.0545
      2 C          -5.4357  -20.0181   20.4792 C.3     1  UNL1        0.0161
      3 C          -6.9341  -20.0744   20.4390 C.3     1  UNL1        0.0058
      4 C          -7.4612  -19.1588   21.5038 C.3     1  UNL1        0.0237
      5 C          -6.2885  -18.5367   22.2023 C.3     1  UNL1        0.0201
      6 C          -8.9070  -18.9093   21.8155 C.ar    1  UNL1       -0.0225
      7 C          -9.9645  -19.2856   20.8205 C.ar    1  UNL1       -0.0046
      8 C         -11.4104  -19.0361   21.1321 C.ar    1  UNL1       -0.0046
      9 C         -11.7988  -18.4102   22.4387 C.ar    1  UNL1       -0.0218
     10 C         -10.7413  -18.0339   23.4338 C.ar    1  UNL1       -0.0046
     11 C          -9.2954  -18.2834   23.1222 C.ar    1  UNL1       -0.0046
     12 C         -13.2447  -18.1607   22.7504 C.3     1  UNL1        0.0322
     13 C         -13.6516  -17.7318   24.1290 C.3     1  UNL1        0.0464
     14 C         -14.7203  -18.4853   24.8639 C.2     1  UNL1        0.0507
     15 O         -15.9654  -18.9133   24.1453 O.co2   1  UNL1       -0.5492
     16 O         -14.5439  -18.8107   26.3175 O.co2   1  UNL1       -0.5492
     17 N          -3.6324  -18.7110   21.9575 N.3     1  UNL1       -0.2962
     18 H          -3.2967  -19.4573   22.5664 H       1  UNL1        0.1235
     19 C          -2.5530  -16.3480   21.9851 C.3     1  UNL1        0.0220
     20 C          -3.3554  -17.4175   22.6648 C.3     1  UNL1        0.0768
     21 C          -3.8810  -17.1937   24.0517 C.ar    1  UNL1       -0.0080
     22 C          -3.1642  -17.7840   25.2297 C.ar    1  UNL1       -0.0030
     23 C          -3.6898  -17.5601   26.6167 C.ar    1  UNL1       -0.0003
     24 C          -4.9321  -16.7459   26.8257 C.ar    1  UNL1       -0.0000
     25 C          -5.6489  -16.1556   25.6476 C.ar    1  UNL1       -0.0003
     26 C          -6.8913  -15.3414   25.8566 C.ar    1  UNL1       -0.0000
     27 C          -7.6080  -14.7511   24.6786 C.ar    1  UNL1       -0.0000
     28 C          -7.0825  -14.9749   23.2916 C.ar    1  UNL1       -0.0000
     29 C          -5.8402  -15.7891   23.0827 C.ar    1  UNL1       -0.0003
     30 C          -5.1234  -16.3794   24.2607 C.ar    1  UNL1       -0.0027
@<TRIPOS>UNITY_ATOM_ATTR
15 1
charge -1
@<TRIPOS>BOND
     1    20    19    1
     2    20    17    1
     3     1    17    1
     4     1     2    1
     5     2     3    1
     6     3     4    1
     7     4     6    1
     8     6     7   ar
     9     7     8   ar
    10     8     9   ar
    11     9    12    1
    12    12    13    1
    13    13    14    1
    14    14    15   ar
    15    14    16   ar
    16     9    10   ar
    17    10    11   ar
    18     4     5    1
    19    20    21    1
    20    21    22   ar
    21    22    23   ar
    22    23    24   ar
    23    24    25   ar
    24    25    26   ar
    25    26    27   ar
    26    27    28   ar
    27    28    29   ar
    28    29    30   ar
    29     5     1    1
    30    30    21   ar
    31    11     6   ar
    32    30    25   ar
    33    17    18    1
@<TRIPOS>MOLECULE
*****
 30 33 0 0 0
SMALL
GASTEIGER

@<TRIPOS>ATOM
      1 C           2.7270    0.8113   19.5882 C.3     1  UNL1        0.0545
      2 C           1.4067    0.1931   19.2349 C.3     1  UNL1        0.0161
      3 C           0.4942    0.3424   20.4161 C.3     1  UNL1        0.0058
      4 C           1.2505    1.0529   21.4992 C.3     1  UNL1        0.0237
      5 C           2.6304    1.3427   20.9875 C.3     1  UNL1        0.0201
      6 C           0.7199    1.4108   22.8558 C.ar    1  UNL1       -0.0225
      7 C          -0.3338    2.4693   22.9937 C.ar    1  UNL1       -0.0046
      8 C          -0.8644    2.8272   24.3503 C.ar    1  UNL1       -0.0046
      9 C          -0.3413    2.1266   25.5690 C.ar    1  UNL1       -0.0218
     10 C           0.7125    1.0680   25.4311 C.ar    1  UNL1       -0.0046
     11 C           1.2431    0.7101   24.0745 C.ar    1  UNL1       -0.0046
     12 C          -0.8718    2.4844   26.9257 C.3     1  UNL1        0.0322
     13 C          -1.0789    1.4143   27.9562 C.3     1  UNL1        0.0464
     14 C          -0.1006    1.2585   29.0825 C.2     1  UNL1        0.0507
     15 O           0.6107    2.4603   29.6298 O.co2   1  UNL1       -0.5492
     16 O           0.1664   -0.0993   29.6614 O.co2   1  UNL1       -0.5492
     17 N           3.9322    0.8852   18.6982 N.3     1  UNL1       -0.2962
     18 H           3.5979    0.7796   17.7404 H       1  UNL1        0.1235
     19 C           6.4668    0.3259   18.5842 C.3     1  UNL1        0.0220
     20 C           5.0561   -0.0925   18.8749 C.3     1  UNL1        0.0768
     21 C           4.7690   -1.4886   19.3423 C.ar    1  UNL1       -0.0080
     22 C           4.3987   -2.5506   18.3498 C.ar    1  UNL1       -0.0030
     23 C           4.1116   -3.9467   18.8172 C.ar    1  UNL1       -0.0003
     24 C           4.1949   -4.2809   20.2771 C.ar    1  UNL1       -0.0000
     25 C           4.5653   -3.2189   21.2696 C.ar    1  UNL1       -0.0003
     26 C           4.6486   -3.5531   22.7295 C.ar    1  UNL1       -0.0000
     27 C           5.0190   -2.4912   23.7220 C.ar    1  UNL1       -0.0000
     28 C           5.3060   -1.0951   23.2547 C.ar    1  UNL1       -0.0000
     29 C           5.2227   -0.7609   21.7948 C.ar    1  UNL1       -0.0003
     30 C           4.8523   -1.8228   20.8023 C.ar    1  UNL1       -0.0027
@<TRIPOS>UNITY_ATOM_ATTR
15 1
charge -1
@<TRIPOS>BOND
     1    20    19    1
     2    20    17    1
     3     1    17    1
     4     1     2    1
     5     2     3    1
     6     3     4    1
     7     4     6    1
     8     6     7   ar
     9     7     8   ar
    10     8     9   ar
    11     9    12    1
    12    12    13    1
    13    13    14    1
    14    14    15   ar
    15    14    16   ar
    16     9    10   ar
    17    10    11   ar
    18     4     5    1
    19    20    21    1
    20    21    22   ar
    21    22    23   ar
    22    23    24   ar
    23    24    25   ar
    24    25    26   ar
    25    26    27   ar
    26    27    28   ar
    27    28    29   ar
    28    29    30   ar
    29     5     1    1
    30    30    21   ar
    31    11     6   ar
    32    30    25   ar
    33    17    18    1
@<TRIPOS>MOLECULE
*****
 30 33 0 0 0
SMALL
GASTEIGER

@<TRIPOS>ATOM
      1 C           3.1333   -0.8750   20.0558 C.3     1  UNL1        0.0545
      2 C           3.8816    0.4235   19.9922 C.3     1  UNL1        0.0161
      3 C           3.5177    1.2280   21.2048 C.3     1  UNL1        0.0058
      4 C           2.5446    0.4267   22.0178 C.3     1  UNL1        0.0237
      5 C           2.3070   -0.8730   21.3077 C.3     1  UNL1        0.0201
      6 C           1.9189    0.8507   23.3134 C.ar    1  UNL1       -0.0225
      7 C           0.6446    1.6419   23.3074 C.ar    1  UNL1       -0.0046
      8 C           0.0189    2.0660   24.6030 C.ar    1  UNL1       -0.0046
      9 C           0.6675    1.6988   25.9047 C.ar    1  UNL1       -0.0218
     10 C           1.9419    0.9076   25.9108 C.ar    1  UNL1       -0.0046
     11 C           2.5676    0.4835   24.6151 C.ar    1  UNL1       -0.0046
     12 C           0.0418    2.1229   27.2004 C.3     1  UNL1        0.0322
     13 C          -1.0145    1.2697   27.8378 C.3     1  UNL1        0.0464
     14 C          -0.7184    0.5372   29.1128 C.2     1  UNL1        0.0507
     15 O           0.1157    1.1887   30.1757 O.co2   1  UNL1       -0.5492
     16 O          -1.2564   -0.8469   29.3249 O.co2   1  UNL1       -0.5492
     17 N           3.1997   -1.9813   19.0450 N.3     1  UNL1       -0.2962
     18 H           2.2569   -2.3618   18.9625 H       1  UNL1        0.1235
     19 C           3.6071   -4.5465   19.1055 C.3     1  UNL1        0.0220
     20 C           4.1188   -3.1458   19.2669 C.3     1  UNL1        0.0768
     21 C           5.5496   -2.9096   19.6502 C.ar    1  UNL1       -0.0080
     22 C           6.5632   -2.5758   18.5960 C.ar    1  UNL1       -0.0030
     23 C           7.9940   -2.3395   18.9793 C.ar    1  UNL1       -0.0003
     24 C           8.4113   -2.4370   20.4167 C.ar    1  UNL1       -0.0000
     25 C           7.3977   -2.7709   21.4710 C.ar    1  UNL1       -0.0003
     26 C           7.8150   -2.8684   22.9084 C.ar    1  UNL1       -0.0000
     27 C           6.8015   -3.2022   23.9626 C.ar    1  UNL1       -0.0000
     28 C           5.3707   -3.4385   23.5793 C.ar    1  UNL1       -0.0000
     29 C           4.9534   -3.3409   22.1418 C.ar    1  UNL1       -0.0003
     30 C           5.9669   -3.0071   21.0877 C.ar    1  UNL1       -0.0027
@<TRIPOS>UNITY_ATOM_ATTR
15 1
charge -1
@<TRIPOS>BOND
     1    20    19    1
     2    20    17    1
     3     1    17    1
     4     1     2    1
     5     2     3    1
     6     3     4    1
     7     4     6    1
     8     6     7   ar
     9     7     8   ar
    10     8     9   ar
    11     9    12    1
    12    12    13    1
    13    13    14    1
    14    14    15   ar
    15    14    16   ar
    16     9    10   ar
    17    10    11   ar
    18     4     5    1
    19    20    21    1
    20    21    22   ar
    21    22    23   ar
    22    23    24   ar
    23    24    25   ar
    24    25    26   ar
    25    26    27   ar
    26    27    28   ar
    27    28    29   ar
    28    29    30   ar
    29     5     1    1
    30    30    21   ar
    31    11     6   ar
    32    30    25   ar
    33    17    18    1
