@<TRIPOS>MOLECULE
*****
 31 33 0 0 0
SMALL
GASTEIGER

@<TRIPOS>ATOM
      1 C          -7.9074  -18.6103   22.1690 C.2     1  UNL1        0.2270
      2 O          -7.7406  -17.2598   21.5379 O.2     1  UNL1       -0.2748
      3 N          -8.9992  -18.8398   23.1717 N.am    1  UNL1       -0.2794
      4 C          -9.2869  -20.1292   23.8823 C.3     1  UNL1        0.0935
      5 C         -10.4605  -19.9066   24.7896 C.3     1  UNL1        0.0233
      6 C         -10.8981  -18.4797   24.6397 C.3     1  UNL1        0.0233
      7 C          -9.9951  -17.8205   23.6398 C.3     1  UNL1        0.0949
      8 C          -6.9826  -19.7312   21.7975 C.3     1  UNL1        0.1010
      9 N          -7.0860  -19.1775   19.2612 N.3     1  UNL1       -0.3215
     10 C          -6.3604  -19.7693   20.4331 C.3     1  UNL1        0.0644
     11 H          -7.9795  -18.7961   19.5718 H       1  UNL1        0.1188
     12 H          -7.2500  -19.9016   18.5619 H       1  UNL1        0.1188
     13 C          -5.0128  -20.3992   20.2406 C.3     1  UNL1        0.0447
     14 C          -3.7765  -19.5504   20.2738 C.ar    1  UNL1        0.0090
     15 C          -3.1785  -19.0460   18.9940 C.ar    1  UNL1        0.0300
     16 C          -1.9422  -18.1972   19.0273 C.ar    1  UNL1        0.1672
     17 F          -1.3440  -17.6927   17.7475 F       1  UNL1       -0.2018
     18 C          -1.3039  -17.8528   20.3403 C.ar    1  UNL1        0.1696
     19 F          -0.0676  -17.0041   20.3736 F       1  UNL1       -0.2017
     20 C          -1.9019  -18.3573   21.6201 C.ar    1  UNL1        0.0612
     21 C          -3.1383  -19.2060   21.5869 C.ar    1  UNL1        0.1386
     22 F          -3.7364  -19.7105   22.8666 F       1  UNL1       -0.2044
     23 C         -10.0739  -16.3924   23.1874 C.3     1  UNL1        0.1093
     24 N          -8.8908  -15.4859   23.3560 N.pl3   1  UNL1       -0.3013
     25 H          -8.6150  -14.8943   22.6189 H       1  UNL1        0.1497
     26 C          -8.1279  -15.4807   24.6475 C.ar    1  UNL1        0.2170
     27 N          -6.6280  -15.4889   24.6326 N.ar    1  UNL1       -0.2123
     28 C          -5.8651  -15.4837   25.9241 C.ar    1  UNL1        0.1034
     29 C          -6.6021  -15.4702   27.2304 C.ar    1  UNL1        0.0414
     30 C          -8.1020  -15.4620   27.2453 C.ar    1  UNL1        0.1034
     31 N          -8.8649  -15.4672   25.9539 N.ar    1  UNL1       -0.2123
@<TRIPOS>BOND
     1    10     9    1
     2    10     8    1
     3     8     1    1
     4     1     2    2
     5     1     3   am
     6     3     4    1
     7     4     5    1
     8     5     6    1
     9     6     7    1
    10     7    23    1
    11    23    24    1
    12    24    26    1
    13    26    27   ar
    14    27    28   ar
    15    28    29   ar
    16    29    30   ar
    17    30    31   ar
    18    10    13    1
    19    13    14    1
    20    14    15   ar
    21    15    16   ar
    22    16    17    1
    23    16    18   ar
    24    18    19    1
    25    18    20   ar
    26    20    21   ar
    27    21    22    1
    28     7     3    1
    29    31    26   ar
    30    21    14   ar
    31     9    11    1
    32     9    12    1
    33    24    25    1
@<TRIPOS>MOLECULE
*****
 31 33 0 0 0
SMALL
GASTEIGER

@<TRIPOS>ATOM
      1 C          -6.1157  -15.4500   23.7923 C.2     1  UNL1        0.2270
      2 O          -7.0339  -15.5939   22.6148 O.2     1  UNL1       -0.2748
      3 N          -6.6652  -15.5280   25.1858 N.am    1  UNL1       -0.2794
      4 C          -5.8738  -15.4030   26.4539 C.3     1  UNL1        0.0935
      5 C          -6.8221  -15.5424   27.6078 C.3     1  UNL1        0.0233
      6 C          -8.1996  -15.7536   27.0528 C.3     1  UNL1        0.0233
      7 C          -8.1026  -15.7446   25.5560 C.3     1  UNL1        0.0949
      8 C          -4.6480  -15.2282   23.5762 C.3     1  UNL1        0.1010
      9 N          -2.7892  -15.9413   21.9070 N.3     1  UNL1       -0.3215
     10 C          -3.8126  -16.3011   22.9429 C.3     1  UNL1        0.0644
     11 H          -2.7969  -14.9323   21.7575 H       1  UNL1        0.1188
     12 H          -3.0098  -16.4163   21.0317 H       1  UNL1        0.1188
     13 C          -4.0006  -17.7337   23.3455 C.3     1  UNL1        0.0447
     14 C          -4.5862  -18.7152   22.3741 C.ar    1  UNL1        0.0090
     15 C          -6.0744  -18.8726   22.2723 C.ar    1  UNL1        0.0300
     16 C          -6.6600  -19.8541   21.3008 C.ar    1  UNL1        0.1672
     17 F          -8.1483  -20.0117   21.1989 F       1  UNL1       -0.2018
     18 C          -5.7574  -20.6782   20.4312 C.ar    1  UNL1        0.1696
     19 F          -6.3430  -21.6597   19.4597 F       1  UNL1       -0.2017
     20 C          -4.2691  -20.5207   20.5330 C.ar    1  UNL1        0.0612
     21 C          -3.6835  -19.5392   21.5044 C.ar    1  UNL1        0.1386
     22 F          -2.1954  -19.3817   21.6063 F       1  UNL1       -0.2044
     23 C          -9.2429  -15.9214   24.5975 C.3     1  UNL1        0.1093
     24 N          -9.4841  -17.2560   23.9568 N.pl3   1  UNL1       -0.3013
     25 H          -9.1870  -18.0793   24.4075 H       1  UNL1        0.1497
     26 C         -10.1781  -17.3363   22.6294 C.ar    1  UNL1        0.2170
     27 N         -10.2996  -16.1120   21.7713 N.ar    1  UNL1       -0.2123
     28 C         -10.9936  -16.1923   20.4440 C.ar    1  UNL1        0.1034
     29 C         -11.5661  -17.4969   19.9747 C.ar    1  UNL1        0.0414
     30 C         -11.4446  -18.7212   20.8327 C.ar    1  UNL1        0.1034
     31 N         -10.7506  -18.6409   22.1600 N.ar    1  UNL1       -0.2123
@<TRIPOS>BOND
     1    10     9    1
     2    10     8    1
     3     8     1    1
     4     1     2    2
     5     1     3   am
     6     3     4    1
     7     4     5    1
     8     5     6    1
     9     6     7    1
    10     7    23    1
    11    23    24    1
    12    24    26    1
    13    26    27   ar
    14    27    28   ar
    15    28    29   ar
    16    29    30   ar
    17    30    31   ar
    18    10    13    1
    19    13    14    1
    20    14    15   ar
    21    15    16   ar
    22    16    17    1
    23    16    18   ar
    24    18    19    1
    25    18    20   ar
    26    20    21   ar
    27    21    22    1
    28     7     3    1
    29    31    26   ar
    30    21    14   ar
    31     9    11    1
    32     9    12    1
    33    24    25    1
@<TRIPOS>MOLECULE
*****
 31 33 0 0 0
SMALL
GASTEIGER

@<TRIPOS>ATOM
      1 C          -6.0917  -15.3445   23.8128 C.2     1  UNL1        0.2270
      2 O          -7.0083  -15.2887   22.6267 O.2     1  UNL1       -0.2748
      3 N          -6.6578  -15.5210   25.1906 N.am    1  UNL1       -0.2794
      4 C          -5.8698  -15.5944   26.4649 C.3     1  UNL1        0.0935
      5 C          -6.8363  -15.7739   27.5979 C.3     1  UNL1        0.0233
      6 C          -8.2216  -15.8115   27.0239 C.3     1  UNL1        0.0233
      7 C          -8.1113  -15.6552   25.5361 C.3     1  UNL1        0.0949
      8 C          -4.6089  -15.2237   23.6210 C.3     1  UNL1        0.1010
      9 N          -2.8857  -15.9771   21.8285 N.3     1  UNL1       -0.3215
     10 C          -3.8512  -16.3155   22.9255 C.3     1  UNL1        0.0644
     11 H          -2.8704  -14.9669   21.6888 H       1  UNL1        0.1188
     12 H          -3.1776  -16.4354   20.9653 H       1  UNL1        0.1188
     13 C          -4.0590  -17.7458   23.3268 C.3     1  UNL1        0.0447
     14 C          -4.6414  -18.7223   22.3485 C.ar    1  UNL1        0.0090
     15 C          -3.7432  -19.4607   21.4009 C.ar    1  UNL1        0.0300
     16 C          -4.3257  -20.4373   20.4226 C.ar    1  UNL1        0.1672
     17 F          -3.4275  -21.1757   19.4749 F       1  UNL1       -0.2018
     18 C          -5.8063  -20.6754   20.3919 C.ar    1  UNL1        0.1696
     19 F          -6.3888  -21.6520   19.4136 F       1  UNL1       -0.2017
     20 C          -6.7045  -19.9370   21.3395 C.ar    1  UNL1        0.0612
     21 C          -6.1221  -18.9605   22.3178 C.ar    1  UNL1        0.1386
     22 F          -7.0202  -18.2221   23.2654 F       1  UNL1       -0.2044
     23 C          -9.2539  -15.6364   24.5644 C.3     1  UNL1        0.1093
     24 N          -9.4131  -16.7500   23.5723 N.pl3   1  UNL1       -0.3013
     25 H          -8.8588  -17.5601   23.6484 H       1  UNL1        0.1497
     26 C         -10.4169  -16.6295   22.4641 C.ar    1  UNL1        0.2170
     27 N         -11.8039  -17.1707   22.6463 N.ar    1  UNL1       -0.2123
     28 C         -12.8075  -17.0501   21.5381 C.ar    1  UNL1        0.1034
     29 C         -12.4242  -16.3883   20.2478 C.ar    1  UNL1        0.0414
     30 C         -11.0372  -15.8471   20.0655 C.ar    1  UNL1        0.1034
     31 N         -10.0335  -15.9676   21.1737 N.ar    1  UNL1       -0.2123
@<TRIPOS>BOND
     1    10     9    1
     2    10     8    1
     3     8     1    1
     4     1     2    2
     5     1     3   am
     6     3     4    1
     7     4     5    1
     8     5     6    1
     9     6     7    1
    10     7    23    1
    11    23    24    1
    12    24    26    1
    13    26    27   ar
    14    27    28   ar
    15    28    29   ar
    16    29    30   ar
    17    30    31   ar
    18    10    13    1
    19    13    14    1
    20    14    15   ar
    21    15    16   ar
    22    16    17    1
    23    16    18   ar
    24    18    19    1
    25    18    20   ar
    26    20    21   ar
    27    21    22    1
    28     7     3    1
    29    31    26   ar
    30    21    14   ar
    31     9    11    1
    32     9    12    1
    33    24    25    1
@<TRIPOS>MOLECULE
*****
 31 33 0 0 0
SMALL
GASTEIGER

@<TRIPOS>ATOM
      1 C          -6.4187  -18.9076   22.3453 C.2     1  UNL1        0.2270
      2 O          -5.0657  -19.5393   22.2025 O.2     1  UNL1       -0.2748
      3 N          -6.5465  -17.5329   22.9316 N.am    1  UNL1       -0.2794
      4 C          -7.8260  -16.7769   23.1357 C.3     1  UNL1        0.0935
      5 C          -7.4876  -15.4495   23.7470 C.3     1  UNL1        0.0233
      6 C          -5.9991  -15.3851   23.9207 C.3     1  UNL1        0.0233
      7 C          -5.4175  -16.6727   23.4167 C.3     1  UNL1        0.0949
      8 C          -7.6439  -19.6507   21.9018 C.3     1  UNL1        0.1010
      9 N          -7.3500  -18.8832   19.4371 N.3     1  UNL1       -0.3215
     10 C          -8.2249  -19.3954   20.5427 C.3     1  UNL1        0.0644
     11 H          -6.3978  -18.7664   19.7835 H       1  UNL1        0.1188
     12 H          -7.7057  -17.9846   19.1107 H       1  UNL1        0.1188
     13 C          -9.6808  -19.6524   20.2890 C.3     1  UNL1        0.0447
     14 C         -10.7175  -19.0397   21.1833 C.ar    1  UNL1        0.0090
     15 C         -10.8141  -19.4628   22.6191 C.ar    1  UNL1        0.0300
     16 C         -11.8509  -18.8501   23.5134 C.ar    1  UNL1        0.1672
     17 F         -11.9476  -19.2732   24.9493 F       1  UNL1       -0.2018
     18 C         -12.7910  -17.8143   22.9719 C.ar    1  UNL1        0.1696
     19 F         -13.8277  -17.2016   23.8661 F       1  UNL1       -0.2017
     20 C         -12.6944  -17.3912   21.5360 C.ar    1  UNL1        0.0612
     21 C         -11.6576  -18.0039   20.6418 C.ar    1  UNL1        0.1386
     22 F         -11.5609  -17.5808   19.2059 F       1  UNL1       -0.2044
     23 C          -3.9623  -17.0363   23.4007 C.3     1  UNL1        0.1093
     24 N          -3.0058  -16.2643   22.5410 N.pl3   1  UNL1       -0.3013
     25 H          -2.7590  -15.3428   22.7843 H       1  UNL1        0.1497
     26 C          -2.4252  -16.8963   21.3107 C.ar    1  UNL1        0.2170
     27 N          -0.9820  -16.6780   20.9652 N.ar    1  UNL1       -0.2123
     28 C          -0.4015  -17.3100   19.7349 C.ar    1  UNL1        0.1034
     29 C          -1.2642  -18.1604   18.8503 C.ar    1  UNL1        0.0414
     30 C          -2.7074  -18.3787   19.1959 C.ar    1  UNL1        0.1034
     31 N          -3.2879  -17.7467   20.4261 N.ar    1  UNL1       -0.2123
@<TRIPOS>BOND
     1    10     9    1
     2    10     8    1
     3     8     1    1
     4     1     2    2
     5     1     3   am
     6     3     4    1
     7     4     5    1
     8     5     6    1
     9     6     7    1
    10     7    23    1
    11    23    24    1
    12    24    26    1
    13    26    27   ar
    14    27    28   ar
    15    28    29   ar
    16    29    30   ar
    17    30    31   ar
    18    10    13    1
    19    13    14    1
    20    14    15   ar
    21    15    16   ar
    22    16    17    1
    23    16    18   ar
    24    18    19    1
    25    18    20   ar
    26    20    21   ar
    27    21    22    1
    28     7     3    1
    29    31    26   ar
    30    21    14   ar
    31     9    11    1
    32     9    12    1
    33    24    25    1
@<TRIPOS>MOLECULE
*****
 31 33 0 0 0
SMALL
GASTEIGER

@<TRIPOS>ATOM
      1 C          -7.5931  -17.4638   22.7850 C.2     1  UNL1        0.2270
      2 O          -7.1348  -17.5431   21.3589 O.2     1  UNL1       -0.2748
      3 N          -8.5908  -18.4541   23.3083 N.am    1  UNL1       -0.2794
      4 C          -9.1394  -18.4996   24.7037 C.3     1  UNL1        0.0935
      5 C         -10.1028  -19.6464   24.7859 C.3     1  UNL1        0.0233
      6 C         -10.1497  -20.3097   23.4413 C.3     1  UNL1        0.0233
      7 C          -9.2153  -19.5728   22.5281 C.3     1  UNL1        0.0949
      8 C          -7.0536  -16.3943   23.6878 C.3     1  UNL1        0.1010
      9 N          -5.2272  -14.5752   23.3636 N.3     1  UNL1       -0.3215
     10 C          -5.6071  -16.0055   23.6089 C.3     1  UNL1        0.0644
     11 H          -6.0714  -14.0095   23.2757 H       1  UNL1        0.1188
     12 H          -4.6835  -14.5106   22.5030 H       1  UNL1        0.1188
     13 C          -4.5403  -17.0467   23.7751 C.3     1  UNL1        0.0447
     14 C          -3.8137  -17.5747   22.5738 C.ar    1  UNL1        0.0090
     15 C          -4.1006  -18.9590   22.0722 C.ar    1  UNL1        0.0300
     16 C          -3.3740  -19.4869   20.8708 C.ar    1  UNL1        0.1672
     17 F          -3.6608  -20.8712   20.3692 F       1  UNL1       -0.2018
     18 C          -2.3606  -18.6306   20.1710 C.ar    1  UNL1        0.1696
     19 F          -1.6340  -19.1586   18.9696 F       1  UNL1       -0.2017
     20 C          -2.0738  -17.2464   20.6725 C.ar    1  UNL1        0.0612
     21 C          -2.8003  -16.7184   21.8739 C.ar    1  UNL1        0.1386
     22 F          -2.5136  -15.3342   22.3755 F       1  UNL1       -0.2044
     23 C          -8.9515  -19.8975   21.0876 C.3     1  UNL1        0.1093
     24 N          -9.9587  -19.5286   20.0390 N.pl3   1  UNL1       -0.3013
     25 H         -10.0230  -20.0569   19.2108 H       1  UNL1        0.1497
     26 C         -10.8678  -18.3547   20.2524 C.ar    1  UNL1        0.2170
     27 N         -10.6066  -17.0636   19.5349 N.ar    1  UNL1       -0.2123
     28 C         -11.5157  -15.8898   19.7482 C.ar    1  UNL1        0.1034
     29 C         -12.6861  -16.0070   20.6791 C.ar    1  UNL1        0.0414
     30 C         -12.9473  -17.2981   21.3966 C.ar    1  UNL1        0.1034
     31 N         -12.0382  -18.4719   21.1832 N.ar    1  UNL1       -0.2123
@<TRIPOS>BOND
     1    10     9    1
     2    10     8    1
     3     8     1    1
     4     1     2    2
     5     1     3   am
     6     3     4    1
     7     4     5    1
     8     5     6    1
     9     6     7    1
    10     7    23    1
    11    23    24    1
    12    24    26    1
    13    26    27   ar
    14    27    28   ar
    15    28    29   ar
    16    29    30   ar
    17    30    31   ar
    18    10    13    1
    19    13    14    1
    20    14    15   ar
    21    15    16   ar
    22    16    17    1
    23    16    18   ar
    24    18    19    1
    25    18    20   ar
    26    20    21   ar
    27    21    22    1
    28     7     3    1
    29    31    26   ar
    30    21    14   ar
    31     9    11    1
    32     9    12    1
    33    24    25    1
@<TRIPOS>MOLECULE
*****
 31 33 0 0 0
SMALL
GASTEIGER

@<TRIPOS>ATOM
      1 C          -6.1125  -16.0236   23.8987 C.2     1  UNL1        0.2270
      2 O          -6.9394  -16.5498   22.7631 O.2     1  UNL1       -0.2748
      3 N          -6.7443  -15.7816   25.2374 N.am    1  UNL1       -0.2794
      4 C          -6.0481  -15.2608   26.4598 C.3     1  UNL1        0.0935
      5 C          -7.0569  -15.1752   27.5667 C.3     1  UNL1        0.0233
      6 C          -8.3765  -15.6430   27.0284 C.3     1  UNL1        0.0233
      7 C          -8.1833  -16.0178   25.5889 C.3     1  UNL1        0.0949
      8 C          -4.6537  -15.7395   23.6955 C.3     1  UNL1        0.1010
      9 N          -3.7274  -17.6747   25.1606 N.3     1  UNL1       -0.3215
     10 C          -3.6394  -16.8189   23.9319 C.3     1  UNL1        0.0644
     11 H          -4.5308  -17.3864   25.7190 H       1  UNL1        0.1188
     12 H          -2.8751  -17.5683   25.7109 H       1  UNL1        0.1188
     13 C          -2.5370  -17.0426   22.9396 C.3     1  UNL1        0.0447
     14 C          -2.7625  -17.9374   21.7570 C.ar    1  UNL1        0.0090
     15 C          -2.1350  -17.6061   20.4355 C.ar    1  UNL1        0.0300
     16 C          -2.3605  -18.5009   19.2529 C.ar    1  UNL1        0.1672
     17 F          -1.7331  -18.1696   17.9312 F       1  UNL1       -0.2018
     18 C          -3.2134  -19.7269   19.3919 C.ar    1  UNL1        0.1696
     19 F          -3.4388  -20.6217   18.2093 F       1  UNL1       -0.2017
     20 C          -3.8408  -20.0582   20.7134 C.ar    1  UNL1        0.0612
     21 C          -3.6153  -19.1635   21.8960 C.ar    1  UNL1        0.1386
     22 F          -4.2427  -19.4947   23.2176 F       1  UNL1       -0.2044
     23 C          -9.2431  -16.5375   24.6632 C.3     1  UNL1        0.1093
     24 N          -9.6867  -15.7119   23.4921 N.pl3   1  UNL1       -0.3013
     25 H          -9.5337  -14.7394   23.4893 H       1  UNL1        0.1497
     26 C         -10.3635  -16.3680   22.3253 C.ar    1  UNL1        0.2170
     27 N          -9.6165  -17.3628   21.4872 N.ar    1  UNL1       -0.2123
     28 C         -10.2933  -18.0188   20.3204 C.ar    1  UNL1        0.1034
     29 C         -11.7171  -17.6801   19.9916 C.ar    1  UNL1        0.0414
     30 C         -12.4641  -16.6853   20.8297 C.ar    1  UNL1        0.1034
     31 N         -11.7873  -16.0293   21.9965 N.ar    1  UNL1       -0.2123
@<TRIPOS>BOND
     1    10     9    1
     2    10     8    1
     3     8     1    1
     4     1     2    2
     5     1     3   am
     6     3     4    1
     7     4     5    1
     8     5     6    1
     9     6     7    1
    10     7    23    1
    11    23    24    1
    12    24    26    1
    13    26    27   ar
    14    27    28   ar
    15    28    29   ar
    16    29    30   ar
    17    30    31   ar
    18    10    13    1
    19    13    14    1
    20    14    15   ar
    21    15    16   ar
    22    16    17    1
    23    16    18   ar
    24    18    19    1
    25    18    20   ar
    26    20    21   ar
    27    21    22    1
    28     7     3    1
    29    31    26   ar
    30    21    14   ar
    31     9    11    1
    32     9    12    1
    33    24    25    1
@<TRIPOS>MOLECULE
*****
 31 33 0 0 0
SMALL
GASTEIGER

@<TRIPOS>ATOM
      1 C          -7.4558  -15.8538   24.0382 C.2     1  UNL1        0.2270
      2 O          -8.0223  -16.3787   22.7523 O.2     1  UNL1       -0.2748
      3 N          -8.0204  -16.3137   25.3496 N.am    1  UNL1       -0.2794
      4 C          -7.5593  -15.8788   26.7091 C.3     1  UNL1        0.0935
      5 C          -8.3992  -16.5856   27.7315 C.3     1  UNL1        0.0233
      6 C          -9.3793  -17.4572   27.0038 C.3     1  UNL1        0.0233
      7 C          -9.1452  -17.2892   25.5318 C.3     1  UNL1        0.0949
      8 C          -6.3247  -14.8690   24.0127 C.3     1  UNL1        0.1010
      9 N          -4.2980  -14.2707   22.5012 N.3     1  UNL1       -0.3215
     10 C          -5.0153  -15.2468   23.3859 C.3     1  UNL1        0.0644
     11 H          -4.8392  -13.4085   22.4372 H       1  UNL1        0.1188
     12 H          -4.1879  -14.6729   21.5703 H       1  UNL1        0.1188
     13 C          -4.4232  -16.6006   23.6438 C.3     1  UNL1        0.0447
     14 C          -3.4706  -17.2035   22.6543 C.ar    1  UNL1        0.0090
     15 C          -2.4177  -16.3504   22.0113 C.ar    1  UNL1        0.0300
     16 C          -1.4651  -16.9533   21.0219 C.ar    1  UNL1        0.1672
     17 F          -0.4120  -16.1003   20.3788 F       1  UNL1       -0.2018
     18 C          -1.5654  -18.4093   20.6754 C.ar    1  UNL1        0.1696
     19 F          -0.6128  -19.0122   19.6859 F       1  UNL1       -0.2017
     20 C          -2.6184  -19.2624   21.3184 C.ar    1  UNL1        0.0612
     21 C          -3.5710  -18.6595   22.3079 C.ar    1  UNL1        0.1386
     22 F          -4.6240  -19.5125   22.9509 F       1  UNL1       -0.2044
     23 C          -9.9030  -17.9761   24.4344 C.3     1  UNL1        0.1093
     24 N          -9.2057  -18.9625   23.5452 N.pl3   1  UNL1       -0.3013
     25 H          -8.5144  -19.5570   23.9165 H       1  UNL1        0.1497
     26 C          -9.5618  -19.0431   22.0902 C.ar    1  UNL1        0.2170
     27 N          -8.5848  -19.6215   21.1100 N.ar    1  UNL1       -0.2123
     28 C          -8.9409  -19.7021   19.6551 C.ar    1  UNL1        0.1034
     29 C         -10.2739  -19.2043   19.1805 C.ar    1  UNL1        0.0414
     30 C         -11.2509  -18.6259   20.1608 C.ar    1  UNL1        0.1034
     31 N         -10.8948  -18.5454   21.6156 N.ar    1  UNL1       -0.2123
@<TRIPOS>BOND
     1    10     9    1
     2    10     8    1
     3     8     1    1
     4     1     2    2
     5     1     3   am
     6     3     4    1
     7     4     5    1
     8     5     6    1
     9     6     7    1
    10     7    23    1
    11    23    24    1
    12    24    26    1
    13    26    27   ar
    14    27    28   ar
    15    28    29   ar
    16    29    30   ar
    17    30    31   ar
    18    10    13    1
    19    13    14    1
    20    14    15   ar
    21    15    16   ar
    22    16    17    1
    23    16    18   ar
    24    18    19    1
    25    18    20   ar
    26    20    21   ar
    27    21    22    1
    28     7     3    1
    29    31    26   ar
    30    21    14   ar
    31     9    11    1
    32     9    12    1
    33    24    25    1
