@<TRIPOS>MOLECULE
*****
 37 40 0 0 0
SMALL
GASTEIGER

@<TRIPOS>ATOM
      1 C          -9.8169  -17.2221   24.1460 C.3     1  UNL1        0.0468
      2 C         -10.2371  -18.4204   25.8173 C.3     1  UNL1        0.0069
      3 C          -9.1111  -16.6441   23.8338 C.3     1  UNL1        0.0500
      4 C          -8.9668  -16.1089   23.0448 C.3     1  UNL1        0.1694
      5 C          -9.1347  -15.4927   21.8085 C.3     1  UNL1        0.0435
      6 C          -8.4189  -14.5555   20.8814 C.3     1  UNL1        0.0040
      7 C          -9.6779  -16.0035   22.1635 C.3     1  UNL1        0.0038
      8 C          -7.6977  -15.8510   23.8423 C.3     1  UNL1        0.0001
      9 C         -10.2359  -16.5349   22.5397 C.3     1  UNL1        0.0001
     10 C         -10.8690  -16.6816   22.1734 C.3     1  UNL1        0.0005
     11 C         -11.5613  -16.8308   21.7533 C.3     1  UNL1        0.0093
     12 C         -12.6431  -16.8441   20.7144 C.3     1  UNL1        0.0082
     13 C         -12.2136  -15.9531   19.5867 C.3     1  UNL1        0.0645
     14 C         -10.8663  -15.3892   19.9287 C.2     1  UNL1        0.1504
     15 O         -10.0633  -14.4481   19.0805 O.2     1  UNL1       -0.2961
     16 C         -10.4632  -15.9317   21.2678 C.3     1  UNL1        0.0610
     17 C         -11.1728  -17.3254   22.9947 C.3     1  UNL1        0.0276
     18 C         -13.0990  -18.3876   22.9509 C.3     1  UNL1        0.0025
     19 C         -10.6710  -17.5043   23.7984 C.3     1  UNL1        0.1141
     20 O         -11.7207  -18.8788   25.1581 O.3     1  UNL1       -0.3841
     21 H         -11.1791  -19.0278   25.9488 H       1  UNL1        0.2103
     22 C          -8.3171  -16.6552   27.0226 C.2     1  UNL1       -0.0048
     23 C          -8.6382  -17.5387   25.8537 C.2     1  UNL1       -0.0243
     24 O          -7.0407  -15.0467   23.0886 O.3     1  UNL1       -0.4516
     25 C          -5.8710  -15.6443   23.8128 C.2     1  UNL1        0.3283
     26 O          -5.1406  -14.8419   24.8485 O.2     1  UNL1       -0.2491
     27 C          -5.4315  -17.0442   23.5013 C.3     1  UNL1        0.1715
     28 S          -3.9741  -17.3977   23.5344 S.3     1  UNL1       -0.1003
     29 C          -3.2732  -17.8089   22.2736 C.ar    1  UNL1        0.0461
     30 C          -3.7965  -18.9593   21.4657 C.ar    1  UNL1        0.1051
     31 N          -3.0956  -19.3705   20.2048 N.ar    1  UNL1       -0.2405
     32 C          -1.8715  -18.6312   19.7519 C.ar    1  UNL1        0.1129
     33 C          -1.3483  -17.4808   20.5598 C.ar    1  UNL1        0.0615
     34 N          -0.1242  -16.7416   20.1069 N.pl3   1  UNL1       -0.3558
     35 C          -2.0491  -17.0696   21.8207 C.ar    1  UNL1        0.0234
     36 H           0.3358  -17.0114   19.2794 H       1  UNL1        0.1424
     37 H           0.2192  -15.9865   20.6372 H       1  UNL1        0.1424
@<TRIPOS>BOND
     1    22    23    2
     2    23     1    1
     3     1     2    1
     4     1     3    1
     5     3     4    1
     6     4    24    1
     7    24    25    1
     8    25    26    2
     9    25    27    1
    10    27    28    1
    11    28    29    1
    12    29    30   ar
    13    30    31   ar
    14    31    32   ar
    15    32    33   ar
    16    33    34    1
    17    33    35   ar
    18     4     5    1
    19     5     6    1
    20     5     7    1
    21     7     8    1
    22     7     9    1
    23     9    10    1
    24    11    10    1
    25    11    12    1
    26    12    13    1
    27    13    14    1
    28    14    15    2
    29    16    14    1
    30    11    17    1
    31    17    18    1
    32    17    19    1
    33    19    20    1
    34    19     1    1
    35    35    29   ar
    36    16     5    1
    37    16    11    1
    38    34    36    1
    39    34    37    1
    40    20    21    1
@<TRIPOS>MOLECULE
*****
 37 40 0 0 0
SMALL
GASTEIGER

@<TRIPOS>ATOM
      1 C         -10.9876   -3.8806   18.0133 C.3     1  UNL1        0.0468
      2 C          -9.2098   -4.4454   17.0509 C.3     1  UNL1        0.0069
      3 C         -11.6694   -4.2859   18.5616 C.3     1  UNL1        0.0500
      4 C         -12.4786   -3.9752   18.9842 C.3     1  UNL1        0.1694
      5 C         -13.5268   -3.1678   19.4150 C.3     1  UNL1        0.0435
      6 C         -14.7820   -3.2475   20.2324 C.3     1  UNL1        0.0040
      7 C         -12.8962   -2.9182   18.9439 C.3     1  UNL1        0.0038
      8 C         -12.4496   -5.4412   19.3882 C.3     1  UNL1        0.0001
      9 C         -12.2376   -2.6680   18.4550 C.3     1  UNL1        0.0001
     10 C         -12.2229   -1.9538   18.2400 C.3     1  UNL1        0.0005
     11 C         -12.2250   -1.1622   18.0132 C.3     1  UNL1        0.0093
     12 C         -12.5814    0.2823   17.8226 C.3     1  UNL1        0.0082
     13 C         -13.8624    0.5444   18.5578 C.3     1  UNL1        0.0645
     14 C         -14.2976   -0.7380   19.2027 C.2     1  UNL1        0.1504
     15 O         -15.5286   -0.9317   20.0376 O.2     1  UNL1       -0.2961
     16 C         -13.2856   -1.7928   18.8662 C.3     1  UNL1        0.0610
     17 C         -11.2950   -2.1521   17.7099 C.3     1  UNL1        0.0276
     18 C         -10.2617   -0.5601   16.5972 C.3     1  UNL1        0.0025
     19 C         -10.8326   -2.9966   17.6605 C.3     1  UNL1        0.1141
     20 O          -8.9916   -2.8797   16.4617 O.3     1  UNL1       -0.3841
     21 H          -8.5632   -3.7498   16.4413 H       1  UNL1        0.2103
     22 C          -9.6665   -6.7045   19.0745 C.2     1  UNL1       -0.0048
     23 C         -10.0676   -5.7668   17.9745 C.2     1  UNL1       -0.0243
     24 O         -13.5119   -5.5672   20.0969 O.3     1  UNL1       -0.4516
     25 C         -14.3671   -6.5594   19.3661 C.2     1  UNL1        0.3283
     26 O         -15.8310   -6.6604   19.6772 O.2     1  UNL1       -0.2491
     27 C         -13.7585   -7.4506   18.3244 C.3     1  UNL1        0.1715
     28 S         -14.5784   -7.9030   17.1526 S.3     1  UNL1       -0.1003
     29 C         -15.8360   -8.6896   17.3760 C.ar    1  UNL1        0.0461
     30 C         -17.1395   -8.1918   16.8257 C.ar    1  UNL1        0.1051
     31 N         -18.3971   -8.9784   17.0491 N.ar    1  UNL1       -0.2405
     32 C         -18.3511  -10.2626   17.8228 C.ar    1  UNL1        0.1129
     33 C         -17.0475  -10.7603   18.3732 C.ar    1  UNL1        0.0615
     34 N         -17.0014  -12.0445   19.1469 N.pl3   1  UNL1       -0.3558
     35 C         -15.7899   -9.9738   18.1497 C.ar    1  UNL1        0.0234
     36 H         -17.8268  -12.5608   19.2935 H       1  UNL1        0.1424
     37 H         -16.1458  -12.3712   19.5081 H       1  UNL1        0.1424
@<TRIPOS>BOND
     1    22    23    2
     2    23     1    1
     3     1     2    1
     4     1     3    1
     5     3     4    1
     6     4    24    1
     7    24    25    1
     8    25    26    2
     9    25    27    1
    10    27    28    1
    11    28    29    1
    12    29    30   ar
    13    30    31   ar
    14    31    32   ar
    15    32    33   ar
    16    33    34    1
    17    33    35   ar
    18     4     5    1
    19     5     6    1
    20     5     7    1
    21     7     8    1
    22     7     9    1
    23     9    10    1
    24    11    10    1
    25    11    12    1
    26    12    13    1
    27    13    14    1
    28    14    15    2
    29    16    14    1
    30    11    17    1
    31    17    18    1
    32    17    19    1
    33    19    20    1
    34    19     1    1
    35    35    29   ar
    36    16     5    1
    37    16    11    1
    38    34    36    1
    39    34    37    1
    40    20    21    1
@<TRIPOS>MOLECULE
*****
 37 40 0 0 0
SMALL
GASTEIGER

@<TRIPOS>ATOM
      1 C          -9.7201  -18.0657   21.0108 C.3     1  UNL1        0.0468
      2 C         -11.4165  -18.5437   19.8708 C.3     1  UNL1        0.0069
      3 C          -8.7740  -18.2520   21.0065 C.3     1  UNL1        0.0500
      4 C          -8.0274  -18.0026   21.5634 C.3     1  UNL1        0.1694
      5 C          -7.2526  -17.4387   22.5723 C.3     1  UNL1        0.0435
      6 C          -5.8275  -17.3856   23.0375 C.3     1  UNL1        0.0040
      7 C          -8.0681  -17.3408   22.4874 C.3     1  UNL1        0.0038
      8 C          -7.3630  -18.8763   20.5106 C.3     1  UNL1        0.0001
      9 C          -8.9148  -17.2448   22.3912 C.3     1  UNL1        0.0001
     10 C          -9.2703  -16.8214   22.8921 C.3     1  UNL1        0.0005
     11 C          -9.6441  -16.3508   23.4549 C.3     1  UNL1        0.0093
     12 C          -9.9364  -15.4636   24.6285 C.3     1  UNL1        0.0082
     13 C          -8.6453  -15.2052   25.3471 C.3     1  UNL1        0.0645
     14 C          -7.5551  -15.9327   24.6176 C.2     1  UNL1        0.1504
     15 O          -6.1027  -15.9492   24.9919 O.2     1  UNL1       -0.2961
     16 C          -8.1724  -16.6407   23.4481 C.3     1  UNL1        0.0610
     17 C         -10.2015  -17.0136   22.3656 C.3     1  UNL1        0.0276
     18 C         -12.0999  -16.1500   23.0663 C.3     1  UNL1        0.0025
     19 C         -10.3114  -17.5527   21.5738 C.3     1  UNL1        0.1141
     20 O         -12.4015  -17.6305   20.8915 O.3     1  UNL1       -0.3841
     21 H         -12.4615  -18.1820   20.0958 H       1  UNL1        0.2103
     22 C          -8.9918  -20.3970   18.8017 C.2     1  UNL1       -0.0048
     23 C          -9.8407  -19.2606   19.2893 C.2     1  UNL1       -0.0243
     24 O          -6.1291  -18.8662   20.8628 O.3     1  UNL1       -0.4516
     25 C          -5.8623  -20.3319   21.0370 C.2     1  UNL1        0.3283
     26 O          -6.3970  -21.0539   22.2381 O.2     1  UNL1       -0.2491
     27 C          -5.0610  -21.0756   20.0101 C.3     1  UNL1        0.1715
     28 S          -3.6295  -20.7025   19.7615 S.3     1  UNL1       -0.1003
     29 C          -3.1002  -19.3887   20.2551 C.ar    1  UNL1        0.0461
     30 C          -2.9457  -18.2379   19.3053 C.ar    1  UNL1        0.1051
     31 N          -2.4164  -16.9241   19.7989 N.ar    1  UNL1       -0.2405
     32 C          -2.0417  -16.7610   21.2422 C.ar    1  UNL1        0.1129
     33 C          -2.1962  -17.9117   22.1919 C.ar    1  UNL1        0.0615
     34 N          -1.8215  -17.7486   23.6352 N.pl3   1  UNL1       -0.3558
     35 C          -2.7255  -19.2256   21.6983 C.ar    1  UNL1        0.0234
     36 H          -1.4742  -16.8863   23.9592 H       1  UNL1        0.1424
     37 H          -1.9230  -18.5039   24.2585 H       1  UNL1        0.1424
@<TRIPOS>BOND
     1    22    23    2
     2    23     1    1
     3     1     2    1
     4     1     3    1
     5     3     4    1
     6     4    24    1
     7    24    25    1
     8    25    26    2
     9    25    27    1
    10    27    28    1
    11    28    29    1
    12    29    30   ar
    13    30    31   ar
    14    31    32   ar
    15    32    33   ar
    16    33    34    1
    17    33    35   ar
    18     4     5    1
    19     5     6    1
    20     5     7    1
    21     7     8    1
    22     7     9    1
    23     9    10    1
    24    11    10    1
    25    11    12    1
    26    12    13    1
    27    13    14    1
    28    14    15    2
    29    16    14    1
    30    11    17    1
    31    17    18    1
    32    17    19    1
    33    19    20    1
    34    19     1    1
    35    35    29   ar
    36    16     5    1
    37    16    11    1
    38    34    36    1
    39    34    37    1
    40    20    21    1
@<TRIPOS>MOLECULE
*****
 37 40 0 0 0
SMALL
GASTEIGER

@<TRIPOS>ATOM
      1 C           4.3621   -2.4030   22.2632 C.3     1  UNL1        0.0468
      2 C           5.7162   -3.5729   23.3603 C.3     1  UNL1        0.0069
      3 C           4.0694   -2.3072   21.3495 C.3     1  UNL1        0.0500
      4 C           3.4336   -1.7444   20.8926 C.3     1  UNL1        0.1694
      5 C           2.4624   -0.7854   20.6218 C.3     1  UNL1        0.0435
      6 C           1.6806   -0.2309   19.4679 C.3     1  UNL1        0.0040
      7 C           2.7787   -0.9451   21.3677 C.3     1  UNL1        0.0038
      8 C           3.9864   -2.5900   19.7558 C.3     1  UNL1        0.0001
      9 C           3.1130   -1.1178   22.1383 C.3     1  UNL1        0.0001
     10 C           2.8622   -0.7195   22.7171 C.3     1  UNL1        0.0005
     11 C           2.5725   -0.2695   23.3428 C.3     1  UNL1        0.0093
     12 C           1.8160    0.7205   24.1780 C.3     1  UNL1        0.0082
     13 C           0.8931    1.4812   23.2728 C.3     1  UNL1        0.0645
     14 C           1.0792    0.9615   21.8781 C.2     1  UNL1        0.1504
     15 O           0.3546    1.4398   20.6549 O.2     1  UNL1       -0.2961
     16 C           2.1172   -0.1205   21.9213 C.3     1  UNL1        0.0610
     17 C           3.5338   -1.2754   23.3662 C.3     1  UNL1        0.0276
     18 C           3.6212   -0.8658   25.5261 C.3     1  UNL1        0.0025
     19 C           4.1402   -1.9756   23.0986 C.3     1  UNL1        0.1141
     20 O           5.2868   -2.7888   24.7910 O.3     1  UNL1       -0.3841
     21 H           5.8804   -3.4872   24.4736 H       1  UNL1        0.2103
     22 C           6.9238   -3.8546   20.7879 C.2     1  UNL1       -0.0048
     23 C           5.6436   -3.9129   21.5675 C.2     1  UNL1       -0.0243
     24 O           3.3462   -2.1539   18.7329 O.3     1  UNL1       -0.4516
     25 C           4.5153   -1.8136   17.8570 C.2     1  UNL1        0.3283
     26 O           5.6438   -2.7892   17.6999 O.2     1  UNL1       -0.2491
     27 C           4.5560   -0.4978   17.1381 C.3     1  UNL1        0.1715
     28 S           5.4514    0.5995   17.6323 S.3     1  UNL1       -0.1003
     29 C           5.4048    1.0140   19.0731 C.ar    1  UNL1        0.0461
     30 C           4.4758    2.1080   19.5091 C.ar    1  UNL1        0.1051
     31 N           4.4292    2.5225   20.9500 N.ar    1  UNL1       -0.2405
     32 C           5.3116    1.8429   21.9548 C.ar    1  UNL1        0.1129
     33 C           6.2406    0.7489   21.5188 C.ar    1  UNL1        0.0615
     34 N           7.1230    0.0694   22.5236 N.pl3   1  UNL1       -0.3558
     35 C           6.2872    0.3345   20.0779 C.ar    1  UNL1        0.0234
     36 H           7.0925    0.3414   23.4693 H       1  UNL1        0.1424
     37 H           7.7328   -0.6486   22.2374 H       1  UNL1        0.1424
@<TRIPOS>BOND
     1    22    23    2
     2    23     1    1
     3     1     2    1
     4     1     3    1
     5     3     4    1
     6     4    24    1
     7    24    25    1
     8    25    26    2
     9    25    27    1
    10    27    28    1
    11    28    29    1
    12    29    30   ar
    13    30    31   ar
    14    31    32   ar
    15    32    33   ar
    16    33    34    1
    17    33    35   ar
    18     4     5    1
    19     5     6    1
    20     5     7    1
    21     7     8    1
    22     7     9    1
    23     9    10    1
    24    11    10    1
    25    11    12    1
    26    12    13    1
    27    13    14    1
    28    14    15    2
    29    16    14    1
    30    11    17    1
    31    17    18    1
    32    17    19    1
    33    19    20    1
    34    19     1    1
    35    35    29   ar
    36    16     5    1
    37    16    11    1
    38    34    36    1
    39    34    37    1
    40    20    21    1
@<TRIPOS>MOLECULE
*****
 37 40 0 0 0
SMALL
GASTEIGER

@<TRIPOS>ATOM
      1 C         -12.0285   -4.9906   19.0903 C.3     1  UNL1        0.0468
      2 C          -9.9416   -5.0847   18.8851 C.3     1  UNL1        0.0069
      3 C         -12.7731   -5.5991   19.1598 C.3     1  UNL1        0.0500
      4 C         -13.7277   -5.5007   19.2540 C.3     1  UNL1        0.1694
      5 C         -15.0006   -4.9534   19.3820 C.3     1  UNL1        0.0435
      6 C         -16.4312   -5.3829   19.5198 C.3     1  UNL1        0.0040
      7 C         -14.3006   -4.5203   19.3159 C.3     1  UNL1        0.0038
      8 C         -13.5633   -7.0125   19.2290 C.3     1  UNL1        0.0001
      9 C         -13.5687   -4.0788   19.2467 C.3     1  UNL1        0.0001
     10 C         -13.6158   -3.3344   19.2557 C.3     1  UNL1        0.0005
     11 C         -13.6890   -2.5144   19.2677 C.3     1  UNL1        0.0093
     12 C         -14.2266   -1.1153   19.3286 C.3     1  UNL1        0.0082
     13 C         -15.7172   -1.1976   19.4743 C.3     1  UNL1        0.0645
     14 C         -16.1009   -2.6474   19.5034 C.2     1  UNL1        0.1504
     15 O         -17.4936   -3.1883   19.6369 O.2     1  UNL1       -0.2961
     16 C         -14.8474   -3.4612   19.3757 C.3     1  UNL1        0.0610
     17 C         -12.5353   -3.2835   19.1500 C.3     1  UNL1        0.0276
     18 C         -11.4942   -1.3475   19.0593 C.3     1  UNL1        0.0025
     19 C         -11.9300   -4.0313   19.0863 C.3     1  UNL1        0.1141
     20 O          -9.8318   -3.4013   18.8842 O.3     1  UNL1       -0.3841
     21 H          -9.2633   -4.1849   18.8238 H       1  UNL1        0.2103
     22 C         -10.5717   -7.6700   17.8477 C.2     1  UNL1       -0.0048
     23 C         -10.8058   -6.6918   18.9605 C.2     1  UNL1       -0.0243
     24 O         -14.7687   -7.4367   19.3448 O.3     1  UNL1       -0.4516
     25 C         -14.6576   -8.4024   18.2024 C.2     1  UNL1        0.3283
     26 O         -13.9912   -7.9811   16.9263 O.2     1  UNL1       -0.2491
     27 C         -15.2127   -9.7894   18.3361 C.3     1  UNL1        0.1715
     28 S         -16.6474  -10.0595   17.9912 S.3     1  UNL1       -0.1003
     29 C         -17.6975   -9.0316   18.2921 C.ar    1  UNL1        0.0461
     30 C         -18.0733   -8.0170   17.2532 C.ar    1  UNL1        0.1051
     31 N         -19.1235   -6.9890   17.5542 N.ar    1  UNL1       -0.2405
     32 C         -19.7977   -6.9757   18.8940 C.ar    1  UNL1        0.1129
     33 C         -19.4219   -7.9903   19.9330 C.ar    1  UNL1        0.0615
     34 N         -20.0961   -7.9770   21.2728 N.pl3   1  UNL1       -0.3558
     35 C         -18.3718   -9.0182   19.6320 C.ar    1  UNL1        0.0234
     36 H         -20.7854   -7.3023   21.4704 H       1  UNL1        0.1424
     37 H         -19.8494   -8.6429   21.9547 H       1  UNL1        0.1424
@<TRIPOS>BOND
     1    22    23    2
     2    23     1    1
     3     1     2    1
     4     1     3    1
     5     3     4    1
     6     4    24    1
     7    24    25    1
     8    25    26    2
     9    25    27    1
    10    27    28    1
    11    28    29    1
    12    29    30   ar
    13    30    31   ar
    14    31    32   ar
    15    32    33   ar
    16    33    34    1
    17    33    35   ar
    18     4     5    1
    19     5     6    1
    20     5     7    1
    21     7     8    1
    22     7     9    1
    23     9    10    1
    24    11    10    1
    25    11    12    1
    26    12    13    1
    27    13    14    1
    28    14    15    2
    29    16    14    1
    30    11    17    1
    31    17    18    1
    32    17    19    1
    33    19    20    1
    34    19     1    1
    35    35    29   ar
    36    16     5    1
    37    16    11    1
    38    34    36    1
    39    34    37    1
    40    20    21    1
@<TRIPOS>MOLECULE
*****
 37 40 0 0 0
SMALL
GASTEIGER

@<TRIPOS>ATOM
      1 C           2.3330   -0.5227   21.1883 C.3     1  UNL1        0.0468
      2 C           0.8260    0.9352   21.2856 C.3     1  UNL1        0.0069
      3 C           2.7622   -1.0708   20.5212 C.3     1  UNL1        0.0500
      4 C           3.4610   -1.7353   20.5311 C.3     1  UNL1        0.1694
      5 C           4.4629   -2.6032   20.9542 C.3     1  UNL1        0.0435
      6 C           5.4125   -3.6241   20.4009 C.3     1  UNL1        0.0040
      7 C           4.0359   -2.0941   21.4444 C.3     1  UNL1        0.0038
      8 C           3.0881   -1.6857   19.0575 C.3     1  UNL1        0.0001
      9 C           3.5874   -1.5621   21.9458 C.3     1  UNL1        0.0001
     10 C           3.7468   -1.5629   22.6745 C.3     1  UNL1        0.0005
     11 C           3.9376   -1.5786   23.4753 C.3     1  UNL1        0.0093
     12 C           4.5580   -1.8945   24.8040 C.3     1  UNL1        0.0082
     13 C           5.6092   -2.9423   24.5873 C.3     1  UNL1        0.0645
     14 C           5.6385   -3.2740   23.1247 C.2     1  UNL1        0.1504
     15 O           6.5422   -4.2732   22.4652 O.2     1  UNL1       -0.2961
     16 C           4.6054   -2.4312   22.4375 C.3     1  UNL1        0.0610
     17 C           2.9834   -0.8037   22.8230 C.3     1  UNL1        0.0276
     18 C           2.5665    0.0097   24.8243 C.3     1  UNL1        0.0025
     19 C           2.4246   -0.4120   22.1418 C.3     1  UNL1        0.1141
     20 O           1.0318    1.0852   22.9533 O.3     1  UNL1       -0.3841
     21 H           0.4933    1.4495   22.2335 H       1  UNL1        0.2103
     22 C           1.5264    1.1387   18.4615 C.2     1  UNL1       -0.0048
     23 C           1.1721    0.2600   19.6244 C.2     1  UNL1       -0.0243
     24 O           3.8778   -2.5486   18.5300 O.3     1  UNL1       -0.4516
     25 C           4.6086   -1.7156   17.5191 C.2     1  UNL1        0.3283
     26 O           3.8618   -1.1021   16.3719 O.2     1  UNL1       -0.2491
     27 C           6.0862   -1.4961   17.6552 C.3     1  UNL1        0.1715
     28 S           6.6112   -0.1454   18.0426 S.3     1  UNL1       -0.1003
     29 C           6.2688    0.4366   19.3820 C.ar    1  UNL1        0.0461
     30 C           7.0133   -0.0087   20.6057 C.ar    1  UNL1        0.1051
     31 N           6.6708    0.5733   21.9451 N.ar    1  UNL1       -0.2405
     32 C           5.5838    1.6005   22.0608 C.ar    1  UNL1        0.1129
     33 C           4.8393    2.0458   20.8371 C.ar    1  UNL1        0.0615
     34 N           3.7524    3.0730   20.9527 N.pl3   1  UNL1       -0.3558
     35 C           5.1818    1.4638   19.4976 C.ar    1  UNL1        0.0234
     36 H           3.5276    3.4550   21.8318 H       1  UNL1        0.1424
     37 H           3.2638    3.3652   20.1495 H       1  UNL1        0.1424
@<TRIPOS>BOND
     1    22    23    2
     2    23     1    1
     3     1     2    1
     4     1     3    1
     5     3     4    1
     6     4    24    1
     7    24    25    1
     8    25    26    2
     9    25    27    1
    10    27    28    1
    11    28    29    1
    12    29    30   ar
    13    30    31   ar
    14    31    32   ar
    15    32    33   ar
    16    33    34    1
    17    33    35   ar
    18     4     5    1
    19     5     6    1
    20     5     7    1
    21     7     8    1
    22     7     9    1
    23     9    10    1
    24    11    10    1
    25    11    12    1
    26    12    13    1
    27    13    14    1
    28    14    15    2
    29    16    14    1
    30    11    17    1
    31    17    18    1
    32    17    19    1
    33    19    20    1
    34    19     1    1
    35    35    29   ar
    36    16     5    1
    37    16    11    1
    38    34    36    1
    39    34    37    1
    40    20    21    1
@<TRIPOS>MOLECULE
*****
 37 40 0 0 0
SMALL
GASTEIGER

@<TRIPOS>ATOM
      1 C          -7.0354  -16.8588   23.1723 C.3     1  UNL1        0.0468
      2 C          -5.5844  -15.9216   24.3647 C.3     1  UNL1        0.0069
      3 C          -7.0717  -17.5025   22.4553 C.3     1  UNL1        0.0500
      4 C          -7.7770  -17.9046   21.9350 C.3     1  UNL1        0.1694
      5 C          -9.0294  -18.2404   21.4300 C.3     1  UNL1        0.0435
      6 C          -9.6537  -19.1208   20.3884 C.3     1  UNL1        0.0040
      7 C          -8.8911  -17.7022   22.0409 C.3     1  UNL1        0.0038
      8 C          -6.5348  -18.5552   21.3461 C.3     1  UNL1        0.0001
      9 C          -8.7378  -17.1450   22.6745 C.3     1  UNL1        0.0001
     10 C          -9.3272  -16.8087   22.9845 C.3     1  UNL1        0.0005
     11 C          -9.9904  -16.4483   23.3134 C.3     1  UNL1        0.0093
     12 C         -11.3949  -16.0277   23.6302 C.3     1  UNL1        0.0082
     13 C         -12.3194  -16.7691   22.7106 C.3     1  UNL1        0.0645
     14 C         -11.4862  -17.6480   21.8255 C.2     1  UNL1        0.1504
     15 O         -12.0019  -18.5642   20.7556 O.2     1  UNL1       -0.2961
     16 C         -10.0468  -17.4497   22.1980 C.3     1  UNL1        0.0610
     17 C          -8.6505  -16.2754   23.6471 C.3     1  UNL1        0.0276
     18 C          -9.4134  -14.8529   25.1420 C.3     1  UNL1        0.0025
     19 C          -7.6895  -16.3505   23.6660 C.3     1  UNL1        0.1141
     20 O          -6.7738  -15.0592   25.1938 O.3     1  UNL1       -0.3841
     21 H          -5.8103  -15.1689   25.1746 H       1  UNL1        0.2103
     22 C          -4.0789  -18.2931   23.3909 C.2     1  UNL1       -0.0048
     23 C          -4.9512  -17.1024   23.1237 C.2     1  UNL1       -0.0243
     24 O          -7.0142  -19.3271   20.4401 O.3     1  UNL1       -0.4516
     25 C          -6.1681  -20.4878   20.8724 C.2     1  UNL1        0.3283
     26 O          -6.3799  -21.1089   22.2212 O.2     1  UNL1       -0.2491
     27 C          -5.1103  -21.0273   19.9560 C.3     1  UNL1        0.1715
     28 S          -3.6606  -20.8555   20.3007 S.3     1  UNL1       -0.1003
     29 C          -2.9903  -19.5309   20.0855 C.ar    1  UNL1        0.0461
     30 C          -1.7389  -19.1922   20.8400 C.ar    1  UNL1        0.1051
     31 N          -1.0687  -17.8676   20.6248 N.ar    1  UNL1       -0.2405
     32 C          -1.6499  -16.8818   19.6551 C.ar    1  UNL1        0.1129
     33 C          -2.9013  -17.2204   18.9006 C.ar    1  UNL1        0.0615
     34 N          -3.4825  -16.2346   17.9309 N.pl3   1  UNL1       -0.3558
     35 C          -3.5715  -18.5450   19.1158 C.ar    1  UNL1        0.0234
     36 H          -3.0426  -15.3652   17.7896 H       1  UNL1        0.1424
     37 H          -4.3038  -16.4569   17.4357 H       1  UNL1        0.1424
@<TRIPOS>BOND
     1    22    23    2
     2    23     1    1
     3     1     2    1
     4     1     3    1
     5     3     4    1
     6     4    24    1
     7    24    25    1
     8    25    26    2
     9    25    27    1
    10    27    28    1
    11    28    29    1
    12    29    30   ar
    13    30    31   ar
    14    31    32   ar
    15    32    33   ar
    16    33    34    1
    17    33    35   ar
    18     4     5    1
    19     5     6    1
    20     5     7    1
    21     7     8    1
    22     7     9    1
    23     9    10    1
    24    11    10    1
    25    11    12    1
    26    12    13    1
    27    13    14    1
    28    14    15    2
    29    16    14    1
    30    11    17    1
    31    17    18    1
    32    17    19    1
    33    19    20    1
    34    19     1    1
    35    35    29   ar
    36    16     5    1
    37    16    11    1
    38    34    36    1
    39    34    37    1
    40    20    21    1
@<TRIPOS>MOLECULE
*****
 37 40 0 0 0
SMALL
GASTEIGER

@<TRIPOS>ATOM
      1 C           2.7449   -0.7158   22.1173 C.3     1  UNL1        0.0468
      2 C           1.4953    0.6350   23.1270 C.3     1  UNL1        0.0069
      3 C           2.9016   -1.0141   21.2139 C.3     1  UNL1        0.0500
      4 C           3.4982   -1.6479   20.7988 C.3     1  UNL1        0.1694
      5 C           4.4811   -2.6120   20.5972 C.3     1  UNL1        0.0435
      6 C           5.1152   -3.3966   19.4872 C.3     1  UNL1        0.0040
      7 C           4.2712   -2.2918   21.3289 C.3     1  UNL1        0.0038
      8 C           2.7221   -1.1110   19.6060 C.3     1  UNL1        0.0001
      9 C           4.0466   -1.9537   22.0844 C.3     1  UNL1        0.0001
     10 C           4.4092   -2.1966   22.6893 C.3     1  UNL1        0.0005
     11 C           4.8209   -2.4777   23.3447 C.3     1  UNL1        0.0093
     12 C           5.7621   -3.2190   24.2473 C.3     1  UNL1        0.0082
     13 C           6.5873   -4.1411   23.3996 C.3     1  UNL1        0.0645
     14 C           6.1563   -3.9697   21.9731 C.2     1  UNL1        0.1504
     15 O           6.7183   -4.6985   20.7886 O.2     1  UNL1       -0.2961
     16 C           5.0645   -2.9416   21.9392 C.3     1  UNL1        0.0610
     17 C           3.8070   -1.5257   23.2964 C.3     1  UNL1        0.0276
     18 C           4.0768   -1.4192   25.4773 C.3     1  UNL1        0.0025
     19 C           3.1200   -0.9278   22.9800 C.3     1  UNL1        0.1141
     20 O           2.1900    0.2231   24.6081 O.3     1  UNL1       -0.3841
     21 H           1.5082    0.8079   24.2421 H       1  UNL1        0.2103
     22 C           0.1368    0.2824   20.3718 C.2     1  UNL1       -0.0048
     23 C           1.2714    0.5465   21.3167 C.2     1  UNL1       -0.0243
     24 O           3.2284   -1.7544   18.6180 O.3     1  UNL1       -0.4516
     25 C           3.7221   -0.6385   17.7457 C.2     1  UNL1        0.3283
     26 O           4.0858   -0.9091   16.3158 O.2     1  UNL1       -0.2491
     27 C           3.8521    0.7479   18.3032 C.3     1  UNL1        0.1715
     28 S           5.2097    1.3123   18.6008 S.3     1  UNL1       -0.1003
     29 C           6.0268    0.7475   19.7247 C.ar    1  UNL1        0.0461
     30 C           7.0646   -0.2989   19.4452 C.ar    1  UNL1        0.1051
     31 N           7.8818   -0.8637   20.5691 N.ar    1  UNL1       -0.2405
     32 C           7.6612   -0.3822   21.9725 C.ar    1  UNL1        0.1129
     33 C           6.6234    0.6641   22.2520 C.ar    1  UNL1        0.0615
     34 N           6.4027    1.1456   23.6554 N.pl3   1  UNL1       -0.3558
     35 C           5.8062    1.2290   21.1281 C.ar    1  UNL1        0.0234
     36 H           6.9391    0.7749   24.3931 H       1  UNL1        0.1424
     37 H           5.7216    1.8324   23.8388 H       1  UNL1        0.1424
@<TRIPOS>BOND
     1    22    23    2
     2    23     1    1
     3     1     2    1
     4     1     3    1
     5     3     4    1
     6     4    24    1
     7    24    25    1
     8    25    26    2
     9    25    27    1
    10    27    28    1
    11    28    29    1
    12    29    30   ar
    13    30    31   ar
    14    31    32   ar
    15    32    33   ar
    16    33    34    1
    17    33    35   ar
    18     4     5    1
    19     5     6    1
    20     5     7    1
    21     7     8    1
    22     7     9    1
    23     9    10    1
    24    11    10    1
    25    11    12    1
    26    12    13    1
    27    13    14    1
    28    14    15    2
    29    16    14    1
    30    11    17    1
    31    17    18    1
    32    17    19    1
    33    19    20    1
    34    19     1    1
    35    35    29   ar
    36    16     5    1
    37    16    11    1
    38    34    36    1
    39    34    37    1
    40    20    21    1
@<TRIPOS>MOLECULE
*****
 37 40 0 0 0
SMALL
GASTEIGER

@<TRIPOS>ATOM
      1 C          -7.2372  -19.5624   20.8588 C.3     1  UNL1        0.0468
      2 C          -6.3643  -21.0913   19.7159 C.3     1  UNL1        0.0069
      3 C          -6.9938  -18.9802   21.5878 C.3     1  UNL1        0.0500
      4 C          -7.4409  -18.2839   22.0829 C.3     1  UNL1        0.1694
      5 C          -8.3966  -17.3793   22.5350 C.3     1  UNL1        0.0435
      6 C          -8.5681  -16.3029   23.5656 C.3     1  UNL1        0.0040
      7 C          -8.5054  -17.9186   21.9192 C.3     1  UNL1        0.0038
      8 C          -6.0722  -18.3185   22.7452 C.3     1  UNL1        0.0001
      9 C          -8.6092  -18.4820   21.2810 C.3     1  UNL1        0.0001
     10 C          -9.2703  -18.4898   20.9356 C.3     1  UNL1        0.0005
     11 C         -10.0066  -18.4828   20.5672 C.3     1  UNL1        0.0093
     12 C         -11.4194  -18.1673   20.1740 C.3     1  UNL1        0.0082
     13 C         -11.9137  -17.0667   21.0652 C.3     1  UNL1        0.0645
     14 C         -10.8065  -16.7018   22.0091 C.2     1  UNL1        0.1504
     15 O         -10.8673  -15.6470   23.0738 O.2     1  UNL1       -0.2961
     16 C          -9.6278  -17.5771   21.7013 C.3     1  UNL1        0.0610
     17 C          -8.9044  -19.2871   20.2940 C.3     1  UNL1        0.0276
     18 C         -10.1825  -20.1631   18.7320 C.3     1  UNL1        0.0025
     19 C          -8.0287  -19.6895   20.3228 C.3     1  UNL1        0.1141
     20 O          -7.7773  -21.2682   18.8113 O.3     1  UNL1       -0.3841
     21 H          -6.8846  -21.6414   18.8790 H       1  UNL1        0.2103
     22 C          -4.0726  -20.1686   20.1778 C.2     1  UNL1       -0.0048
     23 C          -5.3035  -20.3642   21.0124 C.2     1  UNL1       -0.0243
     24 O          -6.1629  -17.4080   23.6448 O.3     1  UNL1       -0.4516
     25 C          -4.7872  -16.9187   23.3013 C.2     1  UNL1        0.3283
     26 O          -4.5508  -15.4583   23.0536 O.2     1  UNL1       -0.2491
     27 C          -3.6480  -17.8896   23.2056 C.3     1  UNL1        0.1715
     28 S          -2.3203  -17.4380   22.6732 S.3     1  UNL1       -0.1003
     29 C          -2.0171  -17.5634   21.2096 C.ar    1  UNL1        0.0461
     30 C          -0.8126  -18.3342   20.7566 C.ar    1  UNL1        0.1051
     31 N          -0.5094  -18.4596   19.2929 N.ar    1  UNL1       -0.2405
     32 C          -1.4106  -17.8143   18.2823 C.ar    1  UNL1        0.1129
     33 C          -2.6150  -17.0435   18.7352 C.ar    1  UNL1        0.0615
     34 N          -3.5163  -16.3982   17.7246 N.pl3   1  UNL1       -0.3558
     35 C          -2.9183  -16.9181   20.1989 C.ar    1  UNL1        0.0234
     36 H          -3.3173  -16.4805   16.7640 H       1  UNL1        0.1424
     37 H          -4.3068  -15.8923   18.0220 H       1  UNL1        0.1424
@<TRIPOS>BOND
     1    22    23    2
     2    23     1    1
     3     1     2    1
     4     1     3    1
     5     3     4    1
     6     4    24    1
     7    24    25    1
     8    25    26    2
     9    25    27    1
    10    27    28    1
    11    28    29    1
    12    29    30   ar
    13    30    31   ar
    14    31    32   ar
    15    32    33   ar
    16    33    34    1
    17    33    35   ar
    18     4     5    1
    19     5     6    1
    20     5     7    1
    21     7     8    1
    22     7     9    1
    23     9    10    1
    24    11    10    1
    25    11    12    1
    26    12    13    1
    27    13    14    1
    28    14    15    2
    29    16    14    1
    30    11    17    1
    31    17    18    1
    32    17    19    1
    33    19    20    1
    34    19     1    1
    35    35    29   ar
    36    16     5    1
    37    16    11    1
    38    34    36    1
    39    34    37    1
    40    20    21    1
