@<TRIPOS>MOLECULE
*****
 36 40 0 0 0
SMALL
GASTEIGER

@<TRIPOS>ATOM
      1 N          -9.0112  -18.2251   21.2366 N.3     1  UNL1       -0.2679
      2 C          -9.5934  -18.9136   22.4353 C.3     1  UNL1        0.0978
      3 C          -8.8233  -20.0019   23.1227 C.3     1  UNL1        0.0224
      4 C          -9.4056  -20.6905   24.3215 C.3     1  UNL1        0.0065
      5 C         -10.7578  -20.2907   24.8327 C.3     1  UNL1        0.0277
      6 C         -11.5279  -19.2024   24.1453 C.ar    1  UNL1       -0.0073
      7 C         -12.8802  -18.8027   24.6566 C.ar    1  UNL1       -0.0015
      8 C         -13.6503  -17.7144   23.9692 C.ar    1  UNL1        0.0203
      9 C         -13.0681  -17.0258   22.7705 C.ar    1  UNL1        0.0985
     10 N         -11.7158  -17.4256   22.2593 N.ar    1  UNL1       -0.2471
     11 C         -10.9457  -18.5139   22.9467 C.ar    1  UNL1        0.0695
     12 C          -8.3878  -16.8683   21.3802 C.3     1  UNL1        0.0886
     13 C          -6.7475  -14.9341   27.7692 C.ar    1  UNL1       -0.0003
     14 C          -8.2403  -15.0173   27.6493 C.ar    1  UNL1       -0.0003
     15 C          -8.8670  -15.4208   26.3476 C.ar    1  UNL1       -0.0045
     16 C          -8.0007  -15.7411   25.1657 C.ar    1  UNL1       -0.0234
     17 C          -6.5079  -15.6579   25.2855 C.ar    1  UNL1       -0.0103
     18 C          -5.8812  -15.2544   26.5872 C.ar    1  UNL1       -0.0032
     19 C          -5.6416  -15.9782   24.1035 C.3     1  UNL1        0.0953
     20 N          -6.2682  -16.3816   22.8017 N.3     1  UNL1       -0.2934
     21 C          -7.7612  -16.4648   22.6820 C.3     1  UNL1        0.0748
     22 C          -8.6274  -16.1445   23.8639 C.3     1  UNL1        0.0432
     23 H          -5.9025  -17.3059   22.5729 H       1  UNL1        0.1236
     24 C          -9.0523  -18.8932   19.8943 C.3     1  UNL1        0.0725
     25 C          -7.8973  -19.7356   19.4401 C.3     1  UNL1        0.0188
     26 C          -6.4994  -19.3727   19.8452 C.3     1  UNL1        0.0185
     27 C          -5.8476  -20.0731   21.0005 C.3     1  UNL1        0.0686
     28 N          -5.4194  -19.2911   22.2068 N.3     1  UNL1       -0.2975
     29 H          -5.9536  -19.6526   22.9969 H       1  UNL1        0.1232
     30 C          -3.9787  -19.2855   22.6243 C.3     1  UNL1        0.0687
     31 C          -2.9738  -18.4942   21.8408 C.3     1  UNL1        0.0207
     32 C          -2.6694  -17.0770   22.2266 C.3     1  UNL1        0.0335
     33 C          -1.6645  -16.2857   21.4430 C.3     1  UNL1        0.1422
     34 O          -0.9639  -16.9116   20.2737 O.3     1  UNL1       -0.3538
     35 C          -1.2683  -18.3287   19.8879 C.3     1  UNL1        0.1422
     36 C          -2.2732  -19.1200   20.6714 C.3     1  UNL1        0.0335
@<TRIPOS>BOND
     1    13    14   ar
     2    14    15   ar
     3    15    16   ar
     4    16    17   ar
     5    17    18   ar
     6    17    19    1
     7    19    20    1
     8    20    21    1
     9    21    12    1
    10    12     1    1
    11     1    24    1
    12    24    25    1
    13    25    26    1
    14    26    27    1
    15    27    28    1
    16    28    30    1
    17    30    31    1
    18    31    32    1
    19    32    33    1
    20    33    34    1
    21    34    35    1
    22    35    36    1
    23     2     1    1
    24     2     3    1
    25     3     4    1
    26     4     5    1
    27     5     6    1
    28     6     7   ar
    29     7     8   ar
    30     8     9   ar
    31     9    10   ar
    32    10    11   ar
    33    21    22    1
    34    18    13   ar
    35    36    31    1
    36    11     2    1
    37    22    16    1
    38    11     6   ar
    39    20    23    1
    40    28    29    1
@<TRIPOS>MOLECULE
*****
 36 40 0 0 0
SMALL
GASTEIGER

@<TRIPOS>ATOM
      1 N         -10.6248  -16.8041   21.1040 N.3     1  UNL1       -0.2679
      2 C         -11.3216  -17.4695   22.2536 C.3     1  UNL1        0.0978
      3 C         -12.6845  -17.0056   22.6746 C.3     1  UNL1        0.0224
      4 C         -13.3813  -17.6712   23.8243 C.3     1  UNL1        0.0065
      5 C         -12.7152  -18.8005   24.5528 C.3     1  UNL1        0.0277
      6 C         -11.3523  -19.2644   24.1317 C.ar    1  UNL1       -0.0073
      7 C         -10.6862  -20.3938   24.8602 C.ar    1  UNL1       -0.0015
      8 C          -9.3233  -20.8577   24.4392 C.ar    1  UNL1        0.0203
      9 C          -8.6265  -20.1922   23.2896 C.ar    1  UNL1        0.0985
     10 N          -9.2926  -19.0629   22.5611 N.ar    1  UNL1       -0.2471
     11 C         -10.6555  -18.5990   22.9821 C.ar    1  UNL1        0.0695
     12 C          -9.7766  -15.5900   21.3423 C.3     1  UNL1        0.0886
     13 C          -6.3789  -15.5642   27.3176 C.ar    1  UNL1       -0.0003
     14 C          -7.8514  -15.6499   27.5904 C.ar    1  UNL1       -0.0003
     15 C          -8.8254  -15.6722   26.4499 C.ar    1  UNL1       -0.0045
     16 C          -8.3270  -15.6088   25.0366 C.ar    1  UNL1       -0.0234
     17 C          -6.8545  -15.5231   24.7638 C.ar    1  UNL1       -0.0103
     18 C          -5.8805  -15.5008   25.9043 C.ar    1  UNL1       -0.0032
     19 C          -6.3560  -15.4597   23.3504 C.3     1  UNL1        0.0953
     20 N          -7.3300  -15.4820   22.2099 N.3     1  UNL1       -0.2934
     21 C          -8.8026  -15.5677   22.4828 C.3     1  UNL1        0.0748
     22 C          -9.3010  -15.6311   23.8961 C.3     1  UNL1        0.0432
     23 H          -7.0900  -16.2885   21.6334 H       1  UNL1        0.1236
     24 C         -10.7762  -17.3526   19.7161 C.3     1  UNL1        0.0725
     25 C         -11.1213  -18.7983   19.5145 C.3     1  UNL1        0.0188
     26 C         -10.0321  -19.8279   19.4532 C.3     1  UNL1        0.0185
     27 C          -8.6625  -19.4434   18.9773 C.3     1  UNL1        0.0686
     28 N          -7.5804  -19.1420   19.9714 N.3     1  UNL1       -0.2975
     29 H          -8.0429  -18.9377   20.8572 H       1  UNL1        0.1232
     30 C          -6.5221  -20.1648   20.2611 C.3     1  UNL1        0.0687
     31 C          -5.2421  -19.7521   20.9253 C.3     1  UNL1        0.0207
     32 C          -3.9261  -20.1958   20.3585 C.3     1  UNL1        0.0335
     33 C          -2.6460  -19.7831   21.0226 C.3     1  UNL1        0.1422
     34 O          -2.6819  -18.9268   22.2536 O.3     1  UNL1       -0.3538
     35 C          -3.9979  -18.4832   22.8205 C.3     1  UNL1        0.1422
     36 C          -5.2780  -18.8958   22.1563 C.3     1  UNL1        0.0335
@<TRIPOS>BOND
     1    13    14   ar
     2    14    15   ar
     3    15    16   ar
     4    16    17   ar
     5    17    18   ar
     6    17    19    1
     7    19    20    1
     8    20    21    1
     9    21    12    1
    10    12     1    1
    11     1    24    1
    12    24    25    1
    13    25    26    1
    14    26    27    1
    15    27    28    1
    16    28    30    1
    17    30    31    1
    18    31    32    1
    19    32    33    1
    20    33    34    1
    21    34    35    1
    22    35    36    1
    23     2     1    1
    24     2     3    1
    25     3     4    1
    26     4     5    1
    27     5     6    1
    28     6     7   ar
    29     7     8   ar
    30     8     9   ar
    31     9    10   ar
    32    10    11   ar
    33    21    22    1
    34    18    13   ar
    35    36    31    1
    36    11     2    1
    37    22    16    1
    38    11     6   ar
    39    20    23    1
    40    28    29    1
@<TRIPOS>MOLECULE
*****
 36 40 0 0 0
SMALL
GASTEIGER

@<TRIPOS>ATOM
      1 N          -7.5774  -19.5919   21.5954 N.3     1  UNL1       -0.2679
      2 C          -8.3531  -19.2125   22.8219 C.3     1  UNL1        0.0978
      3 C          -9.2595  -20.2132   23.4754 C.3     1  UNL1        0.0224
      4 C         -10.0352  -19.8338   24.7020 C.3     1  UNL1        0.0065
      5 C          -9.9044  -18.4538   25.2750 C.3     1  UNL1        0.0277
      6 C          -8.9980  -17.4531   24.6216 C.ar    1  UNL1       -0.0073
      7 C          -8.8671  -16.0731   25.1946 C.ar    1  UNL1       -0.0015
      8 C          -7.9607  -15.0725   24.5412 C.ar    1  UNL1        0.0203
      9 C          -7.1850  -15.4518   23.3146 C.ar    1  UNL1        0.0985
     10 N          -7.3158  -16.8318   22.7416 N.ar    1  UNL1       -0.2471
     11 C          -8.2223  -17.8325   23.3950 C.ar    1  UNL1        0.0695
     12 C          -6.2327  -20.2428   21.7299 C.3     1  UNL1        0.0886
     13 C          -0.4451  -16.8988   20.1263 C.ar    1  UNL1       -0.0003
     14 C          -0.8910  -17.7043   18.9421 C.ar    1  UNL1       -0.0003
     15 C          -2.1376  -18.5342   19.0260 C.ar    1  UNL1       -0.0045
     16 C          -2.9385  -18.5586   20.2940 C.ar    1  UNL1       -0.0234
     17 C          -2.4926  -17.7531   21.4782 C.ar    1  UNL1       -0.0103
     18 C          -1.2460  -16.9231   21.3943 C.ar    1  UNL1       -0.0032
     19 C          -3.2935  -17.7774   22.7464 C.3     1  UNL1        0.0953
     20 N          -4.5402  -18.6073   22.8302 N.3     1  UNL1       -0.2934
     21 C          -4.9860  -19.4129   21.6460 C.3     1  UNL1        0.0748
     22 C          -4.1852  -19.3885   20.3779 C.3     1  UNL1        0.0432
     23 H          -5.3035  -17.9699   23.0570 H       1  UNL1        0.1236
     24 C          -8.1465  -19.3203   20.2343 C.3     1  UNL1        0.0725
     25 C          -9.3868  -20.0335   19.7841 C.3     1  UNL1        0.0188
     26 C         -10.7281  -19.3824   19.9490 C.3     1  UNL1        0.0185
     27 C         -11.5913  -19.7308   21.1253 C.3     1  UNL1        0.0686
     28 N         -12.0147  -18.6610   22.0878 N.3     1  UNL1       -0.2975
     29 H         -11.1887  -18.4101   22.6311 H       1  UNL1        0.1232
     30 C         -12.6009  -17.3794   21.5743 C.3     1  UNL1        0.0687
     31 C         -11.7378  -16.4058   20.8279 C.3     1  UNL1        0.0207
     32 C         -10.4971  -15.8587   21.4690 C.3     1  UNL1        0.0335
     33 C          -9.6340  -14.8851   20.7225 C.3     1  UNL1        0.1422
     34 O         -10.0116  -14.4587   19.3350 O.3     1  UNL1       -0.3538
     35 C         -11.2524  -15.0058   18.6938 C.3     1  UNL1        0.1422
     36 C         -12.1155  -15.9794   19.4403 C.3     1  UNL1        0.0335
@<TRIPOS>BOND
     1    13    14   ar
     2    14    15   ar
     3    15    16   ar
     4    16    17   ar
     5    17    18   ar
     6    17    19    1
     7    19    20    1
     8    20    21    1
     9    21    12    1
    10    12     1    1
    11     1    24    1
    12    24    25    1
    13    25    26    1
    14    26    27    1
    15    27    28    1
    16    28    30    1
    17    30    31    1
    18    31    32    1
    19    32    33    1
    20    33    34    1
    21    34    35    1
    22    35    36    1
    23     2     1    1
    24     2     3    1
    25     3     4    1
    26     4     5    1
    27     5     6    1
    28     6     7   ar
    29     7     8   ar
    30     8     9   ar
    31     9    10   ar
    32    10    11   ar
    33    21    22    1
    34    18    13   ar
    35    36    31    1
    36    11     2    1
    37    22    16    1
    38    11     6   ar
    39    20    23    1
    40    28    29    1
@<TRIPOS>MOLECULE
*****
 36 40 0 0 0
SMALL
GASTEIGER

@<TRIPOS>ATOM
      1 N          -7.3176  -19.5317   21.6920 N.3     1  UNL1       -0.2679
      2 C          -8.2060  -19.1840   22.8495 C.3     1  UNL1        0.0978
      3 C          -9.0781  -20.2360   23.4681 C.3     1  UNL1        0.0224
      4 C          -9.9665  -19.8882   24.6257 C.3     1  UNL1        0.0065
      5 C          -9.9827  -18.4885   25.1646 C.3     1  UNL1        0.0277
      6 C          -9.1105  -17.4365   24.5461 C.ar    1  UNL1       -0.0073
      7 C          -9.1267  -16.0368   25.0850 C.ar    1  UNL1       -0.0015
      8 C          -8.2546  -14.9848   24.4664 C.ar    1  UNL1        0.0203
      9 C          -7.3662  -15.3325   23.3089 C.ar    1  UNL1        0.0985
     10 N          -7.3500  -16.7322   22.7699 N.ar    1  UNL1       -0.2471
     11 C          -8.2222  -17.7842   23.3885 C.ar    1  UNL1        0.0695
     12 C          -6.0594  -20.3157   21.9212 C.3     1  UNL1        0.0886
     13 C          -0.2720  -17.0279   20.2047 C.ar    1  UNL1       -0.0003
     14 C          -1.0046  -16.2251   21.2385 C.ar    1  UNL1       -0.0003
     15 C          -2.3087  -16.7221   21.7886 C.ar    1  UNL1       -0.0045
     16 C          -2.8800  -18.0219   21.3048 C.ar    1  UNL1       -0.0234
     17 C          -2.1474  -18.8246   20.2710 C.ar    1  UNL1       -0.0103
     18 C          -0.8434  -18.3276   19.7210 C.ar    1  UNL1       -0.0032
     19 C          -2.7188  -20.1245   19.7872 C.3     1  UNL1        0.0953
     20 N          -4.0228  -20.6215   20.3373 N.3     1  UNL1       -0.2934
     21 C          -4.7554  -19.8187   21.3711 C.3     1  UNL1        0.0748
     22 C          -4.1841  -18.5189   21.8549 C.3     1  UNL1        0.0432
     23 H          -3.8388  -21.5358   20.7504 H       1  UNL1        0.1236
     24 C          -7.6874  -19.0955   20.3053 C.3     1  UNL1        0.0725
     25 C          -7.8437  -20.1140   19.2153 C.3     1  UNL1        0.0188
     26 C          -9.1469  -20.2343   18.4825 C.3     1  UNL1        0.0185
     27 C         -10.4233  -19.8117   19.1478 C.3     1  UNL1        0.0686
     28 N         -10.7421  -20.2923   20.5325 N.3     1  UNL1       -0.2975
     29 H          -9.9072  -20.1370   21.0976 H       1  UNL1        0.1232
     30 C         -11.8929  -19.6956   21.2871 C.3     1  UNL1        0.0687
     31 C         -11.8450  -18.2586   21.7146 C.3     1  UNL1        0.0207
     32 C         -12.7907  -17.7568   22.7651 C.3     1  UNL1        0.0335
     33 C         -12.7429  -16.3198   23.1927 C.3     1  UNL1        0.1422
     34 O         -11.7492  -15.3847   22.5698 O.3     1  UNL1       -0.3538
     35 C         -10.8034  -15.8865   21.5193 C.3     1  UNL1        0.1422
     36 C         -10.8513  -17.3235   21.0917 C.3     1  UNL1        0.0335
@<TRIPOS>BOND
     1    13    14   ar
     2    14    15   ar
     3    15    16   ar
     4    16    17   ar
     5    17    18   ar
     6    17    19    1
     7    19    20    1
     8    20    21    1
     9    21    12    1
    10    12     1    1
    11     1    24    1
    12    24    25    1
    13    25    26    1
    14    26    27    1
    15    27    28    1
    16    28    30    1
    17    30    31    1
    18    31    32    1
    19    32    33    1
    20    33    34    1
    21    34    35    1
    22    35    36    1
    23     2     1    1
    24     2     3    1
    25     3     4    1
    26     4     5    1
    27     5     6    1
    28     6     7   ar
    29     7     8   ar
    30     8     9   ar
    31     9    10   ar
    32    10    11   ar
    33    21    22    1
    34    18    13   ar
    35    36    31    1
    36    11     2    1
    37    22    16    1
    38    11     6   ar
    39    20    23    1
    40    28    29    1
@<TRIPOS>MOLECULE
*****
 36 40 0 0 0
SMALL
GASTEIGER

@<TRIPOS>ATOM
      1 N          -8.4436  -16.2192   23.7596 N.3     1  UNL1       -0.2679
      2 C          -9.5321  -17.2132   24.0371 C.3     1  UNL1        0.0978
      3 C          -9.3588  -18.2311   25.1251 C.3     1  UNL1        0.0224
      4 C         -10.4475  -19.2251   25.4026 C.3     1  UNL1        0.0065
      5 C         -11.7094  -19.2011   24.5921 C.3     1  UNL1        0.0277
      6 C         -11.8827  -18.1831   23.5041 C.ar    1  UNL1       -0.0073
      7 C         -13.1446  -18.1591   22.6936 C.ar    1  UNL1       -0.0015
      8 C         -13.3180  -17.1411   21.6056 C.ar    1  UNL1        0.0203
      9 C         -12.2294  -16.1472   21.3281 C.ar    1  UNL1        0.0985
     10 N         -10.9675  -16.1712   22.1386 N.ar    1  UNL1       -0.2471
     11 C         -10.7941  -17.1892   23.2266 C.ar    1  UNL1        0.0695
     12 C          -7.7139  -16.2522   22.4494 C.3     1  UNL1        0.0886
     13 C          -7.5201  -22.0074   18.6957 C.ar    1  UNL1       -0.0003
     14 C          -8.7186  -21.1997   18.2946 C.ar    1  UNL1       -0.0003
     15 C          -8.9971  -19.8871   18.9650 C.ar    1  UNL1       -0.0045
     16 C          -8.0771  -19.3822   20.0367 C.ar    1  UNL1       -0.0234
     17 C          -6.8785  -20.1900   20.4379 C.ar    1  UNL1       -0.0103
     18 C          -6.6000  -21.5026   19.7674 C.ar    1  UNL1       -0.0032
     19 C          -5.9584  -19.6851   21.5097 C.3     1  UNL1        0.0953
     20 N          -6.2368  -18.3726   22.1801 N.3     1  UNL1       -0.2934
     21 C          -7.4355  -17.5648   21.7789 C.3     1  UNL1        0.0748
     22 C          -8.3555  -18.0697   20.7072 C.3     1  UNL1        0.0432
     23 H          -5.4191  -17.7831   22.0246 H       1  UNL1        0.1236
     24 C          -8.0845  -15.1923   24.7923 C.3     1  UNL1        0.0725
     25 C          -7.1180  -15.5353   25.8868 C.3     1  UNL1        0.0188
     26 C          -5.6649  -15.7309   25.5701 C.3     1  UNL1        0.0185
     27 C          -5.1356  -15.3592   24.2167 C.3     1  UNL1        0.0686
     28 N          -4.4216  -16.3821   23.3837 N.3     1  UNL1       -0.2975
     29 H          -5.0750  -16.6800   22.6593 H       1  UNL1        0.1232
     30 C          -3.1407  -16.0234   22.6906 C.3     1  UNL1        0.0687
     31 C          -2.4089  -17.0560   21.8855 C.3     1  UNL1        0.0207
     32 C          -2.6369  -18.5145   22.1516 C.3     1  UNL1        0.0335
     33 C          -1.9051  -19.5471   21.3465 C.3     1  UNL1        0.1422
     34 O          -0.9454  -19.1213   20.2753 O.3     1  UNL1       -0.3538
     35 C          -0.7174  -17.6628   20.0092 C.3     1  UNL1        0.1422
     36 C          -1.4492  -16.6302   20.8143 C.3     1  UNL1        0.0335
@<TRIPOS>BOND
     1    13    14   ar
     2    14    15   ar
     3    15    16   ar
     4    16    17   ar
     5    17    18   ar
     6    17    19    1
     7    19    20    1
     8    20    21    1
     9    21    12    1
    10    12     1    1
    11     1    24    1
    12    24    25    1
    13    25    26    1
    14    26    27    1
    15    27    28    1
    16    28    30    1
    17    30    31    1
    18    31    32    1
    19    32    33    1
    20    33    34    1
    21    34    35    1
    22    35    36    1
    23     2     1    1
    24     2     3    1
    25     3     4    1
    26     4     5    1
    27     5     6    1
    28     6     7   ar
    29     7     8   ar
    30     8     9   ar
    31     9    10   ar
    32    10    11   ar
    33    21    22    1
    34    18    13   ar
    35    36    31    1
    36    11     2    1
    37    22    16    1
    38    11     6   ar
    39    20    23    1
    40    28    29    1
@<TRIPOS>MOLECULE
*****
 36 40 0 0 0
SMALL
GASTEIGER

@<TRIPOS>ATOM
      1 N          -9.0847  -18.0967   20.7314 N.3     1  UNL1       -0.2679
      2 C         -10.4956  -17.6241   20.9213 C.3     1  UNL1        0.0978
      3 C         -11.1413  -16.7544   19.8836 C.3     1  UNL1        0.0224
      4 C         -12.5522  -16.2818   20.0735 C.3     1  UNL1        0.0065
      5 C         -13.3174  -16.6791   21.3009 C.3     1  UNL1        0.0277
      6 C         -12.6718  -17.5488   22.3385 C.ar    1  UNL1       -0.0073
      7 C         -13.4370  -17.9460   23.5660 C.ar    1  UNL1       -0.0015
      8 C         -12.7913  -18.8158   24.6036 C.ar    1  UNL1        0.0203
      9 C         -11.3805  -19.2883   24.4138 C.ar    1  UNL1        0.0985
     10 N         -10.6152  -18.8911   23.1863 N.ar    1  UNL1       -0.2471
     11 C         -11.2609  -18.0213   22.1487 C.ar    1  UNL1        0.0695
     12 C          -7.9399  -17.2466   21.1973 C.3     1  UNL1        0.0886
     13 C          -6.5773  -14.9023   27.5138 C.ar    1  UNL1       -0.0003
     14 C          -5.2875  -15.2387   26.8260 C.ar    1  UNL1       -0.0003
     15 C          -5.3020  -15.7748   25.4252 C.ar    1  UNL1       -0.0045
     16 C          -6.6064  -15.9746   24.7121 C.ar    1  UNL1       -0.0234
     17 C          -7.8963  -15.6382   25.3998 C.ar    1  UNL1       -0.0103
     18 C          -7.8818  -15.1021   26.8007 C.ar    1  UNL1       -0.0032
     19 C          -9.2008  -15.8380   24.6867 C.3     1  UNL1        0.0953
     20 N          -9.2154  -16.3741   23.2859 N.3     1  UNL1       -0.2934
     21 C          -7.9254  -16.7105   22.5982 C.3     1  UNL1        0.0748
     22 C          -6.6210  -16.5107   23.3112 C.3     1  UNL1        0.0432
     23 H          -9.6837  -15.6760   22.7083 H       1  UNL1        0.1236
     24 C          -8.8185  -19.4193   20.0758 C.3     1  UNL1        0.0725
     25 C          -7.4256  -19.9751   20.0466 C.3     1  UNL1        0.0188
     26 C          -6.7401  -20.3483   21.3275 C.3     1  UNL1        0.0185
     27 C          -5.2667  -20.1151   21.4851 C.3     1  UNL1        0.0686
     28 N          -4.3190  -20.5487   20.4062 N.3     1  UNL1       -0.2975
     29 H          -4.8298  -21.1997   19.8099 H       1  UNL1        0.1232
     30 C          -3.6969  -19.5282   19.4999 C.3     1  UNL1        0.0687
     31 C          -2.7985  -18.4695   20.0673 C.3     1  UNL1        0.0207
     32 C          -1.5233  -18.1117   19.3633 C.3     1  UNL1        0.0335
     33 C          -0.6249  -17.0529   19.9308 C.3     1  UNL1        0.1422
     34 O          -1.0018  -16.3520   21.2022 O.3     1  UNL1       -0.3538
     35 C          -2.2770  -16.7099   21.9062 C.3     1  UNL1        0.1422
     36 C          -3.1754  -17.7686   21.3388 C.3     1  UNL1        0.0335
@<TRIPOS>BOND
     1    13    14   ar
     2    14    15   ar
     3    15    16   ar
     4    16    17   ar
     5    17    18   ar
     6    17    19    1
     7    19    20    1
     8    20    21    1
     9    21    12    1
    10    12     1    1
    11     1    24    1
    12    24    25    1
    13    25    26    1
    14    26    27    1
    15    27    28    1
    16    28    30    1
    17    30    31    1
    18    31    32    1
    19    32    33    1
    20    33    34    1
    21    34    35    1
    22    35    36    1
    23     2     1    1
    24     2     3    1
    25     3     4    1
    26     4     5    1
    27     5     6    1
    28     6     7   ar
    29     7     8   ar
    30     8     9   ar
    31     9    10   ar
    32    10    11   ar
    33    21    22    1
    34    18    13   ar
    35    36    31    1
    36    11     2    1
    37    22    16    1
    38    11     6   ar
    39    20    23    1
    40    28    29    1
@<TRIPOS>MOLECULE
*****
 36 40 0 0 0
SMALL
GASTEIGER

@<TRIPOS>ATOM
      1 N           7.1563   -4.0445   22.9230 N.3     1  UNL1       -0.2679
      2 C           7.7489   -5.2445   23.6003 C.3     1  UNL1        0.0978
      3 C           8.5266   -6.2485   22.8020 C.3     1  UNL1        0.0224
      4 C           9.1192   -7.4486   23.4793 C.3     1  UNL1        0.0065
      5 C           8.9342   -7.6446   24.9548 C.3     1  UNL1        0.0277
      6 C           8.1566   -6.6406   25.7531 C.ar    1  UNL1       -0.0073
      7 C           7.9716   -6.8367   27.2287 C.ar    1  UNL1       -0.0015
      8 C           7.1939   -5.8327   28.0270 C.ar    1  UNL1        0.0203
      9 C           6.6013   -4.6327   27.3498 C.ar    1  UNL1        0.0985
     10 N           6.7863   -4.4366   25.8742 N.ar    1  UNL1       -0.2471
     11 C           7.5640   -5.4406   25.0759 C.ar    1  UNL1        0.0695
     12 C           5.6980   -4.0251   22.5723 C.3     1  UNL1        0.0886
     13 C           1.3482    1.2178   23.4893 C.ar    1  UNL1       -0.0003
     14 C           1.3497    0.8287   22.0407 C.ar    1  UNL1       -0.0003
     15 C           2.2200   -0.2977   21.5675 C.ar    1  UNL1       -0.0045
     16 C           3.0887   -1.0350   22.5430 C.ar    1  UNL1       -0.0234
     17 C           3.0872   -0.6460   23.9917 C.ar    1  UNL1       -0.0103
     18 C           2.2169    0.4804   24.4648 C.ar    1  UNL1       -0.0032
     19 C           3.9559   -1.3833   24.9672 C.3     1  UNL1        0.0953
     20 N           4.8262   -2.5097   24.4941 N.3     1  UNL1       -0.2934
     21 C           4.8277   -2.8987   23.0454 C.3     1  UNL1        0.0748
     22 C           3.9590   -2.1614   22.0699 C.3     1  UNL1        0.0432
     23 H           4.5485   -3.3377   25.0211 H       1  UNL1        0.1236
     24 C           8.0220   -2.8638   22.5965 C.3     1  UNL1        0.0725
     25 C           7.8723   -2.1661   21.2772 C.3     1  UNL1        0.0188
     26 C           7.9838   -2.9447   20.0000 C.3     1  UNL1        0.0185
     27 C           8.0768   -2.2239   18.6878 C.3     1  UNL1        0.0686
     28 N           6.8939   -2.1887   17.7661 N.3     1  UNL1       -0.2975
     29 H           6.9497   -3.0240   17.1833 H       1  UNL1        0.1232
     30 C           5.5046   -2.1462   18.3300 C.3     1  UNL1        0.0687
     31 C           4.8291   -0.8271   18.5614 C.3     1  UNL1        0.0207
     32 C           3.5150   -0.5314   17.9015 C.3     1  UNL1        0.0335
     33 C           2.8395    0.7877   18.1329 C.3     1  UNL1        0.1422
     34 O           3.4781    1.8112   19.0243 O.3     1  UNL1       -0.3538
     35 C           4.7923    1.5156   19.6842 C.3     1  UNL1        0.1422
     36 C           5.4678    0.1964   19.4528 C.3     1  UNL1        0.0335
@<TRIPOS>BOND
     1    13    14   ar
     2    14    15   ar
     3    15    16   ar
     4    16    17   ar
     5    17    18   ar
     6    17    19    1
     7    19    20    1
     8    20    21    1
     9    21    12    1
    10    12     1    1
    11     1    24    1
    12    24    25    1
    13    25    26    1
    14    26    27    1
    15    27    28    1
    16    28    30    1
    17    30    31    1
    18    31    32    1
    19    32    33    1
    20    33    34    1
    21    34    35    1
    22    35    36    1
    23     2     1    1
    24     2     3    1
    25     3     4    1
    26     4     5    1
    27     5     6    1
    28     6     7   ar
    29     7     8   ar
    30     8     9   ar
    31     9    10   ar
    32    10    11   ar
    33    21    22    1
    34    18    13   ar
    35    36    31    1
    36    11     2    1
    37    22    16    1
    38    11     6   ar
    39    20    23    1
    40    28    29    1
@<TRIPOS>MOLECULE
*****
 36 40 0 0 0
SMALL
GASTEIGER

@<TRIPOS>ATOM
      1 N           6.6909   -0.9067   22.1322 N.3     1  UNL1       -0.2679
      2 C           5.2787   -1.0949   21.6629 C.3     1  UNL1        0.0978
      3 C           4.2066   -0.1464   22.1112 C.3     1  UNL1        0.0224
      4 C           2.7944   -0.3347   21.6418 C.3     1  UNL1        0.0065
      5 C           2.4543   -1.4713   20.7241 C.3     1  UNL1        0.0277
      6 C           3.5264   -2.4198   20.2757 C.ar    1  UNL1       -0.0073
      7 C           3.1863   -3.5564   19.3580 C.ar    1  UNL1       -0.0015
      8 C           4.2584   -4.5049   18.9096 C.ar    1  UNL1        0.0203
      9 C           5.6706   -4.3167   19.3789 C.ar    1  UNL1        0.0985
     10 N           6.0106   -3.1801   20.2967 N.ar    1  UNL1       -0.2471
     11 C           4.9386   -2.2316   20.7451 C.ar    1  UNL1        0.0695
     12 C           7.1067   -1.4139   23.4813 C.3     1  UNL1        0.0886
     13 C           7.8562   -7.9290   25.5406 C.ar    1  UNL1       -0.0003
     14 C           7.1609   -7.1505   26.6178 C.ar    1  UNL1       -0.0003
     15 C           6.8720   -5.6917   26.4214 C.ar    1  UNL1       -0.0045
     16 C           7.2783   -5.0115   25.1478 C.ar    1  UNL1       -0.0234
     17 C           7.9735   -5.7901   24.0706 C.ar    1  UNL1       -0.0103
     18 C           8.2625   -7.2488   24.2670 C.ar    1  UNL1       -0.0032
     19 C           8.3799   -5.1099   22.7968 C.3     1  UNL1        0.0953
     20 N           8.0910   -3.6512   22.6004 N.3     1  UNL1       -0.2934
     21 C           7.3957   -2.8726   23.6777 C.3     1  UNL1        0.0748
     22 C           6.9894   -3.5528   24.9513 C.3     1  UNL1        0.0432
     23 H           7.5135   -3.5755   21.7630 H       1  UNL1        0.1236
     24 C           7.6872   -0.2113   21.2526 C.3     1  UNL1        0.0725
     25 C           7.2612    0.3328   19.9213 C.3     1  UNL1        0.0188
     26 C           7.7106   -0.3394   18.6578 C.3     1  UNL1        0.0185
     27 C           6.7728   -0.4488   17.4921 C.3     1  UNL1        0.0686
     28 N           5.4444   -1.1253   17.6592 N.3     1  UNL1       -0.2975
     29 H           5.2775   -1.2027   18.6624 H       1  UNL1        0.1232
     30 C           4.2116   -0.5153   17.0609 C.3     1  UNL1        0.0687
     31 C           3.3967    0.4616   17.8557 C.3     1  UNL1        0.0207
     32 C           4.0755    1.5681   18.6072 C.3     1  UNL1        0.0335
     33 C           3.2606    2.5449   19.4020 C.3     1  UNL1        0.1422
     34 O           1.7669    2.4152   19.4453 O.3     1  UNL1       -0.3538
     35 C           1.0881    1.3087   18.6938 C.3     1  UNL1        0.1422
     36 C           1.9030    0.3319   17.8990 C.3     1  UNL1        0.0335
@<TRIPOS>BOND
     1    13    14   ar
     2    14    15   ar
     3    15    16   ar
     4    16    17   ar
     5    17    18   ar
     6    17    19    1
     7    19    20    1
     8    20    21    1
     9    21    12    1
    10    12     1    1
    11     1    24    1
    12    24    25    1
    13    25    26    1
    14    26    27    1
    15    27    28    1
    16    28    30    1
    17    30    31    1
    18    31    32    1
    19    32    33    1
    20    33    34    1
    21    34    35    1
    22    35    36    1
    23     2     1    1
    24     2     3    1
    25     3     4    1
    26     4     5    1
    27     5     6    1
    28     6     7   ar
    29     7     8   ar
    30     8     9   ar
    31     9    10   ar
    32    10    11   ar
    33    21    22    1
    34    18    13   ar
    35    36    31    1
    36    11     2    1
    37    22    16    1
    38    11     6   ar
    39    20    23    1
    40    28    29    1
@<TRIPOS>MOLECULE
*****
 36 40 0 0 0
SMALL
GASTEIGER

@<TRIPOS>ATOM
      1 N           7.2470   -3.6428   21.1050 N.3     1  UNL1       -0.2679
      2 C           7.0697   -3.8273   22.5830 C.3     1  UNL1        0.0978
      3 C           6.3484   -2.7869   23.3875 C.3     1  UNL1        0.0224
      4 C           6.1712   -2.9715   24.8656 C.3     1  UNL1        0.0065
      5 C           6.7153   -4.1964   25.5390 C.3     1  UNL1        0.0277
      6 C           7.4366   -5.2368   24.7344 C.ar    1  UNL1       -0.0073
      7 C           7.9807   -6.4617   25.4079 C.ar    1  UNL1       -0.0015
      8 C           8.7020   -7.5020   24.6033 C.ar    1  UNL1        0.0203
      9 C           8.8793   -7.3175   23.1253 C.ar    1  UNL1        0.0985
     10 N           8.3352   -6.0926   22.4519 N.ar    1  UNL1       -0.2471
     11 C           7.6138   -5.0522   23.2565 C.ar    1  UNL1        0.0695
     12 C           6.1346   -4.0033   20.1654 C.3     1  UNL1        0.0886
     13 C           1.3442    0.6682   18.5910 C.ar    1  UNL1       -0.0003
     14 C           0.9508   -0.0305   19.8587 C.ar    1  UNL1       -0.0003
     15 C           1.8302   -1.1045   20.4271 C.ar    1  UNL1       -0.0045
     16 C           3.1030   -1.4799   19.7278 C.ar    1  UNL1       -0.0234
     17 C           3.4964   -0.7812   18.4602 C.ar    1  UNL1       -0.0103
     18 C           2.6170    0.2929   17.8918 C.ar    1  UNL1       -0.0032
     19 C           4.7693   -1.1565   17.7608 C.3     1  UNL1        0.0953
     20 N           5.6487   -2.2306   18.3292 N.3     1  UNL1       -0.2934
     21 C           5.2552   -2.9293   19.5970 C.3     1  UNL1        0.0748
     22 C           3.9824   -2.5539   20.2962 C.3     1  UNL1        0.0432
     23 H           6.5606   -1.8059   18.4979 H       1  UNL1        0.1236
     24 C           8.5365   -3.0977   20.5665 C.3     1  UNL1        0.0725
     25 C           9.3726   -2.1801   21.4085 C.3     1  UNL1        0.0188
     26 C           9.1089   -0.7035   21.3975 C.3     1  UNL1        0.0185
     27 C           8.5919   -0.0433   20.1537 C.3     1  UNL1        0.0686
     28 N           7.1259    0.2388   20.0082 N.3     1  UNL1       -0.2975
     29 H           6.7603   -0.4402   19.3406 H       1  UNL1        0.1232
     30 C           6.2299    0.1899   21.2101 C.3     1  UNL1        0.0687
     31 C           5.0451    1.1054   21.3001 C.3     1  UNL1        0.0207
     32 C           4.0766    0.9691   22.4374 C.3     1  UNL1        0.0335
     33 C           2.8918    1.8846   22.5274 C.3     1  UNL1        0.1422
     34 O           2.6755    2.9365   21.4801 O.3     1  UNL1       -0.3538
     35 C           3.6440    3.0728   20.3429 C.3     1  UNL1        0.1422
     36 C           4.8288    2.1572   20.2529 C.3     1  UNL1        0.0335
@<TRIPOS>BOND
     1    13    14   ar
     2    14    15   ar
     3    15    16   ar
     4    16    17   ar
     5    17    18   ar
     6    17    19    1
     7    19    20    1
     8    20    21    1
     9    21    12    1
    10    12     1    1
    11     1    24    1
    12    24    25    1
    13    25    26    1
    14    26    27    1
    15    27    28    1
    16    28    30    1
    17    30    31    1
    18    31    32    1
    19    32    33    1
    20    33    34    1
    21    34    35    1
    22    35    36    1
    23     2     1    1
    24     2     3    1
    25     3     4    1
    26     4     5    1
    27     5     6    1
    28     6     7   ar
    29     7     8   ar
    30     8     9   ar
    31     9    10   ar
    32    10    11   ar
    33    21    22    1
    34    18    13   ar
    35    36    31    1
    36    11     2    1
    37    22    16    1
    38    11     6   ar
    39    20    23    1
    40    28    29    1
