@<TRIPOS>MOLECULE
*****
 34 38 0 0 0
SMALL
GASTEIGER

@<TRIPOS>ATOM
      1 C          -4.8274  -19.4706   21.0559 C.2     1  UNL1        0.2508
      2 O          -5.0354  -20.4396   19.9300 O.2     1  UNL1       -0.2727
      3 N          -3.6886  -18.4956   21.0056 N.am    1  UNL1       -0.2730
      4 C          -2.6816  -18.3724   19.9008 C.3     1  UNL1        0.0759
      5 C          -1.5560  -18.0200   18.9741 C.3     1  UNL1        0.0215
      6 C          -1.7275  -17.2733   20.2637 C.3     1  UNL1        0.0220
      7 C          -2.1449  -16.7173   21.5928 C.3     1  UNL1        0.0309
      8 C          -3.3569  -17.4727   22.0514 C.3     1  UNL1        0.1521
      9 C          -4.1058  -17.2451   23.3310 C.2     1  UNL1        0.2452
     10 O          -3.8022  -18.0838   24.5370 O.2     1  UNL1       -0.2730
     11 N          -5.1583  -16.1789   23.4046 N.am    1  UNL1       -0.2680
     12 H          -5.3576  -15.6284   22.6130 H       1  UNL1        0.1563
     13 C          -5.9072  -15.9513   24.6842 C.ar    1  UNL1        0.1347
     14 C          -5.3498  -15.0259   25.7249 C.ar    1  UNL1        0.0345
     15 C          -6.0987  -14.7983   27.0046 C.ar    1  UNL1        0.0049
     16 C          -7.4049  -15.4962   27.2434 C.ar    1  UNL1        0.0261
     17 C          -7.9622  -16.4215   26.2027 C.ar    1  UNL1        0.1168
     18 BR         -9.2684  -17.1193   26.4415 Br      1  UNL1       -0.0280
     19 N          -7.2133  -16.6491   24.9231 N.ar    1  UNL1       -0.2238
     20 C          -5.7584  -19.4765   22.2321 C.3     1  UNL1        0.2120
     21 C          -8.7413  -17.0657   21.6359 C.ar    1  UNL1        0.1552
     22 N          -7.3011  -17.4400   21.4463 N.ar    1  UNL1       -0.1642
     23 N          -7.0613  -18.7368   22.1611 N.ar    1  UNL1       -0.2414
     24 C          -8.3532  -19.1640   22.7924 C.ar    1  UNL1        0.0800
     25 C          -8.7183  -20.3599   23.6208 C.ar    1  UNL1        0.0188
     26 C         -10.1217  -20.5231   24.1247 C.ar    1  UNL1        0.0015
     27 C         -11.1600  -19.4903   23.8001 C.ar    1  UNL1        0.0001
     28 C         -10.7949  -18.2944   22.9716 C.ar    1  UNL1        0.0032
     29 C          -9.3915  -18.1312   22.4678 C.ar    1  UNL1        0.0411
     30 N          -8.7236  -14.5110   21.1635 N.am    1  UNL1       -0.3240
     31 C          -9.4132  -15.8410   21.0895 C.2     1  UNL1        0.2623
     32 O         -10.7748  -15.9463   20.4690 O.2     1  UNL1       -0.2687
     33 H          -9.1646  -13.7071   20.8049 H       1  UNL1        0.1453
     34 H          -7.8299  -14.4418   21.5708 H       1  UNL1        0.1453
@<TRIPOS>BOND
     1    30    31   am
     2    31    32    2
     3    31    21    1
     4    21    22   ar
     5    22    23   ar
     6    23    20    1
     7    20     1    1
     8     1     2    2
     9     1     3   am
    10     3     4    1
    11     4     5    1
    12     6     5    1
    13     6     7    1
    14     7     8    1
    15     8     9    1
    16     9    10    2
    17     9    11   am
    18    11    13    1
    19    13    14   ar
    20    14    15   ar
    21    15    16   ar
    22    16    17   ar
    23    17    18    1
    24    17    19   ar
    25    23    24   ar
    26    24    25   ar
    27    25    26   ar
    28    26    27   ar
    29    27    28   ar
    30    28    29   ar
    31    29    21   ar
    32     8     3    1
    33    19    13   ar
    34    29    24   ar
    35     6     4    1
    36    30    33    1
    37    30    34    1
    38    11    12    1
@<TRIPOS>MOLECULE
*****
 34 38 0 0 0
SMALL
GASTEIGER

@<TRIPOS>ATOM
      1 C          -3.8341  -19.4658   20.7984 C.2     1  UNL1        0.2508
      2 O          -3.7410  -20.4658   19.6843 O.2     1  UNL1       -0.2727
      3 N          -2.8158  -18.3700   20.9098 N.am    1  UNL1       -0.2730
      4 C          -1.6547  -18.1483   19.9864 C.3     1  UNL1        0.0759
      5 C          -0.4326  -17.6834   19.2514 C.3     1  UNL1        0.0215
      6 C          -0.9011  -16.9449   20.4700 C.3     1  UNL1        0.0220
      7 C          -1.5966  -16.4228   21.6922 C.3     1  UNL1        0.0309
      8 C          -2.7799  -17.3036   21.9640 C.3     1  UNL1        0.1521
      9 C          -3.7560  -17.1456   23.0920 C.2     1  UNL1        0.2452
     10 O          -3.8556  -18.2031   24.1512 O.2     1  UNL1       -0.2730
     11 N          -4.6324  -15.9303   23.1608 N.am    1  UNL1       -0.2680
     12 H          -4.5670  -15.2362   22.4657 H       1  UNL1        0.1563
     13 C          -5.6085  -15.7723   24.2888 C.ar    1  UNL1        0.1347
     14 C          -5.1133  -15.4729   25.6727 C.ar    1  UNL1        0.0345
     15 C          -6.0893  -15.3150   26.8007 C.ar    1  UNL1        0.0049
     16 C          -7.5606  -15.4565   26.5448 C.ar    1  UNL1        0.0261
     17 C          -8.0557  -15.7559   25.1609 C.ar    1  UNL1        0.1168
     18 BR         -9.5270  -15.8974   24.9050 Br      1  UNL1       -0.0280
     19 N          -7.0797  -15.9138   24.0329 N.ar    1  UNL1       -0.2238
     20 C          -4.9456  -19.5615   21.8013 C.3     1  UNL1        0.2120
     21 C          -8.4706  -18.0097   21.3205 C.ar    1  UNL1        0.1552
     22 N          -7.1331  -18.0381   21.9989 N.ar    1  UNL1       -0.1642
     23 N          -6.3408  -19.1697   21.4142 N.ar    1  UNL1       -0.2414
     24 C          -7.1886  -19.8406   20.3745 C.ar    1  UNL1        0.0800
     25 C          -6.9321  -21.0117   19.4730 C.ar    1  UNL1        0.0188
     26 C          -7.9919  -21.4658   18.5136 C.ar    1  UNL1        0.0015
     27 C          -9.3083  -20.7489   18.4557 C.ar    1  UNL1        0.0001
     28 C          -9.5648  -19.5778   19.3572 C.ar    1  UNL1        0.0032
     29 C          -8.5050  -19.1237   20.3166 C.ar    1  UNL1        0.0411
     30 N          -9.3391  -15.5645   21.4504 N.am    1  UNL1       -0.3240
     31 C          -9.5792  -17.0379   21.5974 C.2     1  UNL1        0.2623
     32 O         -10.9277  -17.5394   22.0213 O.2     1  UNL1       -0.2687
     33 H         -10.0667  -14.9266   21.6322 H       1  UNL1        0.1453
     34 H          -8.4540  -15.2353   21.1722 H       1  UNL1        0.1453
@<TRIPOS>BOND
     1    30    31   am
     2    31    32    2
     3    31    21    1
     4    21    22   ar
     5    22    23   ar
     6    23    20    1
     7    20     1    1
     8     1     2    2
     9     1     3   am
    10     3     4    1
    11     4     5    1
    12     6     5    1
    13     6     7    1
    14     7     8    1
    15     8     9    1
    16     9    10    2
    17     9    11   am
    18    11    13    1
    19    13    14   ar
    20    14    15   ar
    21    15    16   ar
    22    16    17   ar
    23    17    18    1
    24    17    19   ar
    25    23    24   ar
    26    24    25   ar
    27    25    26   ar
    28    26    27   ar
    29    27    28   ar
    30    28    29   ar
    31    29    21   ar
    32     8     3    1
    33    19    13   ar
    34    29    24   ar
    35     6     4    1
    36    30    33    1
    37    30    34    1
    38    11    12    1
@<TRIPOS>MOLECULE
*****
 34 38 0 0 0
SMALL
GASTEIGER

@<TRIPOS>ATOM
      1 C          -8.4186  -15.7602   23.8973 C.2     1  UNL1        0.2508
      2 O          -9.9120  -15.7282   24.0339 O.2     1  UNL1       -0.2727
      3 N          -7.5510  -15.6175   25.1126 N.am    1  UNL1       -0.2730
      4 C          -8.0310  -15.4372   26.5222 C.3     1  UNL1        0.0759
      5 C          -8.2050  -15.2514   28.0004 C.3     1  UNL1        0.0215
      6 C          -6.8278  -15.3384   27.4125 C.3     1  UNL1        0.0220
      7 C          -5.6042  -15.4577   26.5530 C.3     1  UNL1        0.0309
      8 C          -6.0512  -15.6302   25.1316 C.3     1  UNL1        0.1521
      9 C          -5.1556  -15.7877   23.9387 C.2     1  UNL1        0.2452
     10 O          -4.9430  -14.6347   23.0030 O.2     1  UNL1       -0.2730
     11 N          -4.4726  -17.0981   23.6814 N.am    1  UNL1       -0.2680
     12 H          -4.6121  -17.8548   24.2955 H       1  UNL1        0.1563
     13 C          -3.5770  -17.2556   22.4885 C.ar    1  UNL1        0.1347
     14 C          -2.4190  -16.3226   22.2916 C.ar    1  UNL1        0.0345
     15 C          -1.5234  -16.4801   21.0986 C.ar    1  UNL1        0.0049
     16 C          -1.7858  -17.5706   20.1026 C.ar    1  UNL1        0.0261
     17 C          -2.9437  -18.5036   20.2995 C.ar    1  UNL1        0.1168
     18 BR         -3.2060  -19.5941   19.3035 Br      1  UNL1       -0.0280
     19 N          -3.8393  -18.3461   21.4925 N.ar    1  UNL1       -0.2238
     20 C          -7.7927  -15.9348   22.5452 C.3     1  UNL1        0.2120
     21 C          -7.5173  -19.3661   20.7520 C.ar    1  UNL1        0.1552
     22 N          -6.9008  -18.2402   21.5281 N.ar    1  UNL1       -0.1642
     23 N          -7.9698  -17.2231   21.7975 N.ar    1  UNL1       -0.2414
     24 C          -9.2470  -17.7203   21.1880 C.ar    1  UNL1        0.0800
     25 C         -10.6285  -17.1381   21.1379 C.ar    1  UNL1        0.0188
     26 C         -11.7303  -17.8805   20.4417 C.ar    1  UNL1        0.0015
     27 C         -11.4507  -19.2050   19.7955 C.ar    1  UNL1        0.0001
     28 C         -10.0692  -19.7871   19.8456 C.ar    1  UNL1        0.0032
     29 C          -8.9674  -19.0448   20.5419 C.ar    1  UNL1        0.0411
     30 N          -5.6651  -21.1617   21.0609 N.am    1  UNL1       -0.3240
     31 C          -6.8083  -20.5972   20.2706 C.2     1  UNL1        0.2623
     32 O          -7.2424  -21.2638   18.9991 O.2     1  UNL1       -0.2687
     33 H          -5.1997  -21.9697   20.7450 H       1  UNL1        0.1453
     34 H          -5.3801  -20.7241   21.8955 H       1  UNL1        0.1453
@<TRIPOS>BOND
     1    30    31   am
     2    31    32    2
     3    31    21    1
     4    21    22   ar
     5    22    23   ar
     6    23    20    1
     7    20     1    1
     8     1     2    2
     9     1     3   am
    10     3     4    1
    11     4     5    1
    12     6     5    1
    13     6     7    1
    14     7     8    1
    15     8     9    1
    16     9    10    2
    17     9    11   am
    18    11    13    1
    19    13    14   ar
    20    14    15   ar
    21    15    16   ar
    22    16    17   ar
    23    17    18    1
    24    17    19   ar
    25    23    24   ar
    26    24    25   ar
    27    25    26   ar
    28    26    27   ar
    29    27    28   ar
    30    28    29   ar
    31    29    21   ar
    32     8     3    1
    33    19    13   ar
    34    29    24   ar
    35     6     4    1
    36    30    33    1
    37    30    34    1
    38    11    12    1
@<TRIPOS>MOLECULE
*****
 34 38 0 0 0
SMALL
GASTEIGER

@<TRIPOS>ATOM
      1 C          -8.2459  -16.6174   24.6334 C.2     1  UNL1        0.2508
      2 O          -9.6438  -16.9400   25.0712 O.2     1  UNL1       -0.2727
      3 N          -7.3266  -15.8676   25.5514 N.am    1  UNL1       -0.2730
      4 C          -7.6629  -15.3781   26.9289 C.3     1  UNL1        0.0759
      5 C          -7.7048  -14.7805   28.3040 C.3     1  UNL1        0.0215
      6 C          -6.4539  -14.6836   27.4820 C.3     1  UNL1        0.0220
      7 C          -5.3704  -14.7440   26.4464 C.3     1  UNL1        0.0309
      8 C          -5.9098  -15.4758   25.2533 C.3     1  UNL1        0.1521
      9 C          -5.1634  -15.7649   23.9847 C.2     1  UNL1        0.2452
     10 O          -5.2127  -14.7891   22.8465 O.2     1  UNL1       -0.2730
     11 N          -4.3677  -17.0297   23.8543 N.am    1  UNL1       -0.2680
     12 H          -4.3353  -17.6701   24.6014 H       1  UNL1        0.1563
     13 C          -3.6212  -17.3188   22.5857 C.ar    1  UNL1        0.1347
     14 C          -2.4317  -16.4862   22.2091 C.ar    1  UNL1        0.0345
     15 C          -1.6853  -16.7753   20.9405 C.ar    1  UNL1        0.0049
     16 C          -2.1284  -17.8971   20.0486 C.ar    1  UNL1        0.0261
     17 C          -3.3179  -18.7296   20.4253 C.ar    1  UNL1        0.1168
     18 BR         -3.7610  -19.8513   19.5334 Br      1  UNL1       -0.0280
     19 N          -4.0643  -18.4405   21.6939 N.ar    1  UNL1       -0.2238
     20 C          -7.7671  -17.0446   23.2775 C.3     1  UNL1        0.2120
     21 C         -10.7258  -17.2008   20.7700 C.ar    1  UNL1        0.1552
     22 N         -10.0590  -16.6046   21.9742 N.ar    1  UNL1       -0.1642
     23 N          -8.7573  -17.3195   22.1847 N.ar    1  UNL1       -0.2414
     24 C          -8.6195  -18.3575   21.1107 C.ar    1  UNL1        0.0800
     25 C          -7.5434  -19.3600   20.8160 C.ar    1  UNL1        0.0188
     26 C          -7.6839  -20.2892   19.6468 C.ar    1  UNL1        0.0015
     27 C          -8.9005  -20.2158   18.7725 C.ar    1  UNL1        0.0001
     28 C          -9.9766  -19.2133   19.0673 C.ar    1  UNL1        0.0032
     29 C          -9.8361  -18.2842   20.2364 C.ar    1  UNL1        0.0411
     30 N         -12.1017  -15.8610   19.0201 N.am    1  UNL1       -0.3240
     31 C         -12.0498  -16.7864   20.1996 C.2     1  UNL1        0.2623
     32 O         -13.3218  -17.2973   20.8086 O.2     1  UNL1       -0.2687
     33 H         -12.9707  -15.5890   18.6458 H       1  UNL1        0.1453
     34 H         -11.2669  -15.5257   18.6204 H       1  UNL1        0.1453
@<TRIPOS>BOND
     1    30    31   am
     2    31    32    2
     3    31    21    1
     4    21    22   ar
     5    22    23   ar
     6    23    20    1
     7    20     1    1
     8     1     2    2
     9     1     3   am
    10     3     4    1
    11     4     5    1
    12     6     5    1
    13     6     7    1
    14     7     8    1
    15     8     9    1
    16     9    10    2
    17     9    11   am
    18    11    13    1
    19    13    14   ar
    20    14    15   ar
    21    15    16   ar
    22    16    17   ar
    23    17    18    1
    24    17    19   ar
    25    23    24   ar
    26    24    25   ar
    27    25    26   ar
    28    26    27   ar
    29    27    28   ar
    30    28    29   ar
    31    29    21   ar
    32     8     3    1
    33    19    13   ar
    34    29    24   ar
    35     6     4    1
    36    30    33    1
    37    30    34    1
    38    11    12    1
@<TRIPOS>MOLECULE
*****
 34 38 0 0 0
SMALL
GASTEIGER

@<TRIPOS>ATOM
      1 C          -8.1895  -15.8507   24.4166 C.2     1  UNL1        0.2508
      2 O          -9.6229  -15.6884   24.8279 O.2     1  UNL1       -0.2727
      3 N          -7.0909  -15.5659   25.3974 N.am    1  UNL1       -0.2730
      4 C          -7.2711  -15.1138   26.8163 C.3     1  UNL1        0.0759
      5 C          -7.1378  -14.6667   28.2418 C.3     1  UNL1        0.0215
      6 C          -5.9109  -14.9517   27.4273 C.3     1  UNL1        0.0220
      7 C          -4.8900  -15.3035   26.3861 C.3     1  UNL1        0.0309
      8 C          -5.6194  -15.6831   25.1315 C.3     1  UNL1        0.1521
      9 C          -4.9880  -16.1058   23.8382 C.2     1  UNL1        0.2452
     10 O          -4.6537  -15.0797   22.7962 O.2     1  UNL1       -0.2730
     11 N          -4.6908  -17.5544   23.5868 N.am    1  UNL1       -0.2680
     12 H          -4.9102  -18.2278   24.2707 H       1  UNL1        0.1563
     13 C          -4.0594  -17.9770   22.2935 C.ar    1  UNL1        0.1347
     14 C          -4.7336  -19.0010   21.4291 C.ar    1  UNL1        0.0345
     15 C          -4.1022  -19.4236   20.1358 C.ar    1  UNL1        0.0049
     16 C          -2.7966  -18.8223   19.7068 C.ar    1  UNL1        0.0261
     17 C          -2.1225  -17.7984   20.5711 C.ar    1  UNL1        0.1168
     18 BR         -0.8169  -17.1971   20.1422 Br      1  UNL1       -0.0280
     19 N          -2.7539  -17.3758   21.8645 N.ar    1  UNL1       -0.2238
     20 C          -7.8547  -16.2978   23.0244 C.3     1  UNL1        0.2120
     21 C         -10.5721  -16.1504   20.2568 C.ar    1  UNL1        0.1552
     22 N          -9.4906  -15.4993   21.0670 N.ar    1  UNL1       -0.1642
     23 N          -8.9503  -16.5200   22.0242 N.ar    1  UNL1       -0.2414
     24 C          -9.6979  -17.8019   21.8056 C.ar    1  UNL1        0.0800
     25 C          -9.5955  -19.1477   22.4601 C.ar    1  UNL1        0.0188
     26 C         -10.4953  -20.2650   22.0222 C.ar    1  UNL1        0.0015
     27 C         -11.4977  -20.0366   20.9299 C.ar    1  UNL1        0.0001
     28 C         -11.6001  -18.6908   20.2754 C.ar    1  UNL1        0.0032
     29 C         -10.7002  -17.5735   20.7133 C.ar    1  UNL1        0.0411
     30 N         -12.8687  -15.6956   19.1303 N.am    1  UNL1       -0.3240
     31 C         -11.3831  -15.4937   19.1793 C.2     1  UNL1        0.2623
     32 O         -10.7087  -14.6351   18.1508 O.2     1  UNL1       -0.2687
     33 H         -13.4010  -15.2646   18.4231 H       1  UNL1        0.1453
     34 H         -13.3114  -16.2591   19.8054 H       1  UNL1        0.1453
@<TRIPOS>BOND
     1    30    31   am
     2    31    32    2
     3    31    21    1
     4    21    22   ar
     5    22    23   ar
     6    23    20    1
     7    20     1    1
     8     1     2    2
     9     1     3   am
    10     3     4    1
    11     4     5    1
    12     6     5    1
    13     6     7    1
    14     7     8    1
    15     8     9    1
    16     9    10    2
    17     9    11   am
    18    11    13    1
    19    13    14   ar
    20    14    15   ar
    21    15    16   ar
    22    16    17   ar
    23    17    18    1
    24    17    19   ar
    25    23    24   ar
    26    24    25   ar
    27    25    26   ar
    28    26    27   ar
    29    27    28   ar
    30    28    29   ar
    31    29    21   ar
    32     8     3    1
    33    19    13   ar
    34    29    24   ar
    35     6     4    1
    36    30    33    1
    37    30    34    1
    38    11    12    1
@<TRIPOS>MOLECULE
*****
 34 38 0 0 0
SMALL
GASTEIGER

@<TRIPOS>ATOM
      1 C          -5.7721  -16.2793   24.6303 C.2     1  UNL1        0.2508
      2 O          -4.3310  -15.9958   24.9352 O.2     1  UNL1       -0.2727
      3 N          -6.8409  -15.8473   25.5900 N.am    1  UNL1       -0.2730
      4 C          -6.6220  -15.1268   26.8874 C.3     1  UNL1        0.0759
      5 C          -6.7157  -14.4199   28.2070 C.3     1  UNL1        0.0215
      6 C          -7.9620  -14.8942   27.5201 C.3     1  UNL1        0.0220
      7 C          -9.0089  -15.4709   26.6139 C.3     1  UNL1        0.0309
      8 C          -8.3160  -16.0600   25.4210 C.3     1  UNL1        0.1521
      9 C          -8.9815  -16.7419   24.2625 C.2     1  UNL1        0.2452
     10 O          -9.3068  -18.2043   24.3391 O.2     1  UNL1       -0.2730
     11 N          -9.3217  -15.9617   23.0275 N.am    1  UNL1       -0.2680
     12 H          -9.1082  -15.0019   22.9772 H       1  UNL1        0.1563
     13 C          -9.9871  -16.6436   21.8690 C.ar    1  UNL1        0.1347
     14 C         -11.3396  -16.1884   21.4068 C.ar    1  UNL1        0.0345
     15 C         -12.0051  -16.8703   20.2483 C.ar    1  UNL1        0.0049
     16 C         -11.3180  -18.0076   19.5520 C.ar    1  UNL1        0.0261
     17 C          -9.9656  -18.4628   20.0143 C.ar    1  UNL1        0.1168
     18 BR         -9.2786  -19.6001   19.3180 Br      1  UNL1       -0.0280
     19 N          -9.3002  -17.7808   21.1727 N.ar    1  UNL1       -0.2238
     20 C          -6.1444  -16.9948   23.3655 C.3     1  UNL1        0.2120
     21 C          -2.9676  -18.0267   21.3887 C.ar    1  UNL1        0.1552
     22 N          -3.6913  -17.0880   22.3078 N.ar    1  UNL1       -0.1642
     23 N          -5.0781  -17.6203   22.5159 N.ar    1  UNL1       -0.2414
     24 C          -5.2115  -18.8881   21.7254 C.ar    1  UNL1        0.0800
     25 C          -6.3522  -19.8463   21.5500 C.ar    1  UNL1        0.0188
     26 C          -6.1884  -21.0556   20.6779 C.ar    1  UNL1        0.0015
     27 C          -4.8840  -21.3068   19.9811 C.ar    1  UNL1        0.0001
     28 C          -3.7433  -20.3486   20.1566 C.ar    1  UNL1        0.0032
     29 C          -3.9071  -19.1393   21.0287 C.ar    1  UNL1        0.0411
     30 N          -0.9022  -16.5273   20.9027 N.am    1  UNL1       -0.3240
     31 C          -1.5527  -17.8789   20.9129 C.2     1  UNL1        0.2623
     32 O          -0.7883  -19.0826   20.4474 O.2     1  UNL1       -0.2687
     33 H           0.0264  -16.4303   20.5904 H       1  UNL1        0.1453
     34 H          -1.4039  -15.7372   21.2082 H       1  UNL1        0.1453
@<TRIPOS>BOND
     1    30    31   am
     2    31    32    2
     3    31    21    1
     4    21    22   ar
     5    22    23   ar
     6    23    20    1
     7    20     1    1
     8     1     2    2
     9     1     3   am
    10     3     4    1
    11     4     5    1
    12     6     5    1
    13     6     7    1
    14     7     8    1
    15     8     9    1
    16     9    10    2
    17     9    11   am
    18    11    13    1
    19    13    14   ar
    20    14    15   ar
    21    15    16   ar
    22    16    17   ar
    23    17    18    1
    24    17    19   ar
    25    23    24   ar
    26    24    25   ar
    27    25    26   ar
    28    26    27   ar
    29    27    28   ar
    30    28    29   ar
    31    29    21   ar
    32     8     3    1
    33    19    13   ar
    34    29    24   ar
    35     6     4    1
    36    30    33    1
    37    30    34    1
    38    11    12    1
@<TRIPOS>MOLECULE
*****
 34 38 0 0 0
SMALL
GASTEIGER

@<TRIPOS>ATOM
      1 C          -9.1359  -18.6458   20.9397 C.2     1  UNL1        0.2508
      2 O          -8.9578  -19.4828   19.7078 O.2     1  UNL1       -0.2727
      3 N         -10.2107  -17.6005   20.9873 N.am    1  UNL1       -0.2730
      4 C         -11.1781  -17.2800   19.8866 C.3     1  UNL1        0.0759
      5 C         -12.2544  -16.7462   18.9885 C.3     1  UNL1        0.0215
      6 C         -12.0721  -16.1737   20.3629 C.3     1  UNL1        0.0220
      7 C         -11.6573  -15.8106   21.7579 C.3     1  UNL1        0.0309
      8 C         -10.5069  -16.6924   22.1438 C.3     1  UNL1        0.1521
      9 C          -9.7802  -16.6700   23.4558 C.2     1  UNL1        0.2452
     10 O         -10.0519  -17.7301   24.4819 O.2     1  UNL1       -0.2730
     11 N          -8.7818  -15.5877   23.7419 N.am    1  UNL1       -0.2680
     12 H          -8.6035  -14.8921   23.0685 H       1  UNL1        0.1563
     13 C          -8.0552  -15.5654   25.0539 C.ar    1  UNL1        0.1347
     14 C          -8.7985  -15.2485   26.3177 C.ar    1  UNL1        0.0345
     15 C          -8.0719  -15.2262   27.6297 C.ar    1  UNL1        0.0049
     16 C          -6.6018  -15.5206   27.6780 C.ar    1  UNL1        0.0261
     17 C          -5.8585  -15.8375   26.4143 C.ar    1  UNL1        0.1168
     18 BR         -4.3884  -16.1319   26.4625 Br      1  UNL1       -0.0280
     19 N          -6.5852  -15.8598   25.1022 N.ar    1  UNL1       -0.2238
     20 C          -8.2392  -18.8539   22.1241 C.3     1  UNL1        0.2120
     21 C          -4.4923  -17.8431   22.1918 C.ar    1  UNL1        0.1552
     22 N          -5.9176  -17.6183   22.6019 N.ar    1  UNL1       -0.1642
     23 N          -6.7548  -18.6952   21.9780 N.ar    1  UNL1       -0.2414
     24 C          -5.8470  -19.5856   21.1823 C.ar    1  UNL1        0.0800
     25 C          -6.1130  -20.8079   20.3545 C.ar    1  UNL1        0.0188
     26 C          -4.9807  -21.5035   19.6589 C.ar    1  UNL1        0.0015
     27 C          -3.5824  -20.9769   19.7910 C.ar    1  UNL1        0.0001
     28 C          -3.3164  -19.7546   20.6188 C.ar    1  UNL1        0.0032
     29 C          -4.4487  -19.0590   21.3144 C.ar    1  UNL1        0.0411
     30 N          -2.1465  -17.6266   23.2875 N.am    1  UNL1       -0.3240
     31 C          -3.3171  -17.0001   22.5892 C.2     1  UNL1        0.2623
     32 O          -3.3122  -15.5306   22.2886 O.2     1  UNL1       -0.2687
     33 H          -1.3751  -17.0733   23.5483 H       1  UNL1        0.1453
     34 H          -2.1497  -18.5911   23.4848 H       1  UNL1        0.1453
@<TRIPOS>BOND
     1    30    31   am
     2    31    32    2
     3    31    21    1
     4    21    22   ar
     5    22    23   ar
     6    23    20    1
     7    20     1    1
     8     1     2    2
     9     1     3   am
    10     3     4    1
    11     4     5    1
    12     6     5    1
    13     6     7    1
    14     7     8    1
    15     8     9    1
    16     9    10    2
    17     9    11   am
    18    11    13    1
    19    13    14   ar
    20    14    15   ar
    21    15    16   ar
    22    16    17   ar
    23    17    18    1
    24    17    19   ar
    25    23    24   ar
    26    24    25   ar
    27    25    26   ar
    28    26    27   ar
    29    27    28   ar
    30    28    29   ar
    31    29    21   ar
    32     8     3    1
    33    19    13   ar
    34    29    24   ar
    35     6     4    1
    36    30    33    1
    37    30    34    1
    38    11    12    1
@<TRIPOS>MOLECULE
*****
 34 38 0 0 0
SMALL
GASTEIGER

@<TRIPOS>ATOM
      1 C         -13.5289   -4.3710   19.8241 C.2     1  UNL1        0.2508
      2 O         -13.0137   -3.1032   20.4382 O.2     1  UNL1       -0.2727
      3 N         -12.5698   -5.3632   19.2361 N.am    1  UNL1       -0.2730
      4 C         -11.0769   -5.2255   19.1896 C.3     1  UNL1        0.0759
      5 C          -9.5956   -5.3665   18.9999 C.3     1  UNL1        0.0215
      6 C         -10.5197   -6.4445   18.5161 C.3     1  UNL1        0.0220
      7 C         -11.6683   -7.3356   18.1465 C.3     1  UNL1        0.0309
      8 C         -12.9353   -6.6674   18.5914 C.3     1  UNL1        0.1521
      9 C         -14.3240   -7.2083   18.4216 C.2     1  UNL1        0.2452
     10 O         -15.1633   -6.7683   17.2588 O.2     1  UNL1       -0.2730
     11 N         -14.8735   -8.1893   19.4145 N.am    1  UNL1       -0.2680
     12 H         -14.3226   -8.4781   20.1776 H       1  UNL1        0.1563
     13 C         -16.2622   -8.7302   19.2446 C.ar    1  UNL1        0.1347
     14 C         -16.5278   -9.8131   18.2411 C.ar    1  UNL1        0.0345
     15 C         -17.9165  -10.3540   18.0712 C.ar    1  UNL1        0.0049
     16 C         -19.0396   -9.8121   18.9049 C.ar    1  UNL1        0.0261
     17 C         -18.7741   -8.7293   19.9083 C.ar    1  UNL1        0.1168
     18 BR        -19.8972   -8.1873   20.7420 Br      1  UNL1       -0.0280
     19 N         -17.3853   -8.1883   20.0782 N.ar    1  UNL1       -0.2238
     20 C         -15.0032   -4.6467   19.7980 C.3     1  UNL1        0.2120
     21 C         -16.9146   -1.2696   19.8780 C.ar    1  UNL1        0.1552
     22 N         -15.6360   -2.0526   19.9216 N.ar    1  UNL1       -0.1642
     23 N         -15.9793   -3.5077   19.8002 N.ar    1  UNL1       -0.2414
     24 C         -17.4701   -3.6240   19.6815 C.ar    1  UNL1        0.0800
     25 C         -18.3758   -4.8107   19.5359 C.ar    1  UNL1        0.0188
     26 C         -19.8596   -4.6142   19.4383 C.ar    1  UNL1        0.0015
     27 C         -20.4377   -3.2309   19.4863 C.ar    1  UNL1        0.0001
     28 C         -19.5320   -2.0441   19.6320 C.ar    1  UNL1        0.0032
     29 C         -18.0481   -2.2407   19.7296 C.ar    1  UNL1        0.0411
     30 N         -17.4476    0.8656   21.2590 N.am    1  UNL1       -0.3240
     31 C         -17.0381    0.2227   19.9670 C.2     1  UNL1        0.2623
     32 O         -16.7522    1.0721   18.7643 O.2     1  UNL1       -0.2687
     33 H         -17.5286    1.8450   21.3175 H       1  UNL1        0.1453
     34 H         -17.6353    0.3082   22.0485 H       1  UNL1        0.1453
@<TRIPOS>BOND
     1    30    31   am
     2    31    32    2
     3    31    21    1
     4    21    22   ar
     5    22    23   ar
     6    23    20    1
     7    20     1    1
     8     1     2    2
     9     1     3   am
    10     3     4    1
    11     4     5    1
    12     6     5    1
    13     6     7    1
    14     7     8    1
    15     8     9    1
    16     9    10    2
    17     9    11   am
    18    11    13    1
    19    13    14   ar
    20    14    15   ar
    21    15    16   ar
    22    16    17   ar
    23    17    18    1
    24    17    19   ar
    25    23    24   ar
    26    24    25   ar
    27    25    26   ar
    28    26    27   ar
    29    27    28   ar
    30    28    29   ar
    31    29    21   ar
    32     8     3    1
    33    19    13   ar
    34    29    24   ar
    35     6     4    1
    36    30    33    1
    37    30    34    1
    38    11    12    1
