@<TRIPOS>MOLECULE
*****
 28 30 0 0 0
SMALL
GASTEIGER

@<TRIPOS>ATOM
      1 C          -8.3171  -18.3999   21.0102 C.ar    1  UNL1        0.0717
      2 C          -9.1436  -19.5591   20.5384 C.ar    1  UNL1        0.0249
      3 C         -10.6408  -19.4847   20.5938 C.ar    1  UNL1        0.0818
      4 N         -11.3113  -18.2508   21.1211 N.ar    1  UNL1       -0.2852
      5 C         -12.7569  -17.8907   21.2953 C.ar    1  UNL1        0.1829
      6 N         -12.8237  -16.5087   21.8748 N.ar    1  UNL1       -0.2220
      7 C         -11.4194  -16.0148   22.0587 C.ar    1  UNL1        0.1194
      8 C         -10.4846  -17.0915   21.5929 C.ar    1  UNL1        0.0981
      9 C          -8.9875  -17.1660   21.5375 C.ar    1  UNL1        0.0708
     10 O          -6.0174  -18.3896   22.2191 O.2     1  UNL1       -0.2680
     11 C          -6.8199  -18.4744   20.9547 C.2     1  UNL1        0.2692
     12 N          -6.1253  -18.6336   19.6348 N.am    1  UNL1       -0.1896
     13 H          -6.6521  -18.6892   18.8049 H       1  UNL1        0.1828
     14 O          -4.6282  -18.7081   19.5793 O.3     1  UNL1       -0.2635
     15 C          -3.9162  -19.9093   20.1272 C.3     1  UNL1        0.2026
     16 C          -3.0889  -19.7874   21.3725 C.3     1  UNL1        0.1719
     17 O          -1.7309  -20.4214   21.4357 O.3     1  UNL1       -0.3794
     18 H          -1.8223  -21.3863   21.3952 H       1  UNL1        0.2105
     19 N          -8.1608  -16.0067   22.0093 N.pl3   1  UNL1       -0.3095
     20 H          -7.8179  -15.3503   21.3606 H       1  UNL1        0.1523
     21 C          -7.8567  -15.8474   23.4695 C.ar    1  UNL1        0.0762
     22 C          -8.8956  -16.1950   24.4942 C.ar    1  UNL1        0.0173
     23 C          -8.5915  -16.0357   25.9544 C.ar    1  UNL1        0.0072
     24 C          -7.2485  -15.5289   26.3899 C.ar    1  UNL1        0.0324
     25 I          -6.9444  -15.3696   27.8500 I       1  UNL1       -0.0424
     26 C          -6.2097  -15.1814   25.3652 C.ar    1  UNL1        0.0367
     27 C          -6.5138  -15.3407   23.9050 C.ar    1  UNL1        0.1538
     28 F          -5.4749  -14.9931   22.8803 F       1  UNL1       -0.2028
@<TRIPOS>BOND
     1    10    11    2
     2    11    12   am
     3    12    14    1
     4    14    15    1
     5    15    16    1
     6    16    17    1
     7    11     1    1
     8     1     2   ar
     9     2     3   ar
    10     3     4   ar
    11     4     5   ar
    12     5     6   ar
    13     6     7   ar
    14     7     8   ar
    15     8     9   ar
    16     9    19    1
    17    19    21    1
    18    21    22   ar
    19    22    23   ar
    20    23    24   ar
    21    24    25    1
    22    24    26   ar
    23    26    27   ar
    24    27    28    1
    25     9     1   ar
    26    27    21   ar
    27     8     4   ar
    28    12    13    1
    29    17    18    1
    30    19    20    1
@<TRIPOS>MOLECULE
*****
 28 30 0 0 0
SMALL
GASTEIGER

@<TRIPOS>ATOM
      1 C          -3.4820  -17.1394   22.8276 C.ar    1  UNL1        0.0717
      2 C          -2.3913  -16.2138   22.3766 C.ar    1  UNL1        0.0249
      3 C          -1.7390  -16.4176   21.0413 C.ar    1  UNL1        0.0818
      4 N          -2.1774  -17.5472   20.1571 N.ar    1  UNL1       -0.2852
      5 C          -1.7229  -17.9933   18.7990 C.ar    1  UNL1        0.1829
      6 N          -2.5327  -19.1947   18.4107 N.ar    1  UNL1       -0.2220
      7 C          -3.4877  -19.4911   19.5288 C.ar    1  UNL1        0.1194
      8 C          -3.2681  -18.4728   20.6081 C.ar    1  UNL1        0.0981
      9 C          -3.9204  -18.2690   21.9434 C.ar    1  UNL1        0.0708
     10 O          -3.9107  -17.9270   25.2660 O.2     1  UNL1       -0.2680
     11 C          -4.1344  -16.9356   24.1629 C.2     1  UNL1        0.2692
     12 N          -5.0104  -15.7403   24.3949 N.am    1  UNL1       -0.1896
     13 H          -5.1571  -15.0896   23.6709 H       1  UNL1        0.1828
     14 O          -5.6627  -15.5364   25.7301 O.3     1  UNL1       -0.2635
     15 C          -7.1347  -15.7771   25.8903 C.3     1  UNL1        0.2026
     16 C          -8.1033  -15.1751   24.9160 C.3     1  UNL1        0.1719
     17 O          -7.6670  -14.0532   24.0209 O.3     1  UNL1       -0.3794
     18 H          -7.4686  -13.2699   24.5575 H       1  UNL1        0.2105
     19 N          -5.0112  -19.1947   22.3944 N.pl3   1  UNL1       -0.3095
     20 H          -4.8039  -19.9397   23.0037 H       1  UNL1        0.1523
     21 C          -6.4177  -18.9852   21.9171 C.ar    1  UNL1        0.0762
     22 C          -7.2506  -17.8817   22.4989 C.ar    1  UNL1        0.0173
     23 C          -8.6572  -17.6723   22.0215 C.ar    1  UNL1        0.0072
     24 C          -9.2307  -18.5664   20.9624 C.ar    1  UNL1        0.0324
     25 I         -10.6373  -18.3569   20.4851 I       1  UNL1       -0.0424
     26 C          -8.3978  -19.6698   20.3807 C.ar    1  UNL1        0.0367
     27 C          -6.9913  -19.8792   20.8580 C.ar    1  UNL1        0.1538
     28 F          -6.1583  -20.9828   20.2762 F       1  UNL1       -0.2028
@<TRIPOS>BOND
     1    10    11    2
     2    11    12   am
     3    12    14    1
     4    14    15    1
     5    15    16    1
     6    16    17    1
     7    11     1    1
     8     1     2   ar
     9     2     3   ar
    10     3     4   ar
    11     4     5   ar
    12     5     6   ar
    13     6     7   ar
    14     7     8   ar
    15     8     9   ar
    16     9    19    1
    17    19    21    1
    18    21    22   ar
    19    22    23   ar
    20    23    24   ar
    21    24    25    1
    22    24    26   ar
    23    26    27   ar
    24    27    28    1
    25     9     1   ar
    26    27    21   ar
    27     8     4   ar
    28    12    13    1
    29    17    18    1
    30    19    20    1
@<TRIPOS>MOLECULE
*****
 28 30 0 0 0
SMALL
GASTEIGER

@<TRIPOS>ATOM
      1 C          -5.9115  -17.3936   22.8758 C.ar    1  UNL1        0.0717
      2 C          -4.7486  -18.3183   23.0819 C.ar    1  UNL1        0.0249
      3 C          -4.6251  -19.5638   22.2552 C.ar    1  UNL1        0.0818
      4 N          -5.6645  -19.8846   21.2224 N.ar    1  UNL1       -0.2852
      5 C          -5.8081  -21.0304   20.2650 C.ar    1  UNL1        0.1829
      6 N          -7.0597  -20.8138   19.4673 N.ar    1  UNL1       -0.2220
      7 C          -7.6898  -19.5341   19.9316 C.ar    1  UNL1        0.1194
      8 C          -6.8275  -18.9598   21.0163 C.ar    1  UNL1        0.0981
      9 C          -6.9509  -17.7143   21.8431 C.ar    1  UNL1        0.0708
     10 O          -6.7301  -14.9424   23.1431 O.2     1  UNL1       -0.2680
     11 C          -6.0351  -16.1480   23.7026 C.2     1  UNL1        0.2692
     12 N          -5.4635  -16.1083   25.0888 N.am    1  UNL1       -0.1896
     13 H          -5.0073  -16.8997   25.4561 H       1  UNL1        0.1828
     14 O          -5.5870  -14.8628   25.9156 O.3     1  UNL1       -0.2635
     15 C          -6.4865  -14.8456   27.1160 C.3     1  UNL1        0.2026
     16 C          -7.8925  -15.3565   27.0069 C.3     1  UNL1        0.1719
     17 O          -8.5774  -15.3884   25.6726 O.3     1  UNL1       -0.3794
     18 H          -8.7091  -14.4814   25.3550 H       1  UNL1        0.2105
     19 N          -8.1139  -16.7896   21.6370 N.pl3   1  UNL1       -0.3095
     20 H          -8.0006  -15.9662   21.1094 H       1  UNL1        0.1523
     21 C          -9.4495  -17.1195   22.2349 C.ar    1  UNL1        0.0762
     22 C          -9.5426  -18.0961   23.3696 C.ar    1  UNL1        0.0173
     23 C         -10.8783  -18.4260   23.9674 C.ar    1  UNL1        0.0072
     24 C         -12.1206  -17.7792   23.4306 C.ar    1  UNL1        0.0324
     25 I         -13.4562  -18.1090   24.0284 I       1  UNL1       -0.0424
     26 C         -12.0274  -16.8026   22.2959 C.ar    1  UNL1        0.0367
     27 C         -10.6918  -16.4727   21.6981 C.ar    1  UNL1        0.1538
     28 F         -10.5987  -15.4960   20.5634 F       1  UNL1       -0.2028
@<TRIPOS>BOND
     1    10    11    2
     2    11    12   am
     3    12    14    1
     4    14    15    1
     5    15    16    1
     6    16    17    1
     7    11     1    1
     8     1     2   ar
     9     2     3   ar
    10     3     4   ar
    11     4     5   ar
    12     5     6   ar
    13     6     7   ar
    14     7     8   ar
    15     8     9   ar
    16     9    19    1
    17    19    21    1
    18    21    22   ar
    19    22    23   ar
    20    23    24   ar
    21    24    25    1
    22    24    26   ar
    23    26    27   ar
    24    27    28    1
    25     9     1   ar
    26    27    21   ar
    27     8     4   ar
    28    12    13    1
    29    17    18    1
    30    19    20    1
@<TRIPOS>MOLECULE
*****
 28 30 0 0 0
SMALL
GASTEIGER

@<TRIPOS>ATOM
      1 C          -4.7686  -17.1835   23.0821 C.ar    1  UNL1        0.0717
      2 C          -3.3895  -17.2212   22.4936 C.ar    1  UNL1        0.0249
      3 C          -3.0254  -18.2879   21.5037 C.ar    1  UNL1        0.0818
      4 N          -4.0404  -19.3168   21.1026 N.ar    1  UNL1       -0.2852
      5 C          -3.9716  -20.4791   20.1570 C.ar    1  UNL1        0.1829
      6 N          -5.3083  -21.1597   20.1611 N.ar    1  UNL1       -0.2220
      7 C          -6.2032  -20.4181   21.1094 C.ar    1  UNL1        0.1194
      8 C          -5.4196  -19.2791   21.6912 C.ar    1  UNL1        0.0981
      9 C          -5.7837  -18.2124   22.6810 C.ar    1  UNL1        0.0708
     10 O          -5.5630  -14.7627   23.5911 O.2     1  UNL1       -0.2680
     11 C          -5.1328  -16.1168   24.0720 C.2     1  UNL1        0.2692
     12 N          -5.0667  -16.4043   25.5426 N.am    1  UNL1       -0.1896
     13 H          -4.7844  -17.2931   25.8582 H       1  UNL1        0.1828
     14 O          -5.4309  -15.3378   26.5325 O.3     1  UNL1       -0.2635
     15 C          -6.6849  -15.4658   27.3457 C.3     1  UNL1        0.2026
     16 C          -8.0247  -15.3630   26.6791 C.3     1  UNL1        0.1719
     17 O          -8.1168  -14.9463   25.2410 O.3     1  UNL1       -0.3794
     18 H          -7.8197  -14.0273   25.1510 H       1  UNL1        0.2105
     19 N          -7.1629  -18.1747   23.2696 N.pl3   1  UNL1       -0.3095
     20 H          -7.3105  -18.4699   24.1971 H       1  UNL1        0.1523
     21 C          -8.3172  -17.6870   22.4450 C.ar    1  UNL1        0.0762
     22 C          -8.4301  -16.2317   22.0996 C.ar    1  UNL1        0.0173
     23 C          -9.5844  -15.7440   21.2750 C.ar    1  UNL1        0.0072
     24 C         -10.6257  -16.7117   20.7959 C.ar    1  UNL1        0.0324
     25 I         -11.7799  -16.2241   19.9714 I       1  UNL1       -0.0424
     26 C         -10.5127  -18.1670   21.1415 C.ar    1  UNL1        0.0367
     27 C          -9.3584  -18.6546   21.9660 C.ar    1  UNL1        0.1538
     28 F          -9.2454  -20.1099   22.3115 F       1  UNL1       -0.2028
@<TRIPOS>BOND
     1    10    11    2
     2    11    12   am
     3    12    14    1
     4    14    15    1
     5    15    16    1
     6    16    17    1
     7    11     1    1
     8     1     2   ar
     9     2     3   ar
    10     3     4   ar
    11     4     5   ar
    12     5     6   ar
    13     6     7   ar
    14     7     8   ar
    15     8     9   ar
    16     9    19    1
    17    19    21    1
    18    21    22   ar
    19    22    23   ar
    20    23    24   ar
    21    24    25    1
    22    24    26   ar
    23    26    27   ar
    24    27    28    1
    25     9     1   ar
    26    27    21   ar
    27     8     4   ar
    28    12    13    1
    29    17    18    1
    30    19    20    1
@<TRIPOS>MOLECULE
*****
 28 30 0 0 0
SMALL
GASTEIGER

@<TRIPOS>ATOM
      1 C          -9.2947  -17.3865   24.9441 C.ar    1  UNL1        0.0717
      2 C          -9.4050  -17.3645   26.4398 C.ar    1  UNL1        0.0249
      3 C          -8.3888  -16.6220   27.2560 C.ar    1  UNL1        0.0818
      4 N          -7.2623  -15.9015   26.5764 N.ar    1  UNL1       -0.2852
      5 C          -6.1199  -15.0913   27.1136 C.ar    1  UNL1        0.1829
      6 N          -5.3036  -14.6127   25.9498 N.ar    1  UNL1       -0.2220
      7 C          -5.9414  -15.1269   24.6933 C.ar    1  UNL1        0.1194
      8 C          -7.1520  -15.9235   25.0806 C.ar    1  UNL1        0.0981
      9 C          -8.1682  -16.6660   24.2644 C.ar    1  UNL1        0.0708
     10 O         -10.2577  -19.6257   24.0448 O.2     1  UNL1       -0.2680
     11 C         -10.3108  -18.1290   24.1279 C.2     1  UNL1        0.2692
     12 N         -11.3802  -17.3746   23.3947 N.am    1  UNL1       -0.1896
     13 H         -11.4150  -16.3923   23.4492 H       1  UNL1        0.1828
     14 O         -12.3963  -18.1171   22.5785 O.3     1  UNL1       -0.2635
     15 C         -12.6878  -17.6866   21.1714 C.3     1  UNL1        0.2026
     16 C         -12.2144  -16.3497   20.6829 C.3     1  UNL1        0.1719
     17 O         -12.6605  -15.8392   19.3448 O.3     1  UNL1       -0.3794
     18 H         -12.2979  -16.4053   18.6455 H       1  UNL1        0.2105
     19 N          -8.0579  -16.6880   22.7686 N.pl3   1  UNL1       -0.3095
     20 H          -8.5256  -16.0091   22.2305 H       1  UNL1        0.1523
     21 C          -7.2349  -17.7444   22.0927 C.ar    1  UNL1        0.0762
     22 C          -5.8001  -17.9412   22.4831 C.ar    1  UNL1        0.0173
     23 C          -4.9771  -18.9977   21.8072 C.ar    1  UNL1        0.0072
     24 C          -5.5891  -19.8572   20.7410 C.ar    1  UNL1        0.0324
     25 I          -4.7662  -20.9136   20.0651 I       1  UNL1       -0.0424
     26 C          -7.0240  -19.6603   20.3507 C.ar    1  UNL1        0.0367
     27 C          -7.8469  -18.6039   21.0266 C.ar    1  UNL1        0.1538
     28 F          -9.2818  -18.4070   20.6363 F       1  UNL1       -0.2028
@<TRIPOS>BOND
     1    10    11    2
     2    11    12   am
     3    12    14    1
     4    14    15    1
     5    15    16    1
     6    16    17    1
     7    11     1    1
     8     1     2   ar
     9     2     3   ar
    10     3     4   ar
    11     4     5   ar
    12     5     6   ar
    13     6     7   ar
    14     7     8   ar
    15     8     9   ar
    16     9    19    1
    17    19    21    1
    18    21    22   ar
    19    22    23   ar
    20    23    24   ar
    21    24    25    1
    22    24    26   ar
    23    26    27   ar
    24    27    28    1
    25     9     1   ar
    26    27    21   ar
    27     8     4   ar
    28    12    13    1
    29    17    18    1
    30    19    20    1
@<TRIPOS>MOLECULE
*****
 28 30 0 0 0
SMALL
GASTEIGER

@<TRIPOS>ATOM
      1 C          -6.9842  -17.5912   22.5969 C.ar    1  UNL1        0.0717
      2 C          -5.6944  -18.2782   22.9348 C.ar    1  UNL1        0.0249
      3 C          -5.2437  -19.4636   22.1337 C.ar    1  UNL1        0.0818
      4 N          -6.0830  -19.9620   20.9948 N.ar    1  UNL1       -0.2852
      5 C          -5.8977  -21.0988   20.0339 C.ar    1  UNL1        0.1829
      6 N          -7.0732  -21.1144   19.1022 N.ar    1  UNL1       -0.2220
      7 C          -7.9849  -19.9872   19.4872 C.ar    1  UNL1        0.1194
      8 C          -7.3729  -19.2749   20.6569 C.ar    1  UNL1        0.0981
      9 C          -7.8235  -18.0895   21.4580 C.ar    1  UNL1        0.0708
     10 O          -6.9488  -15.0319   23.0430 O.2     1  UNL1       -0.2680
     11 C          -7.4349  -16.4057   23.3980 C.2     1  UNL1        0.2692
     12 N          -8.3718  -16.5943   24.5542 N.am    1  UNL1       -0.1896
     13 H          -8.6908  -17.4960   24.7873 H       1  UNL1        0.1828
     14 O          -8.8225  -15.4089   25.3553 O.3     1  UNL1       -0.2635
     15 C          -8.2373  -15.1548   26.7130 C.3     1  UNL1        0.2026
     16 C          -6.7557  -15.2600   26.9226 C.3     1  UNL1        0.1719
     17 O          -5.8150  -14.5444   25.9990 O.3     1  UNL1       -0.3794
     18 H          -5.8808  -14.9272   25.1102 H       1  UNL1        0.2105
     19 N          -9.1134  -17.4025   21.1201 N.pl3   1  UNL1       -0.3095
     20 H          -9.1639  -16.8076   20.3374 H       1  UNL1        0.1523
     21 C         -10.3264  -17.6220   21.9750 C.ar    1  UNL1        0.0762
     22 C         -11.3659  -16.5469   22.0919 C.ar    1  UNL1        0.0173
     23 C         -12.5788  -16.7663   22.9467 C.ar    1  UNL1        0.0072
     24 C         -12.7522  -18.0608   23.6846 C.ar    1  UNL1        0.0324
     25 I         -13.9651  -18.2802   24.5394 I       1  UNL1       -0.0424
     26 C         -11.7126  -19.1358   23.5676 C.ar    1  UNL1        0.0367
     27 C         -10.4997  -18.9163   22.7128 C.ar    1  UNL1        0.1538
     28 F          -9.4602  -19.9914   22.5958 F       1  UNL1       -0.2028
@<TRIPOS>BOND
     1    10    11    2
     2    11    12   am
     3    12    14    1
     4    14    15    1
     5    15    16    1
     6    16    17    1
     7    11     1    1
     8     1     2   ar
     9     2     3   ar
    10     3     4   ar
    11     4     5   ar
    12     5     6   ar
    13     6     7   ar
    14     7     8   ar
    15     8     9   ar
    16     9    19    1
    17    19    21    1
    18    21    22   ar
    19    22    23   ar
    20    23    24   ar
    21    24    25    1
    22    24    26   ar
    23    26    27   ar
    24    27    28    1
    25     9     1   ar
    26    27    21   ar
    27     8     4   ar
    28    12    13    1
    29    17    18    1
    30    19    20    1
@<TRIPOS>MOLECULE
*****
 28 30 0 0 0
SMALL
GASTEIGER

@<TRIPOS>ATOM
      1 C          -4.8983  -16.5534   23.9584 C.ar    1  UNL1        0.0717
      2 C          -4.1600  -16.6092   25.2629 C.ar    1  UNL1        0.0249
      3 C          -4.8567  -16.2293   26.5359 C.ar    1  UNL1        0.0818
      4 N          -6.2916  -15.7936   26.5043 N.ar    1  UNL1       -0.2852
      5 C          -7.2339  -15.3631   27.5890 C.ar    1  UNL1        0.1829
      6 N          -8.5546  -15.0412   26.9548 N.ar    1  UNL1       -0.2220
      7 C          -8.4286  -15.2728   25.4782 C.ar    1  UNL1        0.1194
      8 C          -7.0299  -15.7379   25.1997 C.ar    1  UNL1        0.0981
      9 C          -6.3333  -16.1178   23.9268 C.ar    1  UNL1        0.0708
     10 O          -4.6183  -18.1676   21.9420 O.2     1  UNL1       -0.2680
     11 C          -4.2016  -16.9333   22.6854 C.2     1  UNL1        0.2692
     12 N          -3.0883  -16.0789   22.1560 N.am    1  UNL1       -0.1896
     13 H          -2.8148  -15.2687   22.6441 H       1  UNL1        0.1828
     14 O          -2.3916  -16.4587   20.8831 O.3     1  UNL1       -0.2635
     15 C          -1.3340  -17.5224   20.8955 C.3     1  UNL1        0.2026
     16 C          -1.6760  -18.9247   20.4873 C.3     1  UNL1        0.1719
     17 O          -2.1270  -19.9169   21.5180 O.3     1  UNL1       -0.3794
     18 H          -1.3984  -20.0995   22.1316 H       1  UNL1        0.2105
     19 N          -7.0716  -16.0620   22.6223 N.pl3   1  UNL1       -0.3095
     20 H          -6.8488  -15.3686   21.9598 H       1  UNL1        0.1523
     21 C          -8.1493  -17.0628   22.3270 C.ar    1  UNL1        0.0762
     22 C          -7.9788  -18.4935   22.7442 C.ar    1  UNL1        0.0173
     23 C          -9.0565  -19.4942   22.4489 C.ar    1  UNL1        0.0072
     24 C         -10.3046  -19.0642   21.7366 C.ar    1  UNL1        0.0324
     25 I         -11.3823  -20.0649   21.4413 I       1  UNL1       -0.0424
     26 C         -10.4750  -17.6335   21.3195 C.ar    1  UNL1        0.0367
     27 C          -9.3973  -16.6328   21.6147 C.ar    1  UNL1        0.1538
     28 F          -9.5678  -15.2020   21.1976 F       1  UNL1       -0.2028
@<TRIPOS>BOND
     1    10    11    2
     2    11    12   am
     3    12    14    1
     4    14    15    1
     5    15    16    1
     6    16    17    1
     7    11     1    1
     8     1     2   ar
     9     2     3   ar
    10     3     4   ar
    11     4     5   ar
    12     5     6   ar
    13     6     7   ar
    14     7     8   ar
    15     8     9   ar
    16     9    19    1
    17    19    21    1
    18    21    22   ar
    19    22    23   ar
    20    23    24   ar
    21    24    25    1
    22    24    26   ar
    23    26    27   ar
    24    27    28    1
    25     9     1   ar
    26    27    21   ar
    27     8     4   ar
    28    12    13    1
    29    17    18    1
    30    19    20    1
@<TRIPOS>MOLECULE
*****
 28 30 0 0 0
SMALL
GASTEIGER

@<TRIPOS>ATOM
      1 C          -5.3120  -18.4390   22.0854 C.ar    1  UNL1        0.0717
      2 C          -4.1200  -18.4684   22.9954 C.ar    1  UNL1        0.0249
      3 C          -4.0265  -17.5037   24.1403 C.ar    1  UNL1        0.0818
      4 N          -5.1250  -16.5098   24.3751 N.ar    1  UNL1       -0.2852
      5 C          -5.3085  -15.4434   25.4140 C.ar    1  UNL1        0.1829
      6 N          -6.6140  -14.7550   25.1459 N.ar    1  UNL1       -0.2220
      7 C          -7.2373  -15.3959   23.9415 C.ar    1  UNL1        0.1194
      8 C          -6.3171  -16.4804   23.4651 C.ar    1  UNL1        0.0981
      9 C          -6.4105  -17.4450   22.3202 C.ar    1  UNL1        0.0708
     10 O          -4.5694  -19.1940   19.7129 O.2     1  UNL1       -0.2680
     11 C          -5.4055  -19.4036   20.9404 C.2     1  UNL1        0.2692
     12 N          -6.3352  -20.5779   21.0232 N.am    1  UNL1       -0.1896
     13 H          -6.8839  -20.7155   21.8289 H       1  UNL1        0.1828
     14 O          -6.4287  -21.5425   19.8783 O.3     1  UNL1       -0.2635
     15 C          -7.6104  -21.4988   18.9553 C.3     1  UNL1        0.2026
     16 C          -8.5536  -20.3332   18.9993 C.3     1  UNL1        0.1719
     17 O          -8.0236  -18.9348   18.8812 O.3     1  UNL1       -0.3794
     18 H          -7.4761  -18.7301   19.6554 H       1  UNL1        0.2105
     19 N          -7.6026  -17.4157   21.4101 N.pl3   1  UNL1       -0.3095
     20 H          -7.4783  -17.3079   20.4395 H       1  UNL1        0.1523
     21 C          -8.9840  -17.5506   21.9790 C.ar    1  UNL1        0.0762
     22 C          -9.3717  -18.7961   22.7196 C.ar    1  UNL1        0.0173
     23 C         -10.7532  -18.9310   23.2885 C.ar    1  UNL1        0.0072
     24 C         -11.7467  -17.8204   23.1167 C.ar    1  UNL1        0.0324
     25 I         -13.1281  -17.9553   23.6855 I       1  UNL1       -0.0424
     26 C         -11.3589  -16.5750   22.3761 C.ar    1  UNL1        0.0367
     27 C          -9.9775  -16.4401   21.8073 C.ar    1  UNL1        0.1538
     28 F          -9.5898  -15.1946   21.0667 F       1  UNL1       -0.2028
@<TRIPOS>BOND
     1    10    11    2
     2    11    12   am
     3    12    14    1
     4    14    15    1
     5    15    16    1
     6    16    17    1
     7    11     1    1
     8     1     2   ar
     9     2     3   ar
    10     3     4   ar
    11     4     5   ar
    12     5     6   ar
    13     6     7   ar
    14     7     8   ar
    15     8     9   ar
    16     9    19    1
    17    19    21    1
    18    21    22   ar
    19    22    23   ar
    20    23    24   ar
    21    24    25    1
    22    24    26   ar
    23    26    27   ar
    24    27    28    1
    25     9     1   ar
    26    27    21   ar
    27     8     4   ar
    28    12    13    1
    29    17    18    1
    30    19    20    1
@<TRIPOS>MOLECULE
*****
 28 30 0 0 0
SMALL
GASTEIGER

@<TRIPOS>ATOM
      1 C          -4.9736  -17.6921   22.9714 C.ar    1  UNL1        0.0717
      2 C          -3.9707  -17.5173   24.0729 C.ar    1  UNL1        0.0249
      3 C          -4.3408  -16.7540   25.3101 C.ar    1  UNL1        0.0818
      4 N          -5.7139  -16.1655   25.4455 N.ar    1  UNL1       -0.2852
      5 C          -6.3611  -15.3692   26.5396 C.ar    1  UNL1        0.1829
      6 N          -7.7640  -15.0518   26.1141 N.ar    1  UNL1       -0.2220
      7 C          -7.9839  -15.6520   24.7571 C.ar    1  UNL1        0.1194
      8 C          -6.7168  -16.3402   24.3438 C.ar    1  UNL1        0.0981
      9 C          -6.3466  -17.1036   23.1068 C.ar    1  UNL1        0.0708
     10 O          -5.3283  -19.7226   21.3899 O.2     1  UNL1       -0.2680
     11 C          -4.6035  -18.4554   21.7342 C.2     1  UNL1        0.2692
     12 N          -3.5086  -17.9513   20.8414 N.am    1  UNL1       -0.1896
     13 H          -3.0329  -17.1195   21.0674 H       1  UNL1        0.1828
     14 O          -3.1385  -18.7146   19.6043 O.3     1  UNL1       -0.2635
     15 C          -1.8868  -18.3662   18.8545 C.3     1  UNL1        0.2026
     16 C          -0.6708  -17.9018   19.5998 C.3     1  UNL1        0.1719
     17 O          -0.4908  -18.2679   21.0434 O.3     1  UNL1       -0.3794
     18 H          -1.1802  -17.8391   21.5741 H       1  UNL1        0.2105
     19 N          -7.3496  -17.2783   22.0051 N.pl3   1  UNL1       -0.3095
     20 H          -7.0526  -17.2913   21.0666 H       1  UNL1        0.1523
     21 C          -8.8050  -17.4334   22.3335 C.ar    1  UNL1        0.0762
     22 C          -9.7659  -16.3239   22.0243 C.ar    1  UNL1        0.0173
     23 C         -11.2213  -16.4790   22.3527 C.ar    1  UNL1        0.0072
     24 C         -11.7157  -17.7436   22.9902 C.ar    1  UNL1        0.0324
     25 I         -13.1711  -17.8987   23.3186 I       1  UNL1       -0.0424
     26 C         -10.7548  -18.8530   23.2993 C.ar    1  UNL1        0.0367
     27 C          -9.2994  -18.6979   22.9710 C.ar    1  UNL1        0.1538
     28 F          -8.3385  -19.8075   23.2802 F       1  UNL1       -0.2028
@<TRIPOS>BOND
     1    10    11    2
     2    11    12   am
     3    12    14    1
     4    14    15    1
     5    15    16    1
     6    16    17    1
     7    11     1    1
     8     1     2   ar
     9     2     3   ar
    10     3     4   ar
    11     4     5   ar
    12     5     6   ar
    13     6     7   ar
    14     7     8   ar
    15     8     9   ar
    16     9    19    1
    17    19    21    1
    18    21    22   ar
    19    22    23   ar
    20    23    24   ar
    21    24    25    1
    22    24    26   ar
    23    26    27   ar
    24    27    28    1
    25     9     1   ar
    26    27    21   ar
    27     8     4   ar
    28    12    13    1
    29    17    18    1
    30    19    20    1
