@<TRIPOS>MOLECULE
*****
 43 46 0 0 0
SMALL
GASTEIGER

@<TRIPOS>ATOM
      1 C           3.2448    0.4778   19.0289 C.ar    1  UNL1        0.1545
      2 N           3.7047    0.1594   20.4207 N.ar    1  UNL1       -0.2276
      3 C           4.5308   -1.0911   20.3612 C.ar    1  UNL1        0.1045
      4 C           4.5816   -1.5457   18.9326 C.ar    1  UNL1        0.1499
      5 N           3.7868   -0.5760   18.1092 N.ar    1  UNL1       -0.2452
      6 N           3.5717   -0.6475   16.6264 N.pl3   1  UNL1       -0.2963
      7 H           3.9707   -1.3818   16.1060 H       1  UNL1        0.1627
      8 H           3.0315    0.0398   16.1737 H       1  UNL1        0.1627
      9 C           4.5279    3.0820   18.2726 C.2     1  UNL1        0.2494
     10 O           5.3801    1.9147   18.6743 O.2     1  UNL1       -0.2699
     11 N           3.0341    2.9472   18.2491 N.am    1  UNL1       -0.2708
     12 C           2.1820    4.1144   17.8475 C.3     1  UNL1        0.0941
     13 C           0.6883    3.9796   17.8240 C.3     1  UNL1        0.0216
     14 C           0.0467    2.6775   18.2021 C.3     1  UNL1        0.0039
     15 C           0.8989    1.5102   18.6038 C.3     1  UNL1        0.0277
     16 C           2.3926    1.6451   18.6273 C.3     1  UNL1        0.1338
     17 C           5.8184    4.5382   16.5510 C.2     1  UNL1        0.0048
     18 C           5.1695    4.3841   17.8945 C.2     1  UNL1        0.0580
     19 C           5.1905   -1.7683   21.5258 C.ar    1  UNL1        0.0193
     20 C           4.4569   -2.8305   22.2897 C.ar    1  UNL1        0.0017
     21 C           5.1164   -3.5077   23.4543 C.ar    1  UNL1        0.0046
     22 C           6.5098   -3.1226   23.8550 C.ar    1  UNL1        0.0537
     23 C           7.2434   -2.0605   23.0911 C.ar    1  UNL1        0.0046
     24 C           6.5838   -1.3833   21.9265 C.ar    1  UNL1        0.0017
     25 C           7.1694   -3.7998   25.0196 C.2     1  UNL1        0.2505
     26 O           8.6270   -3.5733   25.2917 O.2     1  UNL1       -0.2698
     27 N           6.3714   -4.7036   25.9121 N.am    1  UNL1       -0.2658
     28 H           5.4147   -4.8523   25.7335 H       1  UNL1        0.1566
     29 C           7.0310   -5.3808   27.0767 C.ar    1  UNL1        0.1343
     30 C           6.6690   -4.9854   28.4777 C.ar    1  UNL1        0.0383
     31 C           7.3286   -5.6625   29.6422 C.ar    1  UNL1        0.0757
     32 C           8.3503   -6.7351   29.4059 C.ar    1  UNL1        0.0246
     33 C           8.7123   -7.1305   28.0050 C.ar    1  UNL1        0.1003
     34 N           8.0527   -6.4533   26.8404 N.ar    1  UNL1       -0.2290
     35 C           6.9667   -5.2672   31.0431 C.3     1  UNL1        0.4187
     36 F           6.6046   -4.8717   32.4441 F       1  UNL1       -0.1659
     37 F           6.3157   -4.0199   30.5229 F       1  UNL1       -0.1659
     38 F           7.6175   -6.5144   31.5634 F       1  UNL1       -0.1659
     39 C           5.3008   -2.7571   18.4178 C.2     1  UNL1        0.2618
     40 N           4.7003   -4.1195   18.5996 N.am    1  UNL1       -0.3240
     41 O           6.6207   -2.6061   17.7211 O.2     1  UNL1       -0.2687
     42 H           3.8340   -4.2186   19.0568 H       1  UNL1        0.1453
     43 H           5.1723   -4.9147   18.2617 H       1  UNL1        0.1453
@<TRIPOS>BOND
     1    17    18    2
     2    18     9    1
     3     9    10    2
     4     9    11   am
     5    11    12    1
     6    12    13    1
     7    13    14    1
     8    14    15    1
     9    15    16    1
    10    16     1    1
    11     1     2   ar
    12     2     3   ar
    13     3    19    1
    14    19    20   ar
    15    20    21   ar
    16    21    22   ar
    17    22    25    1
    18    25    26    2
    19    25    27   am
    20    27    29    1
    21    29    30   ar
    22    30    31   ar
    23    31    35    1
    24    35    36    1
    25    35    37    1
    26    35    38    1
    27    31    32   ar
    28    32    33   ar
    29    33    34   ar
    30    22    23   ar
    31    23    24   ar
    32     3     4   ar
    33     4    39    1
    34    39    40   am
    35    39    41    2
    36     4     5   ar
    37     5     6    1
    38    16    11    1
    39     5     1   ar
    40    24    19   ar
    41    34    29   ar
    42    27    28    1
    43    40    42    1
    44    40    43    1
    45     6     7    1
    46     6     8    1
@<TRIPOS>MOLECULE
*****
 43 46 0 0 0
SMALL
GASTEIGER

@<TRIPOS>ATOM
      1 C           2.3962    1.8408   31.0012 C.ar    1  UNL1        0.1545
      2 N           3.2072    1.5479   29.7739 N.ar    1  UNL1       -0.2276
      3 C           2.2637    1.1406   28.6812 C.ar    1  UNL1        0.1045
      4 C           0.8695    1.1818   29.2333 C.ar    1  UNL1        0.1499
      5 N           0.9515    1.6146   30.6671 N.ar    1  UNL1       -0.2452
      6 N          -0.2078    1.7902   31.6026 N.pl3   1  UNL1       -0.2963
      7 H          -1.1245    1.6164   31.2886 H       1  UNL1        0.1627
      8 H          -0.0520    2.0794   32.5307 H       1  UNL1        0.1627
      9 C           3.5445   -0.1779   32.9002 C.2     1  UNL1        0.2494
     10 O           3.0055   -0.6195   31.5719 O.2     1  UNL1       -0.2699
     11 N           3.5094    1.2731   33.2791 N.am    1  UNL1       -0.2708
     12 C           4.0485    1.7147   34.6074 C.3     1  UNL1        0.0941
     13 C           4.0133    3.1656   34.9862 C.3     1  UNL1        0.0216
     14 C           3.4392    4.1750   34.0367 C.3     1  UNL1        0.0039
     15 C           2.9001    3.7334   32.7084 C.3     1  UNL1        0.0277
     16 C           2.9352    2.2825   32.3296 C.3     1  UNL1        0.1338
     17 C           4.5211   -2.5430   33.3500 C.2     1  UNL1        0.0048
     18 C           4.1187   -1.1872   33.8497 C.2     1  UNL1        0.0580
     19 C           2.6470    0.7591   27.2820 C.ar    1  UNL1        0.0193
     20 C           2.3078    1.6672   26.1374 C.ar    1  UNL1        0.0017
     21 C           2.6910    1.2858   24.7383 C.ar    1  UNL1        0.0046
     22 C           3.4136   -0.0039   24.4839 C.ar    1  UNL1        0.0537
     23 C           3.7529   -0.9120   25.6284 C.ar    1  UNL1        0.0046
     24 C           3.3696   -0.5305   27.0276 C.ar    1  UNL1        0.0017
     25 C           3.7969   -0.3854   23.0847 C.2     1  UNL1        0.2505
     26 O           5.2255   -0.7071   22.7598 O.2     1  UNL1       -0.2698
     27 N           2.7516   -0.4452   22.0106 N.am    1  UNL1       -0.2658
     28 H           1.8139   -0.2340   22.2239 H       1  UNL1        0.1566
     29 C           3.1349   -0.8267   20.6114 C.ar    1  UNL1        0.1343
     30 C           3.5406   -2.2375   20.3032 C.ar    1  UNL1        0.0383
     31 C           3.9239   -2.6190   18.9041 C.ar    1  UNL1        0.0757
     32 C           3.9015   -1.5897   17.8133 C.ar    1  UNL1        0.0246
     33 C           3.4958   -0.1789   18.1214 C.ar    1  UNL1        0.1003
     34 N           3.1125    0.2026   19.5205 N.ar    1  UNL1       -0.2290
     35 C           4.3297   -4.0297   18.5959 C.3     1  UNL1        0.4187
     36 F           4.7354   -5.4406   18.2876 F       1  UNL1       -0.1659
     37 F           2.9635   -4.5085   18.9889 F       1  UNL1       -0.1659
     38 F           5.6958   -3.5511   18.2029 F       1  UNL1       -0.1659
     39 C          -0.3860    0.8488   28.4832 C.2     1  UNL1        0.2618
     40 N          -0.9427   -0.5432   28.5333 N.am    1  UNL1       -0.3240
     41 O          -1.0849    1.9077   27.6829 O.2     1  UNL1       -0.2687
     42 H          -0.4840   -1.2382   29.0585 H       1  UNL1        0.1453
     43 H          -1.7667   -0.7618   28.0410 H       1  UNL1        0.1453
@<TRIPOS>BOND
     1    17    18    2
     2    18     9    1
     3     9    10    2
     4     9    11   am
     5    11    12    1
     6    12    13    1
     7    13    14    1
     8    14    15    1
     9    15    16    1
    10    16     1    1
    11     1     2   ar
    12     2     3   ar
    13     3    19    1
    14    19    20   ar
    15    20    21   ar
    16    21    22   ar
    17    22    25    1
    18    25    26    2
    19    25    27   am
    20    27    29    1
    21    29    30   ar
    22    30    31   ar
    23    31    35    1
    24    35    36    1
    25    35    37    1
    26    35    38    1
    27    31    32   ar
    28    32    33   ar
    29    33    34   ar
    30    22    23   ar
    31    23    24   ar
    32     3     4   ar
    33     4    39    1
    34    39    40   am
    35    39    41    2
    36     4     5   ar
    37     5     6    1
    38    16    11    1
    39     5     1   ar
    40    24    19   ar
    41    34    29   ar
    42    27    28    1
    43    40    42    1
    44    40    43    1
    45     6     7    1
    46     6     8    1
@<TRIPOS>MOLECULE
*****
 43 46 0 0 0
SMALL
GASTEIGER

@<TRIPOS>ATOM
      1 C          -0.5255    2.9356   24.3262 C.ar    1  UNL1        0.1545
      2 N          -0.0045    1.5292   24.3029 N.ar    1  UNL1       -0.2276
      3 C           1.3815    1.5577   23.7301 C.ar    1  UNL1        0.1045
      4 C           1.7172    2.9818   23.3993 C.ar    1  UNL1        0.1499
      5 N           0.5386    3.8333   23.7677 N.ar    1  UNL1       -0.2452
      6 N           0.4411    5.3214   23.6061 N.pl3   1  UNL1       -0.2963
      7 H           1.1970    5.8259   23.2274 H       1  UNL1        0.1627
      8 H          -0.3787    5.7935   23.8786 H       1  UNL1        0.1627
      9 C          -2.7167    3.5447   22.3698 C.2     1  UNL1        0.2494
     10 O          -1.3684    3.1119   21.8750 O.2     1  UNL1       -0.2699
     11 N          -2.9694    3.6729   23.8428 N.am    1  UNL1       -0.2708
     12 C          -4.3177    4.1056   24.3376 C.3     1  UNL1        0.0941
     13 C          -4.5704    4.2338   25.8106 C.3     1  UNL1        0.0216
     14 C          -3.4748    3.9292   26.7888 C.3     1  UNL1        0.0039
     15 C          -2.1265    3.4965   26.2940 C.3     1  UNL1        0.0277
     16 C          -1.8738    3.3683   24.8210 C.3     1  UNL1        0.1338
     17 C          -3.5507    3.7509   19.9179 C.2     1  UNL1        0.0048
     18 C          -3.8123    3.8492   21.3916 C.2     1  UNL1        0.0580
     19 C           2.2750    0.3706   23.5242 C.ar    1  UNL1        0.0193
     20 C           3.0269   -0.2124   24.6839 C.ar    1  UNL1        0.0017
     21 C           3.9203   -1.3994   24.4781 C.ar    1  UNL1        0.0046
     22 C           4.0620   -2.0036   23.1124 C.ar    1  UNL1        0.0537
     23 C           3.3103   -1.4207   21.9527 C.ar    1  UNL1        0.0046
     24 C           2.4167   -0.2336   22.1586 C.ar    1  UNL1        0.0017
     25 C           4.9556   -3.1907   22.9065 C.2     1  UNL1        0.2505
     26 O           4.5498   -4.2792   21.9575 O.2     1  UNL1       -0.2698
     27 N           6.2549   -3.2894   23.6497 N.am    1  UNL1       -0.2658
     28 H           6.5212   -2.5750   24.2725 H       1  UNL1        0.1566
     29 C           7.1484   -4.4765   23.4437 C.ar    1  UNL1        0.1343
     30 C           7.2818   -5.5108   24.5219 C.ar    1  UNL1        0.0383
     31 C           8.1752   -6.6978   24.3160 C.ar    1  UNL1        0.0757
     32 C           8.9354   -6.8507   23.0319 C.ar    1  UNL1        0.0246
     33 C           8.8021   -5.8164   21.9538 C.ar    1  UNL1        0.1003
     34 N           7.9085   -4.6293   22.1597 N.ar    1  UNL1       -0.2290
     35 C           8.3086   -7.7322   25.3941 C.3     1  UNL1        0.4187
     36 F           8.4421   -8.7665   26.4723 F       1  UNL1       -0.1659
     37 F           9.5324   -8.2774   24.7196 F       1  UNL1       -0.1659
     38 F           7.0849   -7.1870   26.0687 F       1  UNL1       -0.1659
     39 C           3.0052    3.4687   22.8046 C.2     1  UNL1        0.2618
     40 N           3.9816    4.2302   23.6512 N.am    1  UNL1       -0.3240
     41 O           3.3169    3.1942   21.3632 O.2     1  UNL1       -0.2687
     42 H           3.7770    4.4104   24.5973 H       1  UNL1        0.1453
     43 H           4.8270    4.5499   23.2609 H       1  UNL1        0.1453
@<TRIPOS>BOND
     1    17    18    2
     2    18     9    1
     3     9    10    2
     4     9    11   am
     5    11    12    1
     6    12    13    1
     7    13    14    1
     8    14    15    1
     9    15    16    1
    10    16     1    1
    11     1     2   ar
    12     2     3   ar
    13     3    19    1
    14    19    20   ar
    15    20    21   ar
    16    21    22   ar
    17    22    25    1
    18    25    26    2
    19    25    27   am
    20    27    29    1
    21    29    30   ar
    22    30    31   ar
    23    31    35    1
    24    35    36    1
    25    35    37    1
    26    35    38    1
    27    31    32   ar
    28    32    33   ar
    29    33    34   ar
    30    22    23   ar
    31    23    24   ar
    32     3     4   ar
    33     4    39    1
    34    39    40   am
    35    39    41    2
    36     4     5   ar
    37     5     6    1
    38    16    11    1
    39     5     1   ar
    40    24    19   ar
    41    34    29   ar
    42    27    28    1
    43    40    42    1
    44    40    43    1
    45     6     7    1
    46     6     8    1
@<TRIPOS>MOLECULE
*****
 43 46 0 0 0
SMALL
GASTEIGER

@<TRIPOS>ATOM
      1 C          -0.8774    2.7600   20.9074 C.ar    1  UNL1        0.1545
      2 N          -0.3472    1.4164   21.3120 N.ar    1  UNL1       -0.2276
      3 C           1.0972    1.3488   20.9129 C.ar    1  UNL1        0.1045
      4 C           1.4596    2.6505   20.2616 C.ar    1  UNL1        0.1499
      5 N           0.2392    3.5227   20.2583 N.ar    1  UNL1       -0.2452
      6 N           0.1510    4.9134   19.7032 N.pl3   1  UNL1       -0.2963
      7 H           0.9430    5.3313   19.2942 H       1  UNL1        0.1627
      8 H          -0.6989    5.4082   19.7479 H       1  UNL1        0.1627
      9 C          -1.7512    3.6935   23.6213 C.2     1  UNL1        0.2494
     10 O          -0.3503    3.1994   23.4132 O.2     1  UNL1       -0.2699
     11 N          -2.7153    3.7209   22.4724 N.am    1  UNL1       -0.2708
     12 C          -4.1161    4.2150   22.6805 C.3     1  UNL1        0.0941
     13 C          -5.0801    4.2424   21.5316 C.3     1  UNL1        0.0216
     14 C          -4.6432    3.7756   20.1747 C.3     1  UNL1        0.0039
     15 C          -3.2424    3.2815   19.9666 C.3     1  UNL1        0.0277
     16 C          -2.2784    3.2541   21.1155 C.3     1  UNL1        0.1338
     17 C          -1.8923    3.3263   26.1894 C.2     1  UNL1        0.0048
     18 C          -2.1880    4.1603   24.9782 C.2     1  UNL1        0.0580
     19 C           2.0175    0.1839   21.1274 C.ar    1  UNL1        0.0193
     20 C           2.3624   -0.7205   19.9814 C.ar    1  UNL1        0.0017
     21 C           3.2827   -1.8853   20.1958 C.ar    1  UNL1        0.0046
     22 C           3.8582   -2.1458   21.5563 C.ar    1  UNL1        0.0537
     23 C           3.5134   -1.2416   22.7023 C.ar    1  UNL1        0.0046
     24 C           2.5931   -0.0767   22.4878 C.ar    1  UNL1        0.0017
     25 C           4.7786   -3.3107   21.7708 C.2     1  UNL1        0.2505
     26 O           4.4325   -4.6547   21.2017 O.2     1  UNL1       -0.2698
     27 N           6.0451   -3.1316   22.5545 N.am    1  UNL1       -0.2658
     28 H           6.2722   -2.2495   22.9280 H       1  UNL1        0.1566
     29 C           6.9654   -4.2965   22.7689 C.ar    1  UNL1        0.1343
     30 C           6.9165   -5.0638   24.0569 C.ar    1  UNL1        0.0383
     31 C           7.8368   -6.2286   24.2713 C.ar    1  UNL1        0.0757
     32 C           8.8061   -6.6262   23.1979 C.ar    1  UNL1        0.0246
     33 C           8.8551   -5.8589   21.9100 C.ar    1  UNL1        0.1003
     34 N           7.9348   -4.6940   21.6955 N.ar    1  UNL1       -0.2290
     35 C           7.7878   -6.9960   25.5593 C.3     1  UNL1        0.4187
     36 F           7.7388   -7.7633   26.8473 F       1  UNL1       -0.1659
     37 F           6.8997   -5.9430   26.1529 F       1  UNL1       -0.1659
     38 F           8.6758   -8.0490   24.9657 F       1  UNL1       -0.1659
     39 C           2.8060    3.0160   19.7105 C.2     1  UNL1        0.2618
     40 N           4.0325    2.8551   20.5589 N.am    1  UNL1       -0.3240
     41 O           2.9259    3.5423   18.3110 O.2     1  UNL1       -0.2687
     42 H           3.9538    2.5096   21.4775 H       1  UNL1        0.1453
     43 H           4.9162    3.0949   20.1973 H       1  UNL1        0.1453
@<TRIPOS>BOND
     1    17    18    2
     2    18     9    1
     3     9    10    2
     4     9    11   am
     5    11    12    1
     6    12    13    1
     7    13    14    1
     8    14    15    1
     9    15    16    1
    10    16     1    1
    11     1     2   ar
    12     2     3   ar
    13     3    19    1
    14    19    20   ar
    15    20    21   ar
    16    21    22   ar
    17    22    25    1
    18    25    26    2
    19    25    27   am
    20    27    29    1
    21    29    30   ar
    22    30    31   ar
    23    31    35    1
    24    35    36    1
    25    35    37    1
    26    35    38    1
    27    31    32   ar
    28    32    33   ar
    29    33    34   ar
    30    22    23   ar
    31    23    24   ar
    32     3     4   ar
    33     4    39    1
    34    39    40   am
    35    39    41    2
    36     4     5   ar
    37     5     6    1
    38    16    11    1
    39     5     1   ar
    40    24    19   ar
    41    34    29   ar
    42    27    28    1
    43    40    42    1
    44    40    43    1
    45     6     7    1
    46     6     8    1
@<TRIPOS>MOLECULE
*****
 43 46 0 0 0
SMALL
GASTEIGER

@<TRIPOS>ATOM
      1 C           7.4620   -2.3557   31.2443 C.ar    1  UNL1        0.1545
      2 N           7.2969   -1.6758   29.9174 N.ar    1  UNL1       -0.2276
      3 C           7.0304   -2.7315   28.8857 C.ar    1  UNL1        0.1045
      4 C           7.0308   -4.0638   29.5749 C.ar    1  UNL1        0.1499
      5 N           7.2975   -3.8315   31.0325 N.ar    1  UNL1       -0.2452
      6 N           7.3845   -4.8894   32.0924 N.pl3   1  UNL1       -0.2963
      7 H           7.2615   -5.8366   31.8538 H       1  UNL1        0.1627
      8 H           7.5645   -4.6365   33.0267 H       1  UNL1        0.1627
      9 C           5.2019   -1.2327   32.8664 C.2     1  UNL1        0.2494
     10 O           4.9217   -1.9098   31.5576 O.2     1  UNL1       -0.2699
     11 N           6.6123   -1.1171   33.3642 N.am    1  UNL1       -0.2708
     12 C           6.8925   -0.4400   34.6730 C.3     1  UNL1        0.0941
     13 C           8.3028   -0.3243   35.1707 C.3     1  UNL1        0.0216
     14 C           9.4328   -0.8858   34.3596 C.3     1  UNL1        0.0039
     15 C           9.1525   -1.5629   33.0508 C.3     1  UNL1        0.0277
     16 C           7.7423   -1.6785   32.5531 C.3     1  UNL1        0.1338
     17 C           3.4853    0.6631   33.3236 C.2     1  UNL1        0.0048
     18 C           4.0719   -0.6713   33.6775 C.2     1  UNL1        0.0580
     19 C           6.8034   -2.4962   27.4217 C.ar    1  UNL1        0.0193
     20 C           7.8985   -2.7824   26.4374 C.ar    1  UNL1        0.0017
     21 C           7.6716   -2.5471   24.9735 C.ar    1  UNL1        0.0046
     22 C           6.3495   -2.0256   24.4939 C.ar    1  UNL1        0.0537
     23 C           5.2544   -1.7394   25.4781 C.ar    1  UNL1        0.0046
     24 C           5.4813   -1.9747   26.9420 C.ar    1  UNL1        0.0017
     25 C           6.1225   -1.7903   23.0299 C.2     1  UNL1        0.2505
     26 O           6.8795   -0.7087   22.3179 O.2     1  UNL1       -0.2698
     27 N           5.1384   -2.6367   22.2780 N.am    1  UNL1       -0.2658
     28 H           4.6415   -3.3466   22.7453 H       1  UNL1        0.1566
     29 C           4.9114   -2.4014   20.8140 C.ar    1  UNL1        0.1343
     30 C           3.8339   -1.4598   20.3639 C.ar    1  UNL1        0.0383
     31 C           3.6070   -1.2245   18.9001 C.ar    1  UNL1        0.0757
     32 C           4.4574   -1.9308   17.8862 C.ar    1  UNL1        0.0246
     33 C           5.5348   -2.8723   18.3362 C.ar    1  UNL1        0.1003
     34 N           5.7618   -3.1076   19.8002 N.ar    1  UNL1       -0.2290
     35 C           2.5295   -0.2830   18.4500 C.3     1  UNL1        0.4187
     36 F           1.4520    0.6586   17.9998 F       1  UNL1       -0.1659
     37 F           3.2235   -0.1198   17.1302 F       1  UNL1       -0.1659
     38 F           1.8356   -0.4461   19.7697 F       1  UNL1       -0.1659
     39 C           6.8042   -5.3947   28.9211 C.2     1  UNL1        0.2618
     40 N           5.7051   -5.5580   27.9136 N.am    1  UNL1       -0.3240
     41 O           7.6769   -6.5624   29.2750 O.2     1  UNL1       -0.2687
     42 H           5.1324   -4.7916   27.6814 H       1  UNL1        0.1453
     43 H           5.5564   -6.4315   27.4845 H       1  UNL1        0.1453
@<TRIPOS>BOND
     1    17    18    2
     2    18     9    1
     3     9    10    2
     4     9    11   am
     5    11    12    1
     6    12    13    1
     7    13    14    1
     8    14    15    1
     9    15    16    1
    10    16     1    1
    11     1     2   ar
    12     2     3   ar
    13     3    19    1
    14    19    20   ar
    15    20    21   ar
    16    21    22   ar
    17    22    25    1
    18    25    26    2
    19    25    27   am
    20    27    29    1
    21    29    30   ar
    22    30    31   ar
    23    31    35    1
    24    35    36    1
    25    35    37    1
    26    35    38    1
    27    31    32   ar
    28    32    33   ar
    29    33    34   ar
    30    22    23   ar
    31    23    24   ar
    32     3     4   ar
    33     4    39    1
    34    39    40   am
    35    39    41    2
    36     4     5   ar
    37     5     6    1
    38    16    11    1
    39     5     1   ar
    40    24    19   ar
    41    34    29   ar
    42    27    28    1
    43    40    42    1
    44    40    43    1
    45     6     7    1
    46     6     8    1
@<TRIPOS>MOLECULE
*****
 43 46 0 0 0
SMALL
GASTEIGER

@<TRIPOS>ATOM
      1 C           3.8805    0.9962   37.2657 C.ar    1  UNL1        0.1545
      2 N           3.8975    0.1515   36.0262 N.ar    1  UNL1       -0.2276
      3 C           5.3279   -0.0482   35.6210 C.ar    1  UNL1        0.1045
      4 C           6.1949    0.6730   36.6100 C.ar    1  UNL1        0.1499
      5 N           5.3004    1.3185   37.6265 N.ar    1  UNL1       -0.2452
      6 N           5.7473    2.1417   38.7981 N.pl3   1  UNL1       -0.2963
      7 H           6.7069    2.2983   38.9522 H       1  UNL1        0.1627
      8 H           5.0809    2.5254   39.4129 H       1  UNL1        0.1627
      9 C           2.6157    3.6423   36.6344 C.2     1  UNL1        0.2494
     10 O           3.8379    3.1979   35.8870 O.2     1  UNL1       -0.2699
     11 N           2.0258    2.7636   37.6975 N.am    1  UNL1       -0.2708
     12 C           0.8036    3.2080   38.4449 C.3     1  UNL1        0.0941
     13 C           0.2138    2.3294   39.5080 C.3     1  UNL1        0.0216
     14 C           0.8463    1.0064   39.8236 C.3     1  UNL1        0.0039
     15 C           2.0685    0.5620   39.0762 C.3     1  UNL1        0.0277
     16 C           2.6583    1.4406   38.0132 C.3     1  UNL1        0.1338
     17 C           1.2412    5.1532   35.0289 C.2     1  UNL1        0.0048
     18 C           1.9833    4.9653   36.3188 C.2     1  UNL1        0.0580
     19 C           5.8071   -0.8316   34.4350 C.ar    1  UNL1        0.0193
     20 C           4.9029   -1.8365   33.7848 C.ar    1  UNL1        0.0017
     21 C           5.3820   -2.6199   32.5989 C.ar    1  UNL1        0.0046
     22 C           6.7655   -2.3984   32.0630 C.ar    1  UNL1        0.0537
     23 C           7.6697   -1.3936   32.7131 C.ar    1  UNL1        0.0046
     24 C           7.1905   -0.6102   33.8991 C.ar    1  UNL1        0.0017
     25 C           7.2447   -3.1818   30.8770 C.2     1  UNL1        0.2505
     26 O           8.4558   -2.7274   30.1176 O.2     1  UNL1       -0.2698
     27 N           6.5127   -4.4197   30.4503 N.am    1  UNL1       -0.2658
     28 H           5.7178   -4.7180   30.9487 H       1  UNL1        0.1566
     29 C           6.9919   -5.2031   29.2643 C.ar    1  UNL1        0.1343
     30 C           6.6967   -4.7180   27.8760 C.ar    1  UNL1        0.0383
     31 C           7.1759   -5.5014   26.6900 C.ar    1  UNL1        0.0757
     32 C           7.9503   -6.7699   26.8923 C.ar    1  UNL1        0.0246
     33 C           8.2456   -7.2551   28.2806 C.ar    1  UNL1        0.1003
     34 N           7.7664   -6.4717   29.4666 N.ar    1  UNL1       -0.2290
     35 C           6.8807   -5.0162   25.3017 C.3     1  UNL1        0.4187
     36 F           6.5854   -4.5310   23.9133 F       1  UNL1       -0.1659
     37 F           6.2532   -3.7771   25.8682 F       1  UNL1       -0.1659
     38 F           7.5082   -6.2552   24.7352 F       1  UNL1       -0.1659
     39 C           7.6933    0.7375   36.5867 C.2     1  UNL1        0.2618
     40 N           8.3833    1.9603   36.0589 N.am    1  UNL1       -0.3240
     41 O           8.5018   -0.4210   37.0912 O.2     1  UNL1       -0.2687
     42 H           7.8527    2.7206   35.7278 H       1  UNL1        0.1453
     43 H           9.3668    2.0026   36.0436 H       1  UNL1        0.1453
@<TRIPOS>BOND
     1    17    18    2
     2    18     9    1
     3     9    10    2
     4     9    11   am
     5    11    12    1
     6    12    13    1
     7    13    14    1
     8    14    15    1
     9    15    16    1
    10    16     1    1
    11     1     2   ar
    12     2     3   ar
    13     3    19    1
    14    19    20   ar
    15    20    21   ar
    16    21    22   ar
    17    22    25    1
    18    25    26    2
    19    25    27   am
    20    27    29    1
    21    29    30   ar
    22    30    31   ar
    23    31    35    1
    24    35    36    1
    25    35    37    1
    26    35    38    1
    27    31    32   ar
    28    32    33   ar
    29    33    34   ar
    30    22    23   ar
    31    23    24   ar
    32     3     4   ar
    33     4    39    1
    34    39    40   am
    35    39    41    2
    36     4     5   ar
    37     5     6    1
    38    16    11    1
    39     5     1   ar
    40    24    19   ar
    41    34    29   ar
    42    27    28    1
    43    40    42    1
    44    40    43    1
    45     6     7    1
    46     6     8    1
@<TRIPOS>MOLECULE
*****
 43 46 0 0 0
SMALL
GASTEIGER

@<TRIPOS>ATOM
      1 C           4.3744    0.8391   18.9574 C.ar    1  UNL1        0.1545
      2 N           4.9609    0.5645   20.3104 N.ar    1  UNL1       -0.2276
      3 C           5.1041   -0.9210   20.4608 C.ar    1  UNL1        0.1045
      4 C           4.6061   -1.5646   19.2007 C.ar    1  UNL1        0.1499
      5 N           4.1552   -0.4768   18.2716 N.ar    1  UNL1       -0.2452
      6 N           3.5851   -0.6708   16.8978 N.pl3   1  UNL1       -0.2963
      7 H           3.4794   -1.5789   16.5324 H       1  UNL1        0.1627
      8 H           3.3166    0.1099   16.3614 H       1  UNL1        0.1627
      9 C           1.5690    1.8969   19.0589 C.2     1  UNL1        0.2494
     10 O           1.8814    0.5441   19.6264 O.2     1  UNL1       -0.2699
     11 N           2.6593    2.7209   18.4406 N.am    1  UNL1       -0.2708
     12 C           2.3469    4.0738   17.8730 C.3     1  UNL1        0.0941
     13 C           3.4372    4.8977   17.2548 C.3     1  UNL1        0.0216
     14 C           4.8400    4.3688   17.2040 C.3     1  UNL1        0.0039
     15 C           5.1524    3.0159   17.7716 C.3     1  UNL1        0.0277
     16 C           4.0620    2.1920   18.3898 C.3     1  UNL1        0.1338
     17 C          -0.5955    2.4089   20.4017 C.2     1  UNL1        0.0048
     18 C           0.1662    2.4259   19.1096 C.2     1  UNL1        0.0580
     19 C           5.6495   -1.6372   21.6606 C.ar    1  UNL1        0.0193
     20 C           4.7309   -2.4299   22.5427 C.ar    1  UNL1        0.0017
     21 C           5.2762   -3.1461   23.7425 C.ar    1  UNL1        0.0046
     22 C           6.7402   -3.0697   24.0602 C.ar    1  UNL1        0.0537
     23 C           7.6588   -2.2771   23.1783 C.ar    1  UNL1        0.0046
     24 C           7.1134   -1.5609   21.9784 C.ar    1  UNL1        0.0017
     25 C           7.2856   -3.7859   25.2601 C.2     1  UNL1        0.2505
     26 O           8.7419   -3.6749   25.6020 O.2     1  UNL1       -0.2698
     27 N           6.3747   -4.6132   26.1180 N.am    1  UNL1       -0.2658
     28 H           5.4189   -4.6860   25.8935 H       1  UNL1        0.1566
     29 C           6.9201   -5.3294   27.3178 C.ar    1  UNL1        0.1343
     30 C           6.5942   -4.8379   28.6970 C.ar    1  UNL1        0.0383
     31 C           7.1396   -5.5541   29.8968 C.ar    1  UNL1        0.0757
     32 C           8.0108   -6.7618   29.7174 C.ar    1  UNL1        0.0246
     33 C           8.3368   -7.2534   28.3383 C.ar    1  UNL1        0.1003
     34 N           7.7914   -6.5371   27.1384 N.ar    1  UNL1       -0.2290
     35 C           6.8137   -5.0626   31.2760 C.3     1  UNL1        0.4187
     36 F           6.4878   -4.5711   32.6553 F       1  UNL1       -0.1659
     37 F           7.4007   -6.3131   31.8603 F       1  UNL1       -0.1659
     38 F           6.2267   -3.8120   30.6917 F       1  UNL1       -0.1659
     39 C           4.5661   -3.0374   18.9192 C.2     1  UNL1        0.2618
     40 N           3.2486   -3.7495   18.8355 N.am    1  UNL1       -0.3240
     41 O           5.8437   -3.7981   18.7213 O.2     1  UNL1       -0.2687
     42 H           2.4101   -3.2502   18.9653 H       1  UNL1        0.1453
     43 H           3.2223   -4.7161   18.6507 H       1  UNL1        0.1453
@<TRIPOS>BOND
     1    17    18    2
     2    18     9    1
     3     9    10    2
     4     9    11   am
     5    11    12    1
     6    12    13    1
     7    13    14    1
     8    14    15    1
     9    15    16    1
    10    16     1    1
    11     1     2   ar
    12     2     3   ar
    13     3    19    1
    14    19    20   ar
    15    20    21   ar
    16    21    22   ar
    17    22    25    1
    18    25    26    2
    19    25    27   am
    20    27    29    1
    21    29    30   ar
    22    30    31   ar
    23    31    35    1
    24    35    36    1
    25    35    37    1
    26    35    38    1
    27    31    32   ar
    28    32    33   ar
    29    33    34   ar
    30    22    23   ar
    31    23    24   ar
    32     3     4   ar
    33     4    39    1
    34    39    40   am
    35    39    41    2
    36     4     5   ar
    37     5     6    1
    38    16    11    1
    39     5     1   ar
    40    24    19   ar
    41    34    29   ar
    42    27    28    1
    43    40    42    1
    44    40    43    1
    45     6     7    1
    46     6     8    1
@<TRIPOS>MOLECULE
*****
 43 46 0 0 0
SMALL
GASTEIGER

@<TRIPOS>ATOM
      1 C           0.7610    4.0064   30.0958 C.ar    1  UNL1        0.1545
      2 N           1.0068    4.0009   28.6161 N.ar    1  UNL1       -0.2276
      3 C           1.0162    2.5743   28.1530 C.ar    1  UNL1        0.1045
      4 C           0.7761    1.6979   29.3465 C.ar    1  UNL1        0.1499
      5 N           0.6184    2.5830   30.5472 N.ar    1  UNL1       -0.2452
      6 N           0.3629    2.1251   31.9525 N.pl3   1  UNL1       -0.2963
      7 H           0.2844    1.1639   32.1505 H       1  UNL1        0.1627
      8 H           0.2737    2.7858   32.6770 H       1  UNL1        0.1627
      9 C           3.0797    4.7705   31.8392 C.2     1  UNL1        0.2494
     10 O           3.1676    3.5552   30.9644 O.2     1  UNL1       -0.2699
     11 N           1.8325    5.6038   31.8423 N.am    1  UNL1       -0.2708
     12 C           1.7446    6.8191   32.7170 C.3     1  UNL1        0.0941
     13 C           0.4974    7.6524   32.7201 C.3     1  UNL1        0.0216
     14 C          -0.6620    7.2703   31.8484 C.3     1  UNL1        0.0039
     15 C          -0.5742    6.0550   30.9736 C.3     1  UNL1        0.0277
     16 C           0.6731    5.2217   30.9706 C.3     1  UNL1        0.1338
     17 C           5.1369    4.0904   33.2729 C.2     1  UNL1        0.0048
     18 C           4.2391    5.1525   32.7109 C.2     1  UNL1        0.0580
     19 C           1.2284    2.1061   26.7438 C.ar    1  UNL1        0.0193
     20 C           0.0551    1.9387   25.8244 C.ar    1  UNL1        0.0017
     21 C           0.2672    1.4706   24.4152 C.ar    1  UNL1        0.0046
     22 C           1.6528    1.1698   23.9255 C.ar    1  UNL1        0.0537
     23 C           2.8261    1.3372   24.8448 C.ar    1  UNL1        0.0046
     24 C           2.6139    1.8054   26.2540 C.ar    1  UNL1        0.0017
     25 C           1.8651    0.7017   22.5163 C.2     1  UNL1        0.2505
     26 O           0.7170    0.6837   21.5510 O.2     1  UNL1       -0.2698
     27 N           3.2254    0.2515   22.0723 N.am    1  UNL1       -0.2658
     28 H           3.9789    0.2633   22.7059 H       1  UNL1        0.1566
     29 C           3.4376   -0.2167   20.6631 C.ar    1  UNL1        0.1343
     30 C           3.7205   -1.6639   20.3882 C.ar    1  UNL1        0.0383
     31 C           3.9327   -2.1320   18.9790 C.ar    1  UNL1        0.0757
     32 C           3.8620   -1.1530   17.8448 C.ar    1  UNL1        0.0246
     33 C           3.5791    0.2942   18.1197 C.ar    1  UNL1        0.1003
     34 N           3.3669    0.7623   19.5289 N.ar    1  UNL1       -0.2290
     35 C           4.2156   -3.5792   18.7041 C.3     1  UNL1        0.4187
     36 F           4.4985   -5.0264   18.4291 F       1  UNL1       -0.1659
     37 F           2.8768   -3.9486   19.2707 F       1  UNL1       -0.1659
     38 F           5.5544   -3.2099   18.1374 F       1  UNL1       -0.1659
     39 C           0.7061    0.1995   29.3403 C.2     1  UNL1        0.2618
     40 N          -0.2868   -0.5012   28.4612 N.am    1  UNL1       -0.3240
     41 O           1.6291   -0.5980   30.2133 O.2     1  UNL1       -0.2687
     42 H          -0.8925    0.0222   27.8882 H       1  UNL1        0.1453
     43 H          -0.3328   -1.4846   28.4571 H       1  UNL1        0.1453
@<TRIPOS>BOND
     1    17    18    2
     2    18     9    1
     3     9    10    2
     4     9    11   am
     5    11    12    1
     6    12    13    1
     7    13    14    1
     8    14    15    1
     9    15    16    1
    10    16     1    1
    11     1     2   ar
    12     2     3   ar
    13     3    19    1
    14    19    20   ar
    15    20    21   ar
    16    21    22   ar
    17    22    25    1
    18    25    26    2
    19    25    27   am
    20    27    29    1
    21    29    30   ar
    22    30    31   ar
    23    31    35    1
    24    35    36    1
    25    35    37    1
    26    35    38    1
    27    31    32   ar
    28    32    33   ar
    29    33    34   ar
    30    22    23   ar
    31    23    24   ar
    32     3     4   ar
    33     4    39    1
    34    39    40   am
    35    39    41    2
    36     4     5   ar
    37     5     6    1
    38    16    11    1
    39     5     1   ar
    40    24    19   ar
    41    34    29   ar
    42    27    28    1
    43    40    42    1
    44    40    43    1
    45     6     7    1
    46     6     8    1
@<TRIPOS>MOLECULE
*****
 43 46 0 0 0
SMALL
GASTEIGER

@<TRIPOS>ATOM
      1 C           3.9077    0.9932   37.2107 C.ar    1  UNL1        0.1545
      2 N           3.8955    0.2026   35.9361 N.ar    1  UNL1       -0.2276
      3 C           5.3173   -0.0044   35.5054 C.ar    1  UNL1        0.1045
      4 C           6.2083    0.6584   36.5139 C.ar    1  UNL1        0.1499
      5 N           5.3371    1.2749   37.5678 N.ar    1  UNL1       -0.2452
      6 N           5.8119    2.0390   38.7681 N.pl3   1  UNL1       -0.2963
      7 H           6.7759    2.1722   38.9171 H       1  UNL1        0.1627
      8 H           5.1595    2.4074   39.4068 H       1  UNL1        0.1627
      9 C           2.6694    3.6762   36.6926 C.2     1  UNL1        0.2494
     10 O           3.8749    3.2432   35.9121 O.2     1  UNL1       -0.2699
     11 N           2.0830    2.7677   37.7323 N.am    1  UNL1       -0.2708
     12 C           0.8775    3.2006   38.5128 C.3     1  UNL1        0.0941
     13 C           0.2911    2.2922   39.5524 C.3     1  UNL1        0.0216
     14 C           0.9103    0.9507   39.8115 C.3     1  UNL1        0.0039
     15 C           2.1158    0.5177   39.0309 C.3     1  UNL1        0.0277
     16 C           2.7021    1.4262   37.9913 C.3     1  UNL1        0.1338
     17 C           1.2307    5.2392   35.1970 C.2     1  UNL1        0.0048
     18 C           2.0502    5.0176   36.4335 C.2     1  UNL1        0.0580
     19 C           5.7689   -0.7442   34.2812 C.ar    1  UNL1        0.0193
     20 C           7.0350   -0.3406   33.5853 C.ar    1  UNL1        0.0017
     21 C           7.4866   -1.0803   32.3612 C.ar    1  UNL1        0.0046
     22 C           6.6721   -2.2238   31.8328 C.ar    1  UNL1        0.0537
     23 C           5.4060   -2.6274   32.5285 C.ar    1  UNL1        0.0046
     24 C           4.9544   -1.8876   33.7527 C.ar    1  UNL1        0.0017
     25 C           7.1237   -2.9636   30.6085 C.2     1  UNL1        0.2505
     26 O           8.3250   -2.4890   29.8459 O.2     1  UNL1       -0.2698
     27 N           6.3739   -4.1781   30.1469 N.am    1  UNL1       -0.2658
     28 H           5.5855   -4.4896   30.6475 H       1  UNL1        0.1566
     29 C           6.8256   -4.9180   28.9227 C.ar    1  UNL1        0.1343
     30 C           7.5785   -6.2079   29.0610 C.ar    1  UNL1        0.0383
     31 C           8.0301   -6.9477   27.8368 C.ar    1  UNL1        0.0757
     32 C           7.7287   -6.3976   26.4743 C.ar    1  UNL1        0.0246
     33 C           6.9758   -5.1077   26.3359 C.ar    1  UNL1        0.1003
     34 N           6.5242   -4.3679   27.5601 N.ar    1  UNL1       -0.2290
     35 C           8.7830   -8.2376   27.9751 C.3     1  UNL1        0.4187
     36 F           9.5360   -9.5276   28.1134 F       1  UNL1       -0.1659
     37 F           8.1739   -8.7303   26.6960 F       1  UNL1       -0.1659
     38 F           9.3922   -7.7450   29.2542 F       1  UNL1       -0.1659
     39 C           7.7073    0.6977   36.4751 C.2     1  UNL1        0.2618
     40 N           8.4137    1.9465   36.0375 N.am    1  UNL1       -0.3240
     41 O           8.4998   -0.5118   36.8740 O.2     1  UNL1       -0.2687
     42 H           7.8935    2.7403   35.7757 H       1  UNL1        0.1453
     43 H           9.3975    1.9723   36.0121 H       1  UNL1        0.1453
@<TRIPOS>BOND
     1    17    18    2
     2    18     9    1
     3     9    10    2
     4     9    11   am
     5    11    12    1
     6    12    13    1
     7    13    14    1
     8    14    15    1
     9    15    16    1
    10    16     1    1
    11     1     2   ar
    12     2     3   ar
    13     3    19    1
    14    19    20   ar
    15    20    21   ar
    16    21    22   ar
    17    22    25    1
    18    25    26    2
    19    25    27   am
    20    27    29    1
    21    29    30   ar
    22    30    31   ar
    23    31    35    1
    24    35    36    1
    25    35    37    1
    26    35    38    1
    27    31    32   ar
    28    32    33   ar
    29    33    34   ar
    30    22    23   ar
    31    23    24   ar
    32     3     4   ar
    33     4    39    1
    34    39    40   am
    35    39    41    2
    36     4     5   ar
    37     5     6    1
    38    16    11    1
    39     5     1   ar
    40    24    19   ar
    41    34    29   ar
    42    27    28    1
    43    40    42    1
    44    40    43    1
    45     6     7    1
    46     6     8    1
