@<TRIPOS>MOLECULE
*****
 33 38 0 0 0
SMALL
GASTEIGER

@<TRIPOS>ATOM
      1 C          -7.9140  -19.0945   19.9325 C.3     1  UNL1        0.0749
      2 C          -8.2769  -18.2723   21.1334 C.3     1  UNL1        0.0444
      3 C          -9.7185  -18.0602   21.4892 C.ar    1  UNL1       -0.0101
      4 C         -10.7972  -18.6701   20.6440 C.ar    1  UNL1       -0.0091
      5 C         -12.2389  -18.4579   20.9999 C.ar    1  UNL1       -0.0032
      6 C         -12.6019  -17.6358   22.2008 C.ar    1  UNL1        0.0010
      7 C         -11.5232  -17.0258   23.0460 C.ar    1  UNL1        0.0142
      8 C         -10.0815  -17.2379   22.6902 C.ar    1  UNL1        0.0436
      9 C         -10.4343  -19.4923   19.4431 C.3     1  UNL1        0.0954
     10 N          -8.9927  -19.7045   19.0873 N.3     1  UNL1       -0.2934
     11 H          -8.8663  -19.3425   18.1422 H       1  UNL1        0.1236
     12 N          -9.0028  -16.6280   23.5353 N.pl3   1  UNL1       -0.3049
     13 C          -7.8398  -15.9392   22.8849 C.3     1  UNL1        0.1081
     14 C          -6.7611  -15.3292   23.7301 C.3     1  UNL1        0.0938
     15 N          -6.8454  -15.4080   25.2257 N.3     1  UNL1       -0.2709
     16 C          -5.9400  -14.9034   26.3099 C.3     1  UNL1        0.0722
     17 C          -6.5434  -15.2804   27.6304 C.3     1  UNL1        0.0188
     18 C          -7.8217  -16.0179   27.3623 C.3     1  UNL1        0.0191
     19 C          -8.0084  -16.0967   25.8760 C.3     1  UNL1        0.0774
     20 C          -9.0871  -16.7067   25.0309 C.3     1  UNL1        0.1067
     21 C          -6.4723  -19.3067   19.5767 C.3     1  UNL1        0.0886
     22 C          -5.5449  -21.4051   20.7960 C.3     1  UNL1        0.0899
     23 N          -5.5362  -19.9215   20.5745 N.3     1  UNL1       -0.2667
     24 C          -4.5913  -19.0529   21.3507 C.3     1  UNL1        0.0978
     25 C          -4.8799  -18.7265   22.7860 C.3     1  UNL1        0.0224
     26 C          -3.9350  -17.8578   23.5623 C.3     1  UNL1        0.0065
     27 C          -2.7015  -17.3155   22.9033 C.3     1  UNL1        0.0277
     28 C          -2.4128  -17.6419   21.4679 C.ar    1  UNL1       -0.0073
     29 C          -1.1793  -17.0997   20.8089 C.ar    1  UNL1       -0.0015
     30 C          -0.8907  -17.4261   19.3736 C.ar    1  UNL1        0.0203
     31 C          -1.8356  -18.2948   18.5973 C.ar    1  UNL1        0.0985
     32 N          -3.0691  -18.8370   19.2564 N.ar    1  UNL1       -0.2471
     33 C          -3.3577  -18.5106   20.6916 C.ar    1  UNL1        0.0695
@<TRIPOS>BOND
     1    22    23    1
     2    23    21    1
     3     1    21    1
     4     1     2    1
     5     2     3    1
     6     3     4   ar
     7     4     5   ar
     8     5     6   ar
     9     6     7   ar
    10     7     8   ar
    11     8    12    1
    12    12    13    1
    13    13    14    1
    14    14    15    1
    15    15    16    1
    16    16    17    1
    17    17    18    1
    18    19    18    1
    19    19    20    1
    20     4     9    1
    21     9    10    1
    22    24    23    1
    23    24    25    1
    24    25    26    1
    25    26    27    1
    26    27    28    1
    27    28    29   ar
    28    29    30   ar
    29    30    31   ar
    30    31    32   ar
    31    32    33   ar
    32    10     1    1
    33    33    24    1
    34     8     3   ar
    35    20    12    1
    36    33    28   ar
    37    19    15    1
    38    10    11    1
@<TRIPOS>MOLECULE
*****
 33 38 0 0 0
SMALL
GASTEIGER

@<TRIPOS>ATOM
      1 C          -8.7188  -15.8336   22.5442 C.3     1  UNL1        0.0749
      2 C          -7.3064  -16.2879   22.7645 C.3     1  UNL1        0.0444
      3 C          -6.6864  -16.1764   24.1258 C.ar    1  UNL1       -0.0101
      4 C          -7.4788  -15.6107   25.2668 C.ar    1  UNL1       -0.0091
      5 C          -6.8588  -15.4993   26.6281 C.ar    1  UNL1       -0.0032
      6 C          -5.4463  -15.9536   26.8484 C.ar    1  UNL1        0.0010
      7 C          -4.6539  -16.5193   25.7074 C.ar    1  UNL1        0.0142
      8 C          -5.2739  -16.6308   24.3461 C.ar    1  UNL1        0.0436
      9 C          -8.8913  -15.1564   25.0465 C.3     1  UNL1        0.0954
     10 N          -9.5113  -15.2678   23.6852 N.3     1  UNL1       -0.2934
     11 H          -9.7910  -14.3260   23.4111 H       1  UNL1        0.1236
     12 N          -4.4814  -17.1965   23.2050 N.pl3   1  UNL1       -0.3049
     13 C          -4.9044  -18.4852   22.5643 C.3     1  UNL1        0.1081
     14 C          -4.1120  -19.0509   21.4232 C.3     1  UNL1        0.0938
     15 N          -2.8965  -18.3280   20.9230 N.3     1  UNL1       -0.2709
     16 C          -1.9248  -18.6400   19.8238 C.3     1  UNL1        0.0722
     17 C          -0.9012  -17.5441   19.7852 C.3     1  UNL1        0.0188
     18 C          -1.2404  -16.5550   20.8605 C.3     1  UNL1        0.0191
     19 C          -2.4736  -17.0394   21.5638 C.3     1  UNL1        0.0774
     20 C          -3.2660  -16.4737   22.7048 C.3     1  UNL1        0.1067
     21 C          -9.3389  -15.9450   21.1829 C.3     1  UNL1        0.0886
     22 C         -11.0970  -17.0166   19.5983 C.3     1  UNL1        0.0899
     23 N         -10.5536  -16.8013   20.9798 N.3     1  UNL1       -0.2667
     24 C         -11.2248  -17.4423   22.1581 C.3     1  UNL1        0.0978
     25 C         -12.5529  -16.9325   22.6337 C.3     1  UNL1        0.0224
     26 C         -13.2241  -17.5735   23.8120 C.3     1  UNL1        0.0065
     27 C         -12.5673  -18.7244   24.5148 C.3     1  UNL1        0.0277
     28 C         -11.2392  -19.2344   24.0393 C.ar    1  UNL1       -0.0073
     29 C         -10.5824  -20.3853   24.7420 C.ar    1  UNL1       -0.0015
     30 C          -9.2543  -20.8952   24.2665 C.ar    1  UNL1        0.0203
     31 C          -8.5830  -20.2541   23.0881 C.ar    1  UNL1        0.0985
     32 N          -9.2398  -19.1032   22.3854 N.ar    1  UNL1       -0.2471
     33 C         -10.5679  -18.5933   22.8609 C.ar    1  UNL1        0.0695
@<TRIPOS>BOND
     1    22    23    1
     2    23    21    1
     3     1    21    1
     4     1     2    1
     5     2     3    1
     6     3     4   ar
     7     4     5   ar
     8     5     6   ar
     9     6     7   ar
    10     7     8   ar
    11     8    12    1
    12    12    13    1
    13    13    14    1
    14    14    15    1
    15    15    16    1
    16    16    17    1
    17    17    18    1
    18    19    18    1
    19    19    20    1
    20     4     9    1
    21     9    10    1
    22    24    23    1
    23    24    25    1
    24    25    26    1
    25    26    27    1
    26    27    28    1
    27    28    29   ar
    28    29    30   ar
    29    30    31   ar
    30    31    32   ar
    31    32    33   ar
    32    10     1    1
    33    33    24    1
    34     8     3   ar
    35    20    12    1
    36    33    28   ar
    37    19    15    1
    38    10    11    1
@<TRIPOS>MOLECULE
*****
 33 38 0 0 0
SMALL
GASTEIGER

@<TRIPOS>ATOM
      1 C          -8.4214  -16.3921   22.2724 C.3     1  UNL1        0.0749
      2 C          -6.9742  -16.6169   22.5960 C.3     1  UNL1        0.0444
      3 C          -6.4076  -16.1114   23.8896 C.ar    1  UNL1       -0.0101
      4 C          -7.2884  -15.3811   24.8596 C.ar    1  UNL1       -0.0091
      5 C          -6.7218  -14.8755   26.1532 C.ar    1  UNL1       -0.0032
      6 C          -5.2745  -15.1004   26.4769 C.ar    1  UNL1        0.0010
      7 C          -4.3938  -15.8308   25.5069 C.ar    1  UNL1        0.0142
      8 C          -4.9603  -16.3363   24.2133 C.ar    1  UNL1        0.0436
      9 C          -8.7357  -15.1562   24.5359 C.3     1  UNL1        0.0954
     10 N          -9.3022  -15.6617   23.2423 N.3     1  UNL1       -0.2934
     11 H          -9.6761  -14.8516   22.7481 H       1  UNL1        0.1236
     12 N          -4.0795  -17.0666   23.2433 N.pl3   1  UNL1       -0.3049
     13 C          -4.2374  -18.5463   23.0543 C.3     1  UNL1        0.1081
     14 C          -3.3567  -19.2767   22.0844 C.3     1  UNL1        0.0938
     15 N          -2.3180  -18.5274   21.3034 N.3     1  UNL1       -0.2709
     16 C          -1.3130  -18.9743   20.2836 C.3     1  UNL1        0.0722
     17 C          -0.5339  -17.7708   19.8423 C.3     1  UNL1        0.0188
     18 C          -1.0575  -16.5802   20.5894 C.3     1  UNL1        0.0191
     19 C          -2.1602  -17.0478   21.4924 C.3     1  UNL1        0.0774
     20 C          -3.0409  -16.3174   22.4624 C.3     1  UNL1        0.1067
     21 C          -8.9880  -16.8976   20.9787 C.3     1  UNL1        0.0886
     22 C         -10.0415  -18.8392   19.6110 C.3     1  UNL1        0.0899
     23 N          -9.6816  -18.2267   20.9322 N.3     1  UNL1       -0.2667
     24 C         -10.0154  -18.9435   22.2069 C.3     1  UNL1        0.0978
     25 C          -9.0886  -19.9953   22.7407 C.3     1  UNL1        0.0224
     26 C          -9.4224  -20.7121   24.0153 C.3     1  UNL1        0.0065
     27 C         -10.6829  -20.3772   24.7562 C.3     1  UNL1        0.0277
     28 C         -11.6097  -19.3254   24.2224 C.ar    1  UNL1       -0.0073
     29 C         -12.8702  -18.9905   24.9633 C.ar    1  UNL1       -0.0015
     30 C         -13.7970  -17.9388   24.4295 C.ar    1  UNL1        0.0203
     31 C         -13.4632  -17.2219   23.1548 C.ar    1  UNL1        0.0985
     32 N         -12.2027  -17.5569   22.4139 N.ar    1  UNL1       -0.2471
     33 C         -11.2760  -18.6086   22.9477 C.ar    1  UNL1        0.0695
@<TRIPOS>BOND
     1    22    23    1
     2    23    21    1
     3     1    21    1
     4     1     2    1
     5     2     3    1
     6     3     4   ar
     7     4     5   ar
     8     5     6   ar
     9     6     7   ar
    10     7     8   ar
    11     8    12    1
    12    12    13    1
    13    13    14    1
    14    14    15    1
    15    15    16    1
    16    16    17    1
    17    17    18    1
    18    19    18    1
    19    19    20    1
    20     4     9    1
    21     9    10    1
    22    24    23    1
    23    24    25    1
    24    25    26    1
    25    26    27    1
    26    27    28    1
    27    28    29   ar
    28    29    30   ar
    29    30    31   ar
    30    31    32   ar
    31    32    33   ar
    32    10     1    1
    33    33    24    1
    34     8     3   ar
    35    20    12    1
    36    33    28   ar
    37    19    15    1
    38    10    11    1
@<TRIPOS>MOLECULE
*****
 33 38 0 0 0
SMALL
GASTEIGER

@<TRIPOS>ATOM
      1 C          -3.8259  -17.9192   23.2570 C.3     1  UNL1        0.0749
      2 C          -5.0071  -18.5838   22.6144 C.3     1  UNL1        0.0444
      3 C          -4.8014  -19.5543   21.4894 C.ar    1  UNL1       -0.0101
      4 C          -3.4144  -19.8604   21.0070 C.ar    1  UNL1       -0.0091
      5 C          -3.2087  -20.8310   19.8820 C.ar    1  UNL1       -0.0032
      6 C          -4.3900  -21.4956   19.2394 C.ar    1  UNL1        0.0010
      7 C          -5.7769  -21.1895   19.7217 C.ar    1  UNL1        0.0142
      8 C          -5.9827  -20.2190   20.8467 C.ar    1  UNL1        0.0436
      9 C          -2.2332  -19.1958   21.6496 C.3     1  UNL1        0.0954
     10 N          -2.4389  -18.2253   22.7746 N.3     1  UNL1       -0.2934
     11 H          -2.0281  -17.3399   22.4785 H       1  UNL1        0.1236
     12 N          -7.3696  -19.9129   21.3290 N.pl3   1  UNL1       -0.3049
     13 C          -8.4103  -19.4301   20.3626 C.3     1  UNL1        0.1081
     14 C          -9.7973  -19.1240   20.8450 C.3     1  UNL1        0.0938
     15 N         -10.1436  -19.3009   22.2938 N.3     1  UNL1       -0.2709
     16 C         -11.4169  -19.0807   23.0554 C.3     1  UNL1        0.0722
     17 C         -11.1632  -19.4275   24.4926 C.3     1  UNL1        0.0188
     18 C          -9.7331  -19.8619   24.6190 C.3     1  UNL1        0.0191
     19 C          -9.1029  -19.7837   23.2601 C.3     1  UNL1        0.0774
     20 C          -7.7159  -20.0897   22.7777 C.3     1  UNL1        0.1067
     21 C          -4.0316  -16.9486   24.3820 C.3     1  UNL1        0.0886
     22 C          -4.5280  -14.6584   23.2600 C.3     1  UNL1        0.0899
     23 N          -4.9292  -15.7617   24.1939 N.3     1  UNL1       -0.2667
     24 C          -6.2280  -15.6779   24.9395 C.3     1  UNL1        0.0978
     25 C          -6.2276  -15.5057   26.4296 C.3     1  UNL1        0.0224
     26 C          -7.5264  -15.4219   27.1752 C.3     1  UNL1        0.0065
     27 C          -8.8257  -15.5102   26.4308 C.3     1  UNL1        0.0277
     28 C          -8.8261  -15.6824   24.9407 C.ar    1  UNL1       -0.0073
     29 C         -10.1253  -15.7708   24.1963 C.ar    1  UNL1       -0.0015
     30 C         -10.1257  -15.9430   22.7063 C.ar    1  UNL1        0.0203
     31 C          -8.8269  -16.0268   21.9606 C.ar    1  UNL1        0.0985
     32 N          -7.5277  -15.9384   22.7050 N.ar    1  UNL1       -0.2471
     33 C          -7.5273  -15.7662   24.1950 C.ar    1  UNL1        0.0695
@<TRIPOS>BOND
     1    22    23    1
     2    23    21    1
     3     1    21    1
     4     1     2    1
     5     2     3    1
     6     3     4   ar
     7     4     5   ar
     8     5     6   ar
     9     6     7   ar
    10     7     8   ar
    11     8    12    1
    12    12    13    1
    13    13    14    1
    14    14    15    1
    15    15    16    1
    16    16    17    1
    17    17    18    1
    18    19    18    1
    19    19    20    1
    20     4     9    1
    21     9    10    1
    22    24    23    1
    23    24    25    1
    24    25    26    1
    25    26    27    1
    26    27    28    1
    27    28    29   ar
    28    29    30   ar
    29    30    31   ar
    30    31    32   ar
    31    32    33   ar
    32    10     1    1
    33    33    24    1
    34     8     3   ar
    35    20    12    1
    36    33    28   ar
    37    19    15    1
    38    10    11    1
@<TRIPOS>MOLECULE
*****
 33 38 0 0 0
SMALL
GASTEIGER

@<TRIPOS>ATOM
      1 C         -17.6500   -4.1354   18.7650 C.3     1  UNL1        0.0749
      2 C         -16.5059   -5.0843   18.5634 C.3     1  UNL1        0.0444
      3 C         -16.6465   -6.5238   18.9607 C.ar    1  UNL1       -0.0101
      4 C         -17.9313   -7.0145   19.5596 C.ar    1  UNL1       -0.0091
      5 C         -18.0719   -8.4541   19.9569 C.ar    1  UNL1       -0.0032
      6 C         -16.9278   -9.4030   19.7553 C.ar    1  UNL1        0.0010
      7 C         -15.6431   -8.9123   19.1564 C.ar    1  UNL1        0.0142
      8 C         -15.5024   -7.4727   18.7591 C.ar    1  UNL1        0.0436
      9 C         -19.0754   -6.0656   19.7611 C.3     1  UNL1        0.0954
     10 N         -18.9347   -4.6261   19.3638 N.3     1  UNL1       -0.2934
     11 H         -19.0987   -4.0714   20.2040 H       1  UNL1        0.1236
     12 N         -14.2177   -6.9821   18.1603 N.pl3   1  UNL1       -0.3049
     13 C         -14.0269   -7.0044   16.6726 C.3     1  UNL1        0.1081
     14 C         -12.7422   -6.5138   16.0737 C.3     1  UNL1        0.0938
     15 N         -11.6482   -6.0007   16.9625 N.3     1  UNL1       -0.2709
     16 C         -10.2831   -5.4565   16.6620 C.3     1  UNL1        0.0722
     17 C          -9.6302   -5.0977   17.9639 C.3     1  UNL1        0.0188
     18 C         -10.5917   -5.4203   19.0690 C.3     1  UNL1        0.0191
     19 C         -11.8389   -5.9783   18.4501 C.3     1  UNL1        0.0774
     20 C         -13.1237   -6.4690   19.0490 C.3     1  UNL1        0.1067
     21 C         -17.5093   -2.6958   18.3677 C.3     1  UNL1        0.0886
     22 C         -17.4158   -0.7392   20.0745 C.3     1  UNL1        0.0899
     23 N         -16.7136   -1.7558   19.2238 N.3     1  UNL1       -0.2667
     24 C         -15.2155   -1.8322   19.2293 C.3     1  UNL1        0.0978
     25 C         -14.5163   -2.7804   20.1577 C.3     1  UNL1        0.0224
     26 C         -13.0183   -2.8569   20.1632 C.3     1  UNL1        0.0065
     27 C         -12.2194   -1.9851   19.2404 C.3     1  UNL1        0.0277
     28 C         -12.9186   -1.0368   18.3119 C.ar    1  UNL1       -0.0073
     29 C         -12.1197   -0.1650   17.3890 C.ar    1  UNL1       -0.0015
     30 C         -12.8189    0.7832   16.4606 C.ar    1  UNL1        0.0203
     31 C         -14.3170    0.8596   16.4551 C.ar    1  UNL1        0.0985
     32 N         -15.1158   -0.0121   17.3780 N.ar    1  UNL1       -0.2471
     33 C         -14.4166   -0.9604   18.3064 C.ar    1  UNL1        0.0695
@<TRIPOS>BOND
     1    22    23    1
     2    23    21    1
     3     1    21    1
     4     1     2    1
     5     2     3    1
     6     3     4   ar
     7     4     5   ar
     8     5     6   ar
     9     6     7   ar
    10     7     8   ar
    11     8    12    1
    12    12    13    1
    13    13    14    1
    14    14    15    1
    15    15    16    1
    16    16    17    1
    17    17    18    1
    18    19    18    1
    19    19    20    1
    20     4     9    1
    21     9    10    1
    22    24    23    1
    23    24    25    1
    24    25    26    1
    25    26    27    1
    26    27    28    1
    27    28    29   ar
    28    29    30   ar
    29    30    31   ar
    30    31    32   ar
    31    32    33   ar
    32    10     1    1
    33    33    24    1
    34     8     3   ar
    35    20    12    1
    36    33    28   ar
    37    19    15    1
    38    10    11    1
@<TRIPOS>MOLECULE
*****
 33 38 0 0 0
SMALL
GASTEIGER

@<TRIPOS>ATOM
      1 C          -9.0301  -15.8052   22.6977 C.3     1  UNL1        0.0749
      2 C          -7.5858  -16.0250   23.0376 C.3     1  UNL1        0.0444
      3 C          -7.1131  -15.8515   24.4506 C.ar    1  UNL1       -0.0101
      4 C          -8.0848  -15.4584   25.5236 C.ar    1  UNL1       -0.0091
      5 C          -7.6121  -15.2849   26.9366 C.ar    1  UNL1       -0.0032
      6 C          -6.1677  -15.5047   27.2765 C.ar    1  UNL1        0.0010
      7 C          -5.1961  -15.8978   26.2035 C.ar    1  UNL1        0.0142
      8 C          -5.6688  -16.0712   24.7906 C.ar    1  UNL1        0.0436
      9 C          -9.5291  -15.2387   25.1836 C.3     1  UNL1        0.0954
     10 N         -10.0018  -15.4121   23.7707 N.3     1  UNL1       -0.2934
     11 H         -10.4109  -14.5223   23.4857 H       1  UNL1        0.1236
     12 N          -4.6971  -16.4644   23.7176 N.pl3   1  UNL1       -0.3049
     13 C          -3.8711  -15.4160   23.0330 C.3     1  UNL1        0.1081
     14 C          -2.8994  -15.8092   21.9600 C.3     1  UNL1        0.0938
     15 N          -2.7538  -17.2507   21.5716 N.3     1  UNL1       -0.2709
     16 C          -1.8850  -17.9341   20.5576 C.3     1  UNL1        0.0722
     17 C          -2.1742  -19.4048   20.6155 C.3     1  UNL1        0.0188
     18 C          -3.2216  -19.6304   21.6653 C.3     1  UNL1        0.0191
     19 C          -3.5798  -18.2990   22.2562 C.3     1  UNL1        0.0774
     20 C          -4.5515  -17.9059   23.3292 C.3     1  UNL1        0.1067
     21 C          -9.5029  -15.9787   21.2847 C.3     1  UNL1        0.0886
     22 C         -10.6919  -17.5823   19.6219 C.3     1  UNL1        0.0899
     23 N          -9.6988  -17.3557   20.7230 N.3     1  UNL1       -0.2667
     24 C          -8.9016  -18.5061   21.2625 C.3     1  UNL1        0.0978
     25 C          -7.6543  -18.9502   20.5576 C.3     1  UNL1        0.0224
     26 C          -6.8571  -20.1007   21.0971 C.3     1  UNL1        0.0065
     27 C          -7.3073  -20.8070   22.3414 C.3     1  UNL1        0.0277
     28 C          -8.5547  -20.3629   23.0463 C.ar    1  UNL1       -0.0073
     29 C          -9.0049  -21.0693   24.2906 C.ar    1  UNL1       -0.0015
     30 C         -10.2522  -20.6252   24.9955 C.ar    1  UNL1        0.0203
     31 C         -11.0494  -19.4747   24.4560 C.ar    1  UNL1        0.0985
     32 N         -10.5992  -18.7684   23.2117 N.ar    1  UNL1       -0.2471
     33 C          -9.3519  -19.2125   22.5069 C.ar    1  UNL1        0.0695
@<TRIPOS>BOND
     1    22    23    1
     2    23    21    1
     3     1    21    1
     4     1     2    1
     5     2     3    1
     6     3     4   ar
     7     4     5   ar
     8     5     6   ar
     9     6     7   ar
    10     7     8   ar
    11     8    12    1
    12    12    13    1
    13    13    14    1
    14    14    15    1
    15    15    16    1
    16    16    17    1
    17    17    18    1
    18    19    18    1
    19    19    20    1
    20     4     9    1
    21     9    10    1
    22    24    23    1
    23    24    25    1
    24    25    26    1
    25    26    27    1
    26    27    28    1
    27    28    29   ar
    28    29    30   ar
    29    30    31   ar
    30    31    32   ar
    31    32    33   ar
    32    10     1    1
    33    33    24    1
    34     8     3   ar
    35    20    12    1
    36    33    28   ar
    37    19    15    1
    38    10    11    1
@<TRIPOS>MOLECULE
*****
 33 38 0 0 0
SMALL
GASTEIGER

@<TRIPOS>ATOM
      1 C          -9.0665  -15.9041   22.8739 C.3     1  UNL1        0.0749
      2 C          -7.6074  -16.0025   23.2075 C.3     1  UNL1        0.0444
      3 C          -7.1412  -15.7596   24.6124 C.ar    1  UNL1       -0.0101
      4 C          -8.1342  -15.4184   25.6836 C.ar    1  UNL1       -0.0091
      5 C          -7.6679  -15.1755   27.0886 C.ar    1  UNL1       -0.0032
      6 C          -6.2089  -15.2739   27.4221 C.ar    1  UNL1        0.0010
      7 C          -5.2159  -15.6152   26.3509 C.ar    1  UNL1        0.0142
      8 C          -5.6821  -15.8580   24.9460 C.ar    1  UNL1        0.0436
      9 C          -9.5933  -15.3200   25.3501 C.3     1  UNL1        0.0954
     10 N         -10.0594  -15.5628   23.9452 N.3     1  UNL1       -0.2934
     11 H         -10.5386  -14.7145   23.6432 H       1  UNL1        0.1236
     12 N          -4.6891  -16.1993   23.8747 N.pl3   1  UNL1       -0.3049
     13 C          -4.1079  -15.1140   23.0176 C.3     1  UNL1        0.1081
     14 C          -3.1150  -15.4553   21.9463 C.3     1  UNL1        0.0938
     15 N          -2.7033  -16.8817   21.7322 N.3     1  UNL1       -0.2709
     16 C          -1.7524  -17.5169   20.7615 C.3     1  UNL1        0.0722
     17 C          -1.7459  -18.9947   21.0186 C.3     1  UNL1        0.0188
     18 C          -2.6928  -19.2728   22.1483 C.3     1  UNL1        0.0191
     19 C          -3.2845  -17.9669   22.5892 C.3     1  UNL1        0.0774
     20 C          -4.2774  -17.6256   23.6605 C.3     1  UNL1        0.1067
     21 C          -9.5327  -16.1469   21.4690 C.3     1  UNL1        0.0886
     22 C         -10.6962  -17.7738   19.8108 C.3     1  UNL1        0.0899
     23 N          -9.8164  -17.5445   21.0039 N.3     1  UNL1       -0.2667
     24 C          -9.2204  -18.7127   21.7320 C.3     1  UNL1        0.0978
     25 C          -9.9636  -19.3449   22.8712 C.3     1  UNL1        0.0224
     26 C          -9.3676  -20.5131   23.5992 C.3     1  UNL1        0.0065
     27 C          -8.0284  -21.0492   23.1880 C.3     1  UNL1        0.0277
     28 C          -7.2851  -20.4169   22.0487 C.ar    1  UNL1       -0.0073
     29 C          -5.9459  -20.9529   21.6375 C.ar    1  UNL1       -0.0015
     30 C          -5.2027  -20.3207   20.4983 C.ar    1  UNL1        0.0203
     31 C          -5.7987  -19.1525   19.7703 C.ar    1  UNL1        0.0985
     32 N          -7.1379  -18.6165   20.1815 N.ar    1  UNL1       -0.2471
     33 C          -7.8811  -19.2487   21.3207 C.ar    1  UNL1        0.0695
@<TRIPOS>BOND
     1    22    23    1
     2    23    21    1
     3     1    21    1
     4     1     2    1
     5     2     3    1
     6     3     4   ar
     7     4     5   ar
     8     5     6   ar
     9     6     7   ar
    10     7     8   ar
    11     8    12    1
    12    12    13    1
    13    13    14    1
    14    14    15    1
    15    15    16    1
    16    16    17    1
    17    17    18    1
    18    19    18    1
    19    19    20    1
    20     4     9    1
    21     9    10    1
    22    24    23    1
    23    24    25    1
    24    25    26    1
    25    26    27    1
    26    27    28    1
    27    28    29   ar
    28    29    30   ar
    29    30    31   ar
    30    31    32   ar
    31    32    33   ar
    32    10     1    1
    33    33    24    1
    34     8     3   ar
    35    20    12    1
    36    33    28   ar
    37    19    15    1
    38    10    11    1
@<TRIPOS>MOLECULE
*****
 33 38 0 0 0
SMALL
GASTEIGER

@<TRIPOS>ATOM
      1 C         -17.7951   -4.0709   18.4540 C.3     1  UNL1        0.0749
      2 C         -16.5982   -4.9718   18.3788 C.3     1  UNL1        0.0444
      3 C         -16.6705   -6.3630   18.9349 C.ar    1  UNL1       -0.0101
      4 C         -17.9397   -6.8533   19.5664 C.ar    1  UNL1       -0.0091
      5 C         -18.0120   -8.2445   20.1226 C.ar    1  UNL1       -0.0032
      6 C         -16.8150   -9.1454   20.0473 C.ar    1  UNL1        0.0010
      7 C         -15.5458   -8.6551   19.4158 C.ar    1  UNL1        0.0142
      8 C         -15.4735   -7.2640   18.8597 C.ar    1  UNL1        0.0436
      9 C         -19.1366   -5.9524   19.6417 C.3     1  UNL1        0.0954
     10 N         -19.0643   -4.5612   19.0855 N.3     1  UNL1       -0.2934
     11 H         -19.2753   -3.9253   19.8546 H       1  UNL1        0.1236
     12 N         -14.2043   -6.7737   18.2282 N.pl3   1  UNL1       -0.3049
     13 C         -14.0885   -6.7030   16.7343 C.3     1  UNL1        0.1081
     14 C         -12.8193   -6.2128   16.1028 C.3     1  UNL1        0.0938
     15 N         -11.6659   -5.7932   16.9653 N.3     1  UNL1       -0.2709
     16 C         -10.2999   -5.2717   16.6304 C.3     1  UNL1        0.0722
     17 C          -9.5715   -5.0201   17.9174 C.3     1  UNL1        0.0188
     18 C         -10.4874   -5.3861   19.0475 C.3     1  UNL1        0.0191
     19 C         -11.7818   -5.8639   18.4591 C.3     1  UNL1        0.0774
     20 C         -13.0510   -6.3541   19.0906 C.3     1  UNL1        0.1067
     21 C         -17.7229   -2.6797   17.8979 C.3     1  UNL1        0.0886
     22 C         -17.8679   -1.3054   20.0980 C.3     1  UNL1        0.0899
     23 N         -17.2374   -1.5518   18.7594 N.3     1  UNL1       -0.2667
     24 C         -16.1214   -0.6704   18.2823 C.3     1  UNL1        0.0978
     25 C         -16.4298    0.5820   17.5166 C.3     1  UNL1        0.0224
     26 C         -15.3138    1.4635   17.0396 C.3     1  UNL1        0.0065
     27 C         -13.8894    1.0926   17.3283 C.3     1  UNL1        0.0277
     28 C         -13.5809   -0.1598   18.0941 C.ar    1  UNL1       -0.0073
     29 C         -12.1565   -0.5307   18.3828 C.ar    1  UNL1       -0.0015
     30 C         -11.8480   -1.7831   19.1485 C.ar    1  UNL1        0.0203
     31 C         -12.9640   -2.6646   19.6256 C.ar    1  UNL1        0.0985
     32 N         -14.3885   -2.2937   19.3368 N.ar    1  UNL1       -0.2471
     33 C         -14.6969   -1.0413   18.5711 C.ar    1  UNL1        0.0695
@<TRIPOS>BOND
     1    22    23    1
     2    23    21    1
     3     1    21    1
     4     1     2    1
     5     2     3    1
     6     3     4   ar
     7     4     5   ar
     8     5     6   ar
     9     6     7   ar
    10     7     8   ar
    11     8    12    1
    12    12    13    1
    13    13    14    1
    14    14    15    1
    15    15    16    1
    16    16    17    1
    17    17    18    1
    18    19    18    1
    19    19    20    1
    20     4     9    1
    21     9    10    1
    22    24    23    1
    23    24    25    1
    24    25    26    1
    25    26    27    1
    26    27    28    1
    27    28    29   ar
    28    29    30   ar
    29    30    31   ar
    30    31    32   ar
    31    32    33   ar
    32    10     1    1
    33    33    24    1
    34     8     3   ar
    35    20    12    1
    36    33    28   ar
    37    19    15    1
    38    10    11    1
@<TRIPOS>MOLECULE
*****
 33 38 0 0 0
SMALL
GASTEIGER

@<TRIPOS>ATOM
      1 C           4.2815   -1.9311   24.1620 C.3     1  UNL1        0.0749
      2 C           3.6955   -1.4082   22.8840 C.3     1  UNL1        0.0444
      3 C           4.0271   -2.0716   21.5803 C.ar    1  UNL1       -0.0101
      4 C           4.9447   -3.2579   21.5544 C.ar    1  UNL1       -0.0091
      5 C           5.2763   -3.9214   20.2505 C.ar    1  UNL1       -0.0032
      6 C           4.6903   -3.3984   18.9726 C.ar    1  UNL1        0.0010
      7 C           3.7728   -2.2121   18.9984 C.ar    1  UNL1        0.0142
      8 C           3.4412   -1.5487   20.3022 C.ar    1  UNL1        0.0436
      9 C           5.5306   -3.7809   22.8323 C.3     1  UNL1        0.0954
     10 N           5.1990   -3.1175   24.1361 N.3     1  UNL1       -0.2934
     11 H           6.0828   -2.8151   24.5458 H       1  UNL1        0.1236
     12 N           2.5236   -0.3623   20.3281 N.pl3   1  UNL1       -0.3049
     13 C           1.0379   -0.5620   20.2745 C.3     1  UNL1        0.1081
     14 C           0.1203    0.6243   20.3004 C.3     1  UNL1        0.0938
     15 N           0.6885    2.0104   20.3798 N.3     1  UNL1       -0.2709
     16 C           0.0375    3.3611   20.4210 C.3     1  UNL1        0.0722
     17 C           1.1208    4.3955   20.5000 C.3     1  UNL1        0.0188
     18 C           2.4414    3.6841   20.5076 C.3     1  UNL1        0.0191
     19 C           2.1741    2.2100   20.4333 C.3     1  UNL1        0.0774
     20 C           3.0917    1.0236   20.4074 C.3     1  UNL1        0.1067
     21 C           3.9499   -1.2677   25.4658 C.3     1  UNL1        0.0886
     22 C           4.8989    1.1426   25.6648 C.3     1  UNL1        0.0899
     23 N           3.7292    0.2150   25.5181 N.3     1  UNL1       -0.2667
     24 C           2.3390    0.7702   25.4238 C.3     1  UNL1        0.0978
     25 C           1.8381    1.3208   24.1215 C.3     1  UNL1        0.0224
     26 C           0.4478    1.8760   24.0272 C.3     1  UNL1        0.0065
     27 C          -0.4416    1.8806   25.2350 C.3     1  UNL1        0.0277
     28 C           0.0593    1.3299   26.5373 C.ar    1  UNL1       -0.0073
     29 C          -0.8301    1.3345   27.7452 C.ar    1  UNL1       -0.0015
     30 C          -0.3292    0.7838   29.0474 C.ar    1  UNL1        0.0203
     31 C           1.0611    0.2286   29.1418 C.ar    1  UNL1        0.0985
     32 N           1.9505    0.2241   27.9339 N.ar    1  UNL1       -0.2471
     33 C           1.4496    0.7747   26.6317 C.ar    1  UNL1        0.0695
@<TRIPOS>BOND
     1    22    23    1
     2    23    21    1
     3     1    21    1
     4     1     2    1
     5     2     3    1
     6     3     4   ar
     7     4     5   ar
     8     5     6   ar
     9     6     7   ar
    10     7     8   ar
    11     8    12    1
    12    12    13    1
    13    13    14    1
    14    14    15    1
    15    15    16    1
    16    16    17    1
    17    17    18    1
    18    19    18    1
    19    19    20    1
    20     4     9    1
    21     9    10    1
    22    24    23    1
    23    24    25    1
    24    25    26    1
    25    26    27    1
    26    27    28    1
    27    28    29   ar
    28    29    30   ar
    29    30    31   ar
    30    31    32   ar
    31    32    33   ar
    32    10     1    1
    33    33    24    1
    34     8     3   ar
    35    20    12    1
    36    33    28   ar
    37    19    15    1
    38    10    11    1
