@<TRIPOS>MOLECULE
*****
 28 30 0 0 0
SMALL
GASTEIGER

@<TRIPOS>ATOM
      1 C          -8.3925  -16.7983   22.4148 C.ar    1  UNL1        0.0084
      2 C          -7.6758  -15.9793   23.4470 C.ar    1  UNL1        0.0212
      3 C          -6.2327  -16.2525   23.7517 C.ar    1  UNL1        0.1523
      4 N          -5.5062  -17.3446   23.0241 N.ar    1  UNL1       -0.2414
      5 C          -6.2229  -18.1637   21.9918 C.ar    1  UNL1        0.0848
      6 C          -5.4964  -19.2558   21.2642 C.ar    1  UNL1        0.0890
      7 C          -6.2131  -20.0748   20.2319 C.ar    1  UNL1        0.0054
      8 C          -7.6562  -19.8017   19.9273 C.ar    1  UNL1        0.0000
      9 C          -8.3827  -18.7095   20.6548 C.ar    1  UNL1        0.0012
     10 C          -7.6660  -17.8905   21.6871 C.ar    1  UNL1        0.0160
     11 C          -5.5161  -15.4334   24.7840 C.3     1  UNL1        0.4348
     12 F          -4.7994  -14.6143   25.8162 F       1  UNL1       -0.1644
     13 F          -6.4874  -15.8990   25.8278 F       1  UNL1       -0.1644
     14 F          -4.5447  -14.9678   23.7402 F       1  UNL1       -0.1644
     15 C          -4.0533  -19.5290   21.5689 C.3     1  UNL1        0.4200
     16 F          -2.6102  -19.8021   21.8735 F       1  UNL1       -0.1658
     17 F          -4.4376  -20.0499   22.9220 F       1  UNL1       -0.1658
     18 F          -3.6691  -19.0080   20.2157 F       1  UNL1       -0.1658
     19 O         -10.2028  -15.5624   21.0199 O.3     1  UNL1       -0.3787
     20 C          -9.8356  -16.5252   22.1101 C.3     1  UNL1        0.1470
     21 H          -9.3952  -15.2084   20.6157 H       1  UNL1        0.2108
     22 C         -10.9115  -17.2147   22.8955 C.3     1  UNL1        0.0855
     23 C         -12.3542  -16.9172   22.6127 C.3     1  UNL1        0.0186
     24 C         -13.4302  -17.6068   23.3982 C.3     1  UNL1        0.0029
     25 C         -13.0633  -18.5937   24.4665 C.3     1  UNL1        0.0171
     26 C         -11.6206  -18.8912   24.7494 C.3     1  UNL1        0.0686
     27 N         -10.5447  -18.2017   23.9639 N.3     1  UNL1       -0.2963
     28 H          -9.9947  -18.9329   23.5130 H       1  UNL1        0.1233
@<TRIPOS>BOND
     1    20    19    1
     2    20     1    1
     3     1     2   ar
     4     2     3   ar
     5     3    11    1
     6    11    12    1
     7    11    13    1
     8    11    14    1
     9     3     4   ar
    10     4     5   ar
    11     5     6   ar
    12     6    15    1
    13    15    16    1
    14    15    17    1
    15    15    18    1
    16     6     7   ar
    17     7     8   ar
    18     8     9   ar
    19     9    10   ar
    20    20    22    1
    21    22    23    1
    22    23    24    1
    23    24    25    1
    24    25    26    1
    25    26    27    1
    26    10     1   ar
    27    27    22    1
    28    10     5   ar
    29    19    21    1
    30    27    28    1
@<TRIPOS>MOLECULE
*****
 28 30 0 0 0
SMALL
GASTEIGER

@<TRIPOS>ATOM
      1 C          -6.7518  -18.6300   21.6510 C.ar    1  UNL1        0.0084
      2 C          -6.2685  -17.7101   22.7328 C.ar    1  UNL1        0.0212
      3 C          -7.2134  -16.7284   23.3601 C.ar    1  UNL1        0.1523
      4 N          -8.6416  -16.6667   22.9057 N.ar    1  UNL1       -0.2414
      5 C          -9.1249  -17.5867   21.8239 C.ar    1  UNL1        0.0848
      6 C         -10.5531  -17.5250   21.3696 C.ar    1  UNL1        0.0890
      7 C         -11.0363  -18.4449   20.2878 C.ar    1  UNL1        0.0054
      8 C         -10.0914  -19.4265   19.6605 C.ar    1  UNL1        0.0000
      9 C          -8.6632  -19.4882   20.1149 C.ar    1  UNL1        0.0012
     10 C          -8.1800  -18.5683   21.1966 C.ar    1  UNL1        0.0160
     11 C          -6.7301  -15.8085   24.4419 C.3     1  UNL1        0.4348
     12 F          -6.2468  -14.8886   25.5236 F       1  UNL1       -0.1644
     13 F          -8.1383  -15.3511   24.6821 F       1  UNL1       -0.1644
     14 F          -5.3219  -16.2659   24.2016 F       1  UNL1       -0.1644
     15 C         -11.4980  -16.5433   21.9969 C.3     1  UNL1        0.4200
     16 F         -12.4429  -15.5617   22.6243 F       1  UNL1       -0.1658
     17 F         -11.1682  -15.5432   20.9287 F       1  UNL1       -0.1658
     18 F         -11.8277  -17.5435   23.0651 F       1  UNL1       -0.1658
     19 O          -6.2148  -21.0458   20.8601 O.3     1  UNL1       -0.3787
     20 C          -5.8068  -19.6116   21.0237 C.3     1  UNL1        0.1470
     21 H          -7.1115  -21.1687   21.2090 H       1  UNL1        0.2108
     22 C          -4.4541  -19.1590   20.5599 C.3     1  UNL1        0.0855
     23 C          -3.2225  -19.6064   21.2900 C.3     1  UNL1        0.0186
     24 C          -1.8696  -19.1538   20.8262 C.3     1  UNL1        0.0029
     25 C          -1.7484  -18.2539   19.6322 C.3     1  UNL1        0.0171
     26 C          -2.9800  -17.8066   18.9021 C.3     1  UNL1        0.0686
     27 N          -4.3328  -18.2591   19.3659 N.3     1  UNL1       -0.2963
     28 H          -4.7638  -18.7498   18.5824 H       1  UNL1        0.1233
@<TRIPOS>BOND
     1    20    19    1
     2    20     1    1
     3     1     2   ar
     4     2     3   ar
     5     3    11    1
     6    11    12    1
     7    11    13    1
     8    11    14    1
     9     3     4   ar
    10     4     5   ar
    11     5     6   ar
    12     6    15    1
    13    15    16    1
    14    15    17    1
    15    15    18    1
    16     6     7   ar
    17     7     8   ar
    18     8     9   ar
    19     9    10   ar
    20    20    22    1
    21    22    23    1
    22    23    24    1
    23    24    25    1
    24    25    26    1
    25    26    27    1
    26    10     1   ar
    27    27    22    1
    28    10     5   ar
    29    19    21    1
    30    27    28    1
@<TRIPOS>MOLECULE
*****
 28 30 0 0 0
SMALL
GASTEIGER

@<TRIPOS>ATOM
      1 C          -7.6333  -18.4309   22.6004 C.ar    1  UNL1        0.0084
      2 C          -7.2385  -17.2725   23.4676 C.ar    1  UNL1        0.0212
      3 C          -5.8078  -16.8242   23.5146 C.ar    1  UNL1        0.1523
      4 N          -4.7720  -17.5342   22.6944 N.ar    1  UNL1       -0.2414
      5 C          -5.1669  -18.6927   21.8270 C.ar    1  UNL1        0.0848
      6 C          -4.1311  -19.4027   21.0068 C.ar    1  UNL1        0.0890
      7 C          -4.5259  -20.5611   20.1395 C.ar    1  UNL1        0.0054
      8 C          -5.9566  -21.0095   20.0926 C.ar    1  UNL1        0.0000
      9 C          -6.9924  -20.2994   20.9128 C.ar    1  UNL1        0.0012
     10 C          -6.5975  -19.1410   21.7801 C.ar    1  UNL1        0.0160
     11 C          -5.4130  -15.6657   24.3819 C.3     1  UNL1        0.4348
     12 F          -5.0181  -14.5073   25.2492 F       1  UNL1       -0.1644
     13 F          -6.5035  -16.0184   25.3495 F       1  UNL1       -0.1644
     14 F          -4.3225  -15.3130   23.4143 F       1  UNL1       -0.1644
     15 C          -2.7004  -18.9544   21.0538 C.3     1  UNL1        0.4200
     16 F          -1.2697  -18.5061   21.1008 F       1  UNL1       -0.1658
     17 F          -2.9991  -17.8944   20.0353 F       1  UNL1       -0.1658
     18 F          -2.4017  -20.0144   22.0722 F       1  UNL1       -0.1658
     19 O          -9.4530  -20.2077   23.1313 O.3     1  UNL1       -0.3787
     20 C          -9.0640  -18.8792   22.5534 C.3     1  UNL1        0.1470
     21 H          -8.6666  -20.6460   23.4924 H       1  UNL1        0.2108
     22 C         -10.1056  -17.9992   21.9286 C.3     1  UNL1        0.0855
     23 C         -11.0554  -17.2284   22.7969 C.3     1  UNL1        0.0186
     24 C         -12.0970  -16.3483   22.1719 C.3     1  UNL1        0.0029
     25 C         -12.1889  -16.2390   20.6788 C.3     1  UNL1        0.0171
     26 C         -11.2392  -17.0097   19.8105 C.3     1  UNL1        0.0686
     27 N         -10.1975  -17.8898   20.4353 N.3     1  UNL1       -0.2963
     28 H          -9.2922  -17.5522   20.1085 H       1  UNL1        0.1233
@<TRIPOS>BOND
     1    20    19    1
     2    20     1    1
     3     1     2   ar
     4     2     3   ar
     5     3    11    1
     6    11    12    1
     7    11    13    1
     8    11    14    1
     9     3     4   ar
    10     4     5   ar
    11     5     6   ar
    12     6    15    1
    13    15    16    1
    14    15    17    1
    15    15    18    1
    16     6     7   ar
    17     7     8   ar
    18     8     9   ar
    19     9    10   ar
    20    20    22    1
    21    22    23    1
    22    23    24    1
    23    24    25    1
    24    25    26    1
    25    26    27    1
    26    10     1   ar
    27    27    22    1
    28    10     5   ar
    29    19    21    1
    30    27    28    1
@<TRIPOS>MOLECULE
*****
 28 30 0 0 0
SMALL
GASTEIGER

@<TRIPOS>ATOM
      1 C          -8.4012  -17.3623   22.0367 C.ar    1  UNL1        0.0084
      2 C          -8.1250  -18.5849   21.2128 C.ar    1  UNL1        0.0212
      3 C          -6.7523  -19.1895   21.2048 C.ar    1  UNL1        0.1523
      4 N          -5.6557  -18.5714   22.0206 N.ar    1  UNL1       -0.2414
      5 C          -5.9319  -17.3487   22.8445 C.ar    1  UNL1        0.0848
      6 C          -4.8354  -16.7306   23.6603 C.ar    1  UNL1        0.0890
      7 C          -5.1116  -15.5080   24.4841 C.ar    1  UNL1        0.0054
      8 C          -6.4844  -14.9034   24.4922 C.ar    1  UNL1        0.0000
      9 C          -7.5809  -15.5215   23.6764 C.ar    1  UNL1        0.0012
     10 C          -7.3047  -16.7441   22.8526 C.ar    1  UNL1        0.0160
     11 C          -6.4761  -20.4122   20.3808 C.3     1  UNL1        0.4348
     12 F          -6.1999  -21.6349   19.5570 F       1  UNL1       -0.1644
     13 F          -7.7624  -20.2025   19.6384 F       1  UNL1       -0.1644
     14 F          -5.1897  -20.6219   21.1233 F       1  UNL1       -0.1644
     15 C          -3.4627  -17.3352   23.6522 C.3     1  UNL1        0.4200
     16 F          -2.0899  -17.9398   23.6441 F       1  UNL1       -0.1658
     17 F          -3.1673  -16.6473   22.3524 F       1  UNL1       -0.1658
     18 F          -3.7580  -18.0231   24.9520 F       1  UNL1       -0.1658
     19 O         -10.0612  -15.5380   21.2202 O.3     1  UNL1       -0.3787
     20 C          -9.7740  -16.7577   22.0448 C.3     1  UNL1        0.1470
     21 H          -9.2578  -15.2714   20.7465 H       1  UNL1        0.2108
     22 C         -10.8595  -17.3728   22.8774 C.3     1  UNL1        0.0855
     23 C         -12.2967  -17.0519   22.5919 C.3     1  UNL1        0.0186
     24 C         -13.3822  -17.6670   23.4246 C.3     1  UNL1        0.0029
     25 C         -13.0306  -18.6030   24.5427 C.3     1  UNL1        0.0171
     26 C         -11.5934  -18.9239   24.8282 C.3     1  UNL1        0.0686
     27 N         -10.5079  -18.3089   23.9956 N.3     1  UNL1       -0.2963
     28 H          -9.9828  -19.0788   23.5809 H       1  UNL1        0.1233
@<TRIPOS>BOND
     1    20    19    1
     2    20     1    1
     3     1     2   ar
     4     2     3   ar
     5     3    11    1
     6    11    12    1
     7    11    13    1
     8    11    14    1
     9     3     4   ar
    10     4     5   ar
    11     5     6   ar
    12     6    15    1
    13    15    16    1
    14    15    17    1
    15    15    18    1
    16     6     7   ar
    17     7     8   ar
    18     8     9   ar
    19     9    10   ar
    20    20    22    1
    21    22    23    1
    22    23    24    1
    23    24    25    1
    24    25    26    1
    25    26    27    1
    26    10     1   ar
    27    27    22    1
    28    10     5   ar
    29    19    21    1
    30    27    28    1
@<TRIPOS>MOLECULE
*****
 28 30 0 0 0
SMALL
GASTEIGER

@<TRIPOS>ATOM
      1 C          -6.2262  -18.9288   21.4718 C.ar    1  UNL1        0.0084
      2 C          -6.8583  -19.7048   20.3546 C.ar    1  UNL1        0.0212
      3 C          -8.2883  -19.4501   19.9798 C.ar    1  UNL1        0.1523
      4 N          -9.0861  -18.4195   20.7223 N.ar    1  UNL1       -0.2414
      5 C          -8.4540  -17.6435   21.8396 C.ar    1  UNL1        0.0848
      6 C          -9.2518  -16.6129   22.5821 C.ar    1  UNL1        0.0890
      7 C          -8.6198  -15.8370   23.6993 C.ar    1  UNL1        0.0054
      8 C          -7.1898  -16.0916   24.0741 C.ar    1  UNL1        0.0000
      9 C          -6.3920  -17.1222   23.3316 C.ar    1  UNL1        0.0012
     10 C          -7.0241  -17.8982   22.2144 C.ar    1  UNL1        0.0160
     11 C          -8.9203  -20.2262   18.8625 C.3     1  UNL1        0.4348
     12 F          -9.5523  -21.0022   17.7452 F       1  UNL1       -0.1644
     13 F         -10.1506  -19.3744   18.9668 F       1  UNL1       -0.1644
     14 F          -7.6901  -21.0779   18.7582 F       1  UNL1       -0.1644
     15 C         -10.6818  -16.3583   22.2073 C.3     1  UNL1        0.4200
     16 F         -12.1117  -16.1037   21.8325 F       1  UNL1       -0.1658
     17 F         -10.2292  -15.4970   21.0656 F       1  UNL1       -0.1658
     18 F         -11.1344  -17.2196   23.3489 F       1  UNL1       -0.1658
     19 O          -4.4729  -20.0749   23.0089 O.3     1  UNL1       -0.3787
     20 C          -4.7963  -19.1834   21.8466 C.3     1  UNL1        0.1470
     21 H          -5.2961  -20.4015   23.4047 H       1  UNL1        0.2108
     22 C          -3.6898  -18.5467   21.0592 C.3     1  UNL1        0.0855
     23 C          -3.3649  -19.0466   19.6828 C.3     1  UNL1        0.0186
     24 C          -2.2583  -18.4097   18.8953 C.3     1  UNL1        0.0029
     25 C          -1.4767  -17.2731   19.4843 C.3     1  UNL1        0.0171
     26 C          -1.8015  -16.7732   20.8608 C.3     1  UNL1        0.0686
     27 N          -2.9080  -17.4100   21.6482 N.3     1  UNL1       -0.2963
     28 H          -3.5784  -16.6720   21.8637 H       1  UNL1        0.1233
@<TRIPOS>BOND
     1    20    19    1
     2    20     1    1
     3     1     2   ar
     4     2     3   ar
     5     3    11    1
     6    11    12    1
     7    11    13    1
     8    11    14    1
     9     3     4   ar
    10     4     5   ar
    11     5     6   ar
    12     6    15    1
    13    15    16    1
    14    15    17    1
    15    15    18    1
    16     6     7   ar
    17     7     8   ar
    18     8     9   ar
    19     9    10   ar
    20    20    22    1
    21    22    23    1
    22    23    24    1
    23    24    25    1
    24    25    26    1
    25    26    27    1
    26    10     1   ar
    27    27    22    1
    28    10     5   ar
    29    19    21    1
    30    27    28    1
@<TRIPOS>MOLECULE
*****
 28 30 0 0 0
SMALL
GASTEIGER

@<TRIPOS>ATOM
      1 C          -6.4774  -19.1525   21.2455 C.ar    1  UNL1        0.0084
      2 C          -7.8973  -19.4121   20.8375 C.ar    1  UNL1        0.0212
      3 C          -9.0153  -18.6521   21.4875 C.ar    1  UNL1        0.1523
      4 N          -8.7135  -17.6326   22.5455 N.ar    1  UNL1       -0.2414
      5 C          -7.2935  -17.3730   22.9536 C.ar    1  UNL1        0.0848
      6 C          -6.9917  -16.3535   24.0116 C.ar    1  UNL1        0.0890
      7 C          -5.5718  -16.0939   24.4196 C.ar    1  UNL1        0.0054
      8 C          -4.4538  -16.8539   23.7696 C.ar    1  UNL1        0.0000
      9 C          -4.7556  -17.8734   22.7116 C.ar    1  UNL1        0.0012
     10 C          -6.1755  -18.1329   22.3036 C.ar    1  UNL1        0.0160
     11 C         -10.4353  -18.9117   21.0795 C.3     1  UNL1        0.4348
     12 F         -11.8551  -19.1714   20.6715 F       1  UNL1       -0.1644
     13 F         -10.3640  -17.7724   20.1065 F       1  UNL1       -0.1644
     14 F         -10.5065  -20.0511   22.0524 F       1  UNL1       -0.1644
     15 C          -8.1097  -15.5935   24.6616 C.3     1  UNL1        0.4200
     16 F          -9.2277  -14.8336   25.3116 F       1  UNL1       -0.1658
     17 F          -8.4178  -16.7829   25.5221 F       1  UNL1       -0.1658
     18 F          -7.8015  -14.4042   23.8011 F       1  UNL1       -0.1658
     19 O          -5.4756  -21.3949   20.3981 O.3     1  UNL1       -0.3787
     20 C          -5.3594  -19.9125   20.5955 C.3     1  UNL1        0.1470
     21 H          -6.3286  -21.7013   20.7437 H       1  UNL1        0.2108
     22 C          -4.1252  -19.1901   20.1429 C.3     1  UNL1        0.0855
     23 C          -2.7813  -19.5996   20.6684 C.3     1  UNL1        0.0186
     24 C          -1.5471  -18.8771   20.2157 C.3     1  UNL1        0.0029
     25 C          -1.6569  -17.7451   19.2377 C.3     1  UNL1        0.0171
     26 C          -3.0008  -17.3356   18.7122 C.3     1  UNL1        0.0686
     27 N          -4.2350  -18.0581   19.1648 N.3     1  UNL1       -0.2963
     28 H          -4.6796  -18.4345   18.3275 H       1  UNL1        0.1233
@<TRIPOS>BOND
     1    20    19    1
     2    20     1    1
     3     1     2   ar
     4     2     3   ar
     5     3    11    1
     6    11    12    1
     7    11    13    1
     8    11    14    1
     9     3     4   ar
    10     4     5   ar
    11     5     6   ar
    12     6    15    1
    13    15    16    1
    14    15    17    1
    15    15    18    1
    16     6     7   ar
    17     7     8   ar
    18     8     9   ar
    19     9    10   ar
    20    20    22    1
    21    22    23    1
    22    23    24    1
    23    24    25    1
    24    25    26    1
    25    26    27    1
    26    10     1   ar
    27    27    22    1
    28    10     5   ar
    29    19    21    1
    30    27    28    1
@<TRIPOS>MOLECULE
*****
 28 30 0 0 0
SMALL
GASTEIGER

@<TRIPOS>ATOM
      1 C          -8.0429  -17.3989   22.3506 C.ar    1  UNL1        0.0084
      2 C          -8.5367  -18.2959   21.2545 C.ar    1  UNL1        0.0212
      3 C          -7.5793  -19.2012   20.5376 C.ar    1  UNL1        0.1523
      4 N          -6.1281  -19.2094   20.9169 N.ar    1  UNL1       -0.2414
      5 C          -5.6342  -18.3123   22.0130 C.ar    1  UNL1        0.0848
      6 C          -4.1830  -18.3206   22.3922 C.ar    1  UNL1        0.0890
      7 C          -3.6892  -17.4236   23.4883 C.ar    1  UNL1        0.0054
      8 C          -4.6466  -16.5183   24.2052 C.ar    1  UNL1        0.0000
      9 C          -6.0978  -16.5101   23.8260 C.ar    1  UNL1        0.0012
     10 C          -6.5916  -17.4071   22.7299 C.ar    1  UNL1        0.0160
     11 C          -8.0732  -20.0982   19.4415 C.3     1  UNL1        0.4348
     12 F          -8.5670  -20.9952   18.3454 F       1  UNL1       -0.1644
     13 F          -9.2322  -19.1751   19.2082 F       1  UNL1       -0.1644
     14 F          -6.9141  -21.0213   19.6747 F       1  UNL1       -0.1644
     15 C          -3.2256  -19.2258   21.6754 C.3     1  UNL1        0.4200
     16 F          -2.2682  -20.1311   20.9585 F       1  UNL1       -0.1658
     17 F          -2.8584  -18.1043   20.7495 F       1  UNL1       -0.1658
     18 F          -3.5928  -20.3474   22.6012 F       1  UNL1       -0.1658
     19 O          -8.5170  -15.1953   23.6427 O.3     1  UNL1       -0.3787
     20 C          -9.0003  -16.4937   23.0674 C.3     1  UNL1        0.1470
     21 H          -7.5687  -15.0957   23.4645 H       1  UNL1        0.2108
     22 C         -10.4409  -16.8867   23.2091 C.3     1  UNL1        0.0855
     23 C         -10.8169  -18.0652   24.0574 C.3     1  UNL1        0.0186
     24 C         -12.2576  -18.4583   24.1991 C.3     1  UNL1        0.0029
     25 C         -13.3222  -17.6728   23.4924 C.3     1  UNL1        0.0171
     26 C         -12.9463  -16.4942   22.6440 C.3     1  UNL1        0.0686
     27 N         -11.5057  -16.1012   22.5024 N.3     1  UNL1       -0.2963
     28 H         -11.4292  -15.1389   22.8319 H       1  UNL1        0.1233
@<TRIPOS>BOND
     1    20    19    1
     2    20     1    1
     3     1     2   ar
     4     2     3   ar
     5     3    11    1
     6    11    12    1
     7    11    13    1
     8    11    14    1
     9     3     4   ar
    10     4     5   ar
    11     5     6   ar
    12     6    15    1
    13    15    16    1
    14    15    17    1
    15    15    18    1
    16     6     7   ar
    17     7     8   ar
    18     8     9   ar
    19     9    10   ar
    20    20    22    1
    21    22    23    1
    22    23    24    1
    23    24    25    1
    24    25    26    1
    25    26    27    1
    26    10     1   ar
    27    27    22    1
    28    10     5   ar
    29    19    21    1
    30    27    28    1
@<TRIPOS>MOLECULE
*****
 28 30 0 0 0
SMALL
GASTEIGER

@<TRIPOS>ATOM
      1 C         -13.3332   -4.6876   19.7065 C.ar    1  UNL1        0.0084
      2 C         -11.9640   -5.2173   19.3993 C.ar    1  UNL1        0.0212
      3 C         -11.8014   -6.6067   18.8577 C.ar    1  UNL1        0.1523
      4 N         -13.0080   -7.4663   18.6234 N.ar    1  UNL1       -0.2414
      5 C         -14.3774   -6.9365   18.9306 C.ar    1  UNL1        0.0848
      6 C         -15.5841   -7.7962   18.6963 C.ar    1  UNL1        0.0890
      7 C         -16.9534   -7.2664   19.0035 C.ar    1  UNL1        0.0054
      8 C         -17.1160   -5.8771   19.5450 C.ar    1  UNL1        0.0000
      9 C         -15.9093   -5.0175   19.7793 C.ar    1  UNL1        0.0012
     10 C         -14.5400   -5.5472   19.4721 C.ar    1  UNL1        0.0160
     11 C         -10.4320   -7.1364   18.5505 C.3     1  UNL1        0.4348
     12 F          -9.0627   -7.6660   18.2434 F       1  UNL1       -0.1644
     13 F         -11.0307   -8.1372   17.6072 F       1  UNL1       -0.1644
     14 F          -9.8333   -6.1356   19.4938 F       1  UNL1       -0.1644
     15 C         -15.4215   -9.1855   18.1547 C.3     1  UNL1        0.4200
     16 F         -15.2589  -10.5749   17.6132 F       1  UNL1       -0.1658
     17 F         -15.0955   -8.6208   16.8038 F       1  UNL1       -0.1658
     18 F         -15.7475   -9.7502   19.5056 F       1  UNL1       -0.1658
     19 O         -13.8726   -3.0928   21.6854 O.3     1  UNL1       -0.3787
     20 C         -13.4958   -3.2982   20.2480 C.3     1  UNL1        0.1470
     21 H         -13.9720   -3.9544   22.1199 H       1  UNL1        0.2108
     22 C         -13.2817   -2.1143   19.3523 C.3     1  UNL1        0.0855
     23 C         -11.8935   -1.7361   18.9281 C.3     1  UNL1        0.0186
     24 C         -11.6793   -0.5521   18.0323 C.3     1  UNL1        0.0029
     25 C         -12.8533    0.2537   17.5608 C.3     1  UNL1        0.0171
     26 C         -14.2415   -0.1245   17.9850 C.3     1  UNL1        0.0686
     27 N         -14.4557   -1.3084   18.8807 N.3     1  UNL1       -0.2963
     28 H         -15.0706   -1.9495   18.3794 H       1  UNL1        0.1233
@<TRIPOS>BOND
     1    20    19    1
     2    20     1    1
     3     1     2   ar
     4     2     3   ar
     5     3    11    1
     6    11    12    1
     7    11    13    1
     8    11    14    1
     9     3     4   ar
    10     4     5   ar
    11     5     6   ar
    12     6    15    1
    13    15    16    1
    14    15    17    1
    15    15    18    1
    16     6     7   ar
    17     7     8   ar
    18     8     9   ar
    19     9    10   ar
    20    20    22    1
    21    22    23    1
    22    23    24    1
    23    24    25    1
    24    25    26    1
    25    26    27    1
    26    10     1   ar
    27    27    22    1
    28    10     5   ar
    29    19    21    1
    30    27    28    1
@<TRIPOS>MOLECULE
*****
 28 30 0 0 0
SMALL
GASTEIGER

@<TRIPOS>ATOM
      1 C          -8.3462  -18.1141   22.2234 C.ar    1  UNL1        0.0084
      2 C          -9.7589  -18.5158   22.5283 C.ar    1  UNL1        0.0212
      3 C         -10.4230  -18.0292   23.7821 C.ar    1  UNL1        0.1523
      4 N          -9.6745  -17.1409   24.7311 N.ar    1  UNL1       -0.2414
      5 C          -8.2618  -16.7391   24.4262 C.ar    1  UNL1        0.0848
      6 C          -7.5133  -15.8508   25.3752 C.ar    1  UNL1        0.0890
      7 C          -6.1007  -15.4490   25.0703 C.ar    1  UNL1        0.0054
      8 C          -5.4365  -15.9356   23.8165 C.ar    1  UNL1        0.0000
      9 C          -6.1850  -16.8239   22.8675 C.ar    1  UNL1        0.0012
     10 C          -7.5977  -17.2257   23.1724 C.ar    1  UNL1        0.0160
     11 C         -11.8357  -18.4310   24.0869 C.3     1  UNL1        0.4348
     12 F         -13.2484  -18.8328   24.3918 F       1  UNL1       -0.1644
     13 F         -12.3384  -17.2356   23.3332 F       1  UNL1       -0.1644
     14 F         -11.3331  -19.6265   24.8407 F       1  UNL1       -0.1644
     15 C          -8.1775  -15.3642   26.6291 C.3     1  UNL1        0.4200
     16 F          -8.8417  -14.8776   27.8829 F       1  UNL1       -0.1658
     17 F          -9.1815  -14.6131   25.8058 F       1  UNL1       -0.1658
     18 F          -7.1735  -16.1153   27.4524 F       1  UNL1       -0.1658
     19 O          -8.4732  -18.7237   19.7010 O.3     1  UNL1       -0.3787
     20 C          -7.6821  -18.6006   20.9695 C.3     1  UNL1        0.1470
     21 H          -9.3897  -18.4510   19.8638 H       1  UNL1        0.2108
     22 C          -6.2269  -18.9641   20.9842 C.3     1  UNL1        0.0855
     23 C          -5.6618  -19.7506   22.1296 C.3     1  UNL1        0.0186
     24 C          -4.2065  -20.1141   22.1442 C.3     1  UNL1        0.0029
     25 C          -3.3164  -19.6911   21.0134 C.3     1  UNL1        0.0171
     26 C          -3.8815  -18.9046   19.8679 C.3     1  UNL1        0.0686
     27 N          -5.3367  -18.5411   19.8533 N.3     1  UNL1       -0.2963
     28 H          -5.7316  -18.9413   19.0022 H       1  UNL1        0.1233
@<TRIPOS>BOND
     1    20    19    1
     2    20     1    1
     3     1     2   ar
     4     2     3   ar
     5     3    11    1
     6    11    12    1
     7    11    13    1
     8    11    14    1
     9     3     4   ar
    10     4     5   ar
    11     5     6   ar
    12     6    15    1
    13    15    16    1
    14    15    17    1
    15    15    18    1
    16     6     7   ar
    17     7     8   ar
    18     8     9   ar
    19     9    10   ar
    20    20    22    1
    21    22    23    1
    22    23    24    1
    23    24    25    1
    24    25    26    1
    25    26    27    1
    26    10     1   ar
    27    27    22    1
    28    10     5   ar
    29    19    21    1
    30    27    28    1
