@<TRIPOS>MOLECULE
*****
 21 23 0 0 0
SMALL
GASTEIGER

@<TRIPOS>ATOM
      1 C          -6.7012  -19.1130   20.5662 C.ar    1  UNL1        0.0501
      2 C          -7.4408  -19.5043   19.3212 C.ar    1  UNL1        0.1059
      3 N          -8.9074  -19.3205   19.5761 N.ar    1  UNL1       -0.2368
      4 C          -9.0744  -18.8155   20.9787 C.ar    1  UNL1        0.1108
      5 S          -7.7109  -18.6873   21.5906 S.2     1  UNL1       -0.0664
      6 O          -1.9097  -18.5891   18.6252 O.3     1  UNL1       -0.5055
      7 C          -2.8175  -18.8803   19.7833 C.ar    1  UNL1        0.1337
      8 C          -2.2374  -19.2007   21.1289 C.ar    1  UNL1        0.0366
      9 C          -3.1452  -19.4918   22.2870 C.ar    1  UNL1        0.0031
     10 C          -4.6331  -19.4626   22.0994 C.ar    1  UNL1        0.0007
     11 C          -5.2132  -19.1422   20.7538 C.ar    1  UNL1        0.0106
     12 C          -4.3054  -18.8511   19.5957 C.ar    1  UNL1        0.0372
     13 H          -0.9803  -18.6074   18.7424 H       1  UNL1        0.2922
     14 C         -10.3763  -18.4951   21.6513 C.ar    1  UNL1        0.0268
     15 C         -11.4714  -17.8181   20.8817 C.ar    1  UNL1        0.0022
     16 C         -12.7733  -17.4977   21.5543 C.ar    1  UNL1        0.0032
     17 C         -12.9800  -17.8542   22.9965 C.ar    1  UNL1        0.0366
     18 C         -11.8849  -18.5312   23.7662 C.ar    1  UNL1        0.1337
     19 O         -12.0917  -18.8877   25.2085 O.3     1  UNL1       -0.5055
     20 C         -10.5831  -18.8516   23.0936 C.ar    1  UNL1        0.0386
     21 H         -12.9049  -18.6875   25.6286 H       1  UNL1        0.2922
@<TRIPOS>BOND
     1     6     7    1
     2     7     8   ar
     3     8     9   ar
     4     9    10   ar
     5    10    11   ar
     6    11     1    1
     7     1     2   ar
     8     2     3   ar
     9     3     4   ar
    10     4    14    1
    11    14    15   ar
    12    15    16   ar
    13    16    17   ar
    14    17    18   ar
    15    18    19    1
    16    18    20   ar
    17     4     5   ar
    18    11    12   ar
    19    12     7   ar
    20     5     1   ar
    21    20    14   ar
    22     6    13    1
    23    19    21    1
@<TRIPOS>MOLECULE
*****
 21 23 0 0 0
SMALL
GASTEIGER

@<TRIPOS>ATOM
      1 C          -9.0373  -18.8731   20.9882 C.ar    1  UNL1        0.0501
      2 C          -8.8746  -19.5053   19.6376 C.ar    1  UNL1        0.1059
      3 N          -7.4075  -19.6910   19.3865 N.ar    1  UNL1       -0.2368
      4 C          -6.6635  -19.1735   20.5819 C.ar    1  UNL1        0.1108
      5 S          -7.6708  -18.6681   21.5717 S.2     1  UNL1       -0.0664
      6 O         -12.1206  -18.8447   25.1706 O.3     1  UNL1       -0.5055
      7 C         -11.8798  -18.4955   23.7318 C.ar    1  UNL1        0.1337
      8 C         -12.9400  -17.7831   22.9454 C.ar    1  UNL1        0.0366
      9 C         -12.6993  -17.4340   21.5066 C.ar    1  UNL1        0.0031
     10 C         -11.3984  -17.7973   20.8542 C.ar    1  UNL1        0.0007
     11 C         -10.3383  -18.5097   21.6406 C.ar    1  UNL1        0.0106
     12 C         -10.5790  -18.8589   23.0794 C.ar    1  UNL1        0.0372
     13 H         -12.9332  -18.6177   25.5782 H       1  UNL1        0.2922
     14 C          -5.1737  -19.1634   20.7567 C.ar    1  UNL1        0.0268
     15 C          -4.5735  -19.4752   22.0955 C.ar    1  UNL1        0.0022
     16 C          -3.0837  -19.4650   22.2703 C.ar    1  UNL1        0.0032
     17 C          -2.1943  -19.1431   21.1062 C.ar    1  UNL1        0.0366
     18 C          -2.7945  -18.8313   19.7673 C.ar    1  UNL1        0.1337
     19 O          -1.9049  -18.5093   18.6032 O.3     1  UNL1       -0.5055
     20 C          -4.2842  -18.8414   19.5926 C.ar    1  UNL1        0.0386
     21 H          -0.9743  -18.5030   18.7124 H       1  UNL1        0.2922
@<TRIPOS>BOND
     1     6     7    1
     2     7     8   ar
     3     8     9   ar
     4     9    10   ar
     5    10    11   ar
     6    11     1    1
     7     1     2   ar
     8     2     3   ar
     9     3     4   ar
    10     4    14    1
    11    14    15   ar
    12    15    16   ar
    13    16    17   ar
    14    17    18   ar
    15    18    19    1
    16    18    20   ar
    17     4     5   ar
    18    11    12   ar
    19    12     7   ar
    20     5     1   ar
    21    20    14   ar
    22     6    13    1
    23    19    21    1
@<TRIPOS>MOLECULE
*****
 21 23 0 0 0
SMALL
GASTEIGER

@<TRIPOS>ATOM
      1 C          -6.5180  -18.2100   22.3752 C.ar    1  UNL1        0.0501
      2 C          -6.5702  -17.0289   23.2985 C.ar    1  UNL1        0.1059
      3 N          -8.0105  -16.7436   23.6052 N.ar    1  UNL1       -0.2368
      4 C          -8.8485  -17.7483   22.8715 C.ar    1  UNL1        0.1108
      5 S          -7.9261  -18.6546   22.1113 S.2     1  UNL1       -0.0664
      6 O          -1.3431  -18.6767   22.3227 O.3     1  UNL1       -0.5055
      7 C          -2.6884  -19.0697   21.7881 C.ar    1  UNL1        0.1337
      8 C          -2.7914  -20.0892   20.6926 C.ar    1  UNL1        0.0366
      9 C          -4.1367  -20.4822   20.1580 C.ar    1  UNL1        0.0031
     10 C          -5.3789  -19.8558   20.7188 C.ar    1  UNL1        0.0007
     11 C          -5.2758  -18.8364   21.8143 C.ar    1  UNL1        0.0106
     12 C          -3.9305  -18.4434   22.3489 C.ar    1  UNL1        0.0372
     13 H          -0.5672  -19.0680   21.9723 H       1  UNL1        0.2922
     14 C         -10.3460  -17.8321   22.8940 C.ar    1  UNL1        0.0268
     15 C         -11.1340  -17.5067   21.6598 C.ar    1  UNL1        0.0022
     16 C         -12.6315  -17.5905   21.6823 C.ar    1  UNL1        0.0032
     17 C         -13.3409  -17.9996   22.9390 C.ar    1  UNL1        0.0366
     18 C         -12.5529  -18.3250   24.1732 C.ar    1  UNL1        0.1337
     19 O         -13.2624  -18.7341   25.4299 O.3     1  UNL1       -0.5055
     20 C         -11.0555  -18.2412   24.1506 C.ar    1  UNL1        0.0386
     21 H         -14.1978  -18.7864   25.4439 H       1  UNL1        0.2922
@<TRIPOS>BOND
     1     6     7    1
     2     7     8   ar
     3     8     9   ar
     4     9    10   ar
     5    10    11   ar
     6    11     1    1
     7     1     2   ar
     8     2     3   ar
     9     3     4   ar
    10     4    14    1
    11    14    15   ar
    12    15    16   ar
    13    16    17   ar
    14    17    18   ar
    15    18    19    1
    16    18    20   ar
    17     4     5   ar
    18    11    12   ar
    19    12     7   ar
    20     5     1   ar
    21    20    14   ar
    22     6    13    1
    23    19    21    1
@<TRIPOS>MOLECULE
*****
 21 23 0 0 0
SMALL
GASTEIGER

@<TRIPOS>ATOM
      1 C          -9.3594  -18.8367   21.1283 C.ar    1  UNL1        0.0501
      2 C          -9.1611  -19.2454   19.6987 C.ar    1  UNL1        0.1059
      3 N          -7.6961  -19.4850   19.4840 N.ar    1  UNL1       -0.2368
      4 C          -6.9888  -19.2245   20.7809 C.ar    1  UNL1        0.1108
      5 S          -8.0169  -18.8238   21.7971 S.2     1  UNL1       -0.0664
      6 O         -12.4434  -18.8319   25.3103 O.3     1  UNL1       -0.5055
      7 C         -12.2121  -18.4977   23.8664 C.ar    1  UNL1        0.1337
      8 C         -13.2915  -17.8269   23.0696 C.ar    1  UNL1        0.0366
      9 C         -13.0602  -17.4927   21.6257 C.ar    1  UNL1        0.0031
     10 C         -11.7495  -17.8293   20.9786 C.ar    1  UNL1        0.0007
     11 C         -10.6702  -18.5001   21.7754 C.ar    1  UNL1        0.0106
     12 C         -10.9014  -18.8343   23.2193 C.ar    1  UNL1        0.0372
     13 H         -13.2621  -18.6216   25.7145 H       1  UNL1        0.2922
     14 C          -5.5128  -19.3437   21.0197 C.ar    1  UNL1        0.0268
     15 C          -4.6747  -20.2037   20.1209 C.ar    1  UNL1        0.0022
     16 C          -3.1986  -20.3229   20.3597 C.ar    1  UNL1        0.0032
     17 C          -2.5607  -19.5820   21.4972 C.ar    1  UNL1        0.0366
     18 C          -3.3988  -18.7219   22.3961 C.ar    1  UNL1        0.1337
     19 O          -2.7608  -17.9810   23.5336 O.3     1  UNL1       -0.5055
     20 C          -4.8748  -18.6028   22.1573 C.ar    1  UNL1        0.0386
     21 H          -1.8387  -18.0555   23.6828 H       1  UNL1        0.2922
@<TRIPOS>BOND
     1     6     7    1
     2     7     8   ar
     3     8     9   ar
     4     9    10   ar
     5    10    11   ar
     6    11     1    1
     7     1     2   ar
     8     2     3   ar
     9     3     4   ar
    10     4    14    1
    11    14    15   ar
    12    15    16   ar
    13    16    17   ar
    14    17    18   ar
    15    18    19    1
    16    18    20   ar
    17     4     5   ar
    18    11    12   ar
    19    12     7   ar
    20     5     1   ar
    21    20    14   ar
    22     6    13    1
    23    19    21    1
@<TRIPOS>MOLECULE
*****
 21 23 0 0 0
SMALL
GASTEIGER

@<TRIPOS>ATOM
      1 C          -6.2916  -18.1232   22.3769 C.ar    1  UNL1        0.0501
      2 C          -6.3419  -17.0222   23.3944 C.ar    1  UNL1        0.1059
      3 N          -7.7827  -16.6899   23.6469 N.ar    1  UNL1       -0.2368
      4 C          -8.6228  -17.5855   22.7854 C.ar    1  UNL1        0.1108
      5 S          -7.7012  -18.4713   22.0005 S.2     1  UNL1       -0.0664
      6 O          -1.1200  -18.6283   22.3703 O.3     1  UNL1       -0.5055
      7 C          -2.4638  -19.0162   21.8283 C.ar    1  UNL1        0.1337
      8 C          -2.5657  -20.0445   20.7409 C.ar    1  UNL1        0.0366
      9 C          -3.9095  -20.4323   20.1989 C.ar    1  UNL1        0.0031
     10 C          -5.1514  -19.7919   20.7442 C.ar    1  UNL1        0.0007
     11 C          -5.0496  -18.7637   21.8315 C.ar    1  UNL1        0.0106
     12 C          -3.7058  -18.3758   22.3735 C.ar    1  UNL1        0.0372
     13 H          -0.3442  -19.0284   22.0296 H       1  UNL1        0.2922
     14 C         -10.1214  -17.5938   22.7202 C.ar    1  UNL1        0.0268
     15 C         -10.9165  -18.2302   23.8215 C.ar    1  UNL1        0.0022
     16 C         -12.4150  -18.2385   23.7563 C.ar    1  UNL1        0.0032
     17 C         -13.1184  -17.6104   22.5899 C.ar    1  UNL1        0.0366
     18 C         -12.3233  -16.9739   21.4886 C.ar    1  UNL1        0.1337
     19 O         -13.0268  -16.3458   20.3221 O.3     1  UNL1       -0.5055
     20 C         -10.8249  -16.9657   21.5538 C.ar    1  UNL1        0.0386
     21 H         -13.9629  -16.3510   20.2814 H       1  UNL1        0.2922
@<TRIPOS>BOND
     1     6     7    1
     2     7     8   ar
     3     8     9   ar
     4     9    10   ar
     5    10    11   ar
     6    11     1    1
     7     1     2   ar
     8     2     3   ar
     9     3     4   ar
    10     4    14    1
    11    14    15   ar
    12    15    16   ar
    13    16    17   ar
    14    17    18   ar
    15    18    19    1
    16    18    20   ar
    17     4     5   ar
    18    11    12   ar
    19    12     7   ar
    20     5     1   ar
    21    20    14   ar
    22     6    13    1
    23    19    21    1
@<TRIPOS>MOLECULE
*****
 21 23 0 0 0
SMALL
GASTEIGER

@<TRIPOS>ATOM
      1 C          -8.7784  -18.9978   20.8089 C.ar    1  UNL1        0.0501
      2 C          -8.5684  -19.9688   19.6850 C.ar    1  UNL1        0.1059
      3 N          -7.0912  -20.1589   19.5065 N.ar    1  UNL1       -0.2368
      4 C          -6.3883  -19.3053   20.5201 C.ar    1  UNL1        0.1108
      5 S          -7.4310  -18.5878   21.3250 S.2     1  UNL1       -0.0664
      6 O         -13.0625  -16.1155   20.2271 O.3     1  UNL1       -0.5055
      7 C         -12.2452  -17.0795   21.0350 C.ar    1  UNL1        0.1337
      8 C         -12.7527  -17.5664   22.3599 C.ar    1  UNL1        0.0366
      9 C         -11.9354  -18.5304   23.1678 C.ar    1  UNL1        0.0031
     10 C         -10.6107  -19.0076   22.6508 C.ar    1  UNL1        0.0007
     11 C         -10.1032  -18.5207   21.3260 C.ar    1  UNL1        0.0106
     12 C         -10.9205  -17.5567   20.5181 C.ar    1  UNL1        0.0372
     13 H         -13.8900  -15.8175   20.5500 H       1  UNL1        0.2922
     14 C          -4.9033  -19.1896   20.6976 C.ar    1  UNL1        0.0268
     15 C          -4.2892  -19.4172   22.0470 C.ar    1  UNL1        0.0022
     16 C          -2.8043  -19.3015   22.2245 C.ar    1  UNL1        0.0032
     17 C          -1.9334  -18.9582   21.0525 C.ar    1  UNL1        0.0366
     18 C          -2.5475  -18.7306   19.7029 C.ar    1  UNL1        0.1337
     19 O          -1.6765  -18.3874   18.5309 O.3     1  UNL1       -0.5055
     20 C          -4.0323  -18.8463   19.5255 C.ar    1  UNL1        0.0386
     21 H          -0.7489  -18.3151   18.6418 H       1  UNL1        0.2922
@<TRIPOS>BOND
     1     6     7    1
     2     7     8   ar
     3     8     9   ar
     4     9    10   ar
     5    10    11   ar
     6    11     1    1
     7     1     2   ar
     8     2     3   ar
     9     3     4   ar
    10     4    14    1
    11    14    15   ar
    12    15    16   ar
    13    16    17   ar
    14    17    18   ar
    15    18    19    1
    16    18    20   ar
    17     4     5   ar
    18    11    12   ar
    19    12     7   ar
    20     5     1   ar
    21    20    14   ar
    22     6    13    1
    23    19    21    1
@<TRIPOS>MOLECULE
*****
 21 23 0 0 0
SMALL
GASTEIGER

@<TRIPOS>ATOM
      1 C          -6.3395  -19.2250   21.7249 C.ar    1  UNL1        0.0501
      2 C          -6.7671  -20.4783   22.4295 C.ar    1  UNL1        0.1059
      3 N          -8.2299  -20.3599   22.7393 N.ar    1  UNL1       -0.2368
      4 C          -8.7064  -19.0333   22.2262 C.ar    1  UNL1        0.1108
      5 S          -7.5381  -18.3320   21.5993 S.2     1  UNL1       -0.0664
      6 O          -1.6780  -17.0517   22.4646 O.3     1  UNL1       -0.5055
      7 C          -2.6254  -17.8319   21.6023 C.ar    1  UNL1        0.1337
      8 C          -2.1895  -18.3058   20.2476 C.ar    1  UNL1        0.0366
      9 C          -3.1369  -19.0861   19.3852 C.ar    1  UNL1        0.0031
     10 C          -4.5202  -19.3925   19.8777 C.ar    1  UNL1        0.0007
     11 C          -4.9561  -18.9186   21.2324 C.ar    1  UNL1        0.0106
     12 C          -4.0087  -18.1383   22.0947 C.ar    1  UNL1        0.0372
     13 H          -0.8139  -16.8603   22.1570 H       1  UNL1        0.2922
     14 C         -10.1057  -18.5014   22.3230 C.ar    1  UNL1        0.0268
     15 C         -10.9386  -18.7981   23.5348 C.ar    1  UNL1        0.0022
     16 C         -12.3378  -18.2662   23.6316 C.ar    1  UNL1        0.0032
     17 C         -12.9040  -17.4378   22.5167 C.ar    1  UNL1        0.0366
     18 C         -12.0711  -17.1412   21.3050 C.ar    1  UNL1        0.1337
     19 O         -12.6374  -16.3127   20.1901 O.3     1  UNL1       -0.5055
     20 C         -10.6720  -17.6730   21.2082 C.ar    1  UNL1        0.0386
     21 H         -13.5115  -15.9805   20.2506 H       1  UNL1        0.2922
@<TRIPOS>BOND
     1     6     7    1
     2     7     8   ar
     3     8     9   ar
     4     9    10   ar
     5    10    11   ar
     6    11     1    1
     7     1     2   ar
     8     2     3   ar
     9     3     4   ar
    10     4    14    1
    11    14    15   ar
    12    15    16   ar
    13    16    17   ar
    14    17    18   ar
    15    18    19    1
    16    18    20   ar
    17     4     5   ar
    18    11    12   ar
    19    12     7   ar
    20     5     1   ar
    21    20    14   ar
    22     6    13    1
    23    19    21    1
@<TRIPOS>MOLECULE
*****
 21 23 0 0 0
SMALL
GASTEIGER

@<TRIPOS>ATOM
      1 C          -7.1585  -19.8957   21.3301 C.ar    1  UNL1        0.0501
      2 C          -6.6207  -21.0983   20.6128 C.ar    1  UNL1        0.1059
      3 N          -5.2258  -20.7828   20.1602 N.ar    1  UNL1       -0.2368
      4 C          -4.9015  -19.3851   20.5979 C.ar    1  UNL1        0.1108
      5 S          -6.0960  -18.8369   21.3209 S.2     1  UNL1       -0.0664
      6 O         -10.2720  -20.2872   25.4717 O.3     1  UNL1       -0.5055
      7 C         -10.0765  -19.9691   24.0189 C.ar    1  UNL1        0.1337
      8 C         -11.2423  -19.5288   23.1841 C.ar    1  UNL1        0.0366
      9 C         -11.0469  -19.2107   21.7313 C.ar    1  UNL1        0.0031
     10 C          -9.6856  -19.3330   21.1133 C.ar    1  UNL1        0.0007
     11 C          -8.5198  -19.7733   21.9481 C.ar    1  UNL1        0.0106
     12 C          -8.7153  -20.0914   23.4009 C.ar    1  UNL1        0.0372
     13 H         -11.1223  -20.2108   25.8577 H       1  UNL1        0.2922
     14 C          -3.6096  -18.6626   20.3552 C.ar    1  UNL1        0.0268
     15 C          -2.8001  -18.9648   19.1291 C.ar    1  UNL1        0.0022
     16 C          -1.5082  -18.2423   18.8863 C.ar    1  UNL1        0.0032
     17 C          -1.0258  -17.2175   19.8697 C.ar    1  UNL1        0.0366
     18 C          -1.8353  -16.9152   21.0959 C.ar    1  UNL1        0.1337
     19 O          -1.3529  -15.8904   22.0793 O.3     1  UNL1       -0.5055
     20 C          -3.1272  -17.6378   21.3385 C.ar    1  UNL1        0.0386
     21 H          -0.5459  -15.4391   21.9276 H       1  UNL1        0.2922
@<TRIPOS>BOND
     1     6     7    1
     2     7     8   ar
     3     8     9   ar
     4     9    10   ar
     5    10    11   ar
     6    11     1    1
     7     1     2   ar
     8     2     3   ar
     9     3     4   ar
    10     4    14    1
    11    14    15   ar
    12    15    16   ar
    13    16    17   ar
    14    17    18   ar
    15    18    19    1
    16    18    20   ar
    17     4     5   ar
    18    11    12   ar
    19    12     7   ar
    20     5     1   ar
    21    20    14   ar
    22     6    13    1
    23    19    21    1
@<TRIPOS>MOLECULE
*****
 21 23 0 0 0
SMALL
GASTEIGER

@<TRIPOS>ATOM
      1 C           4.3050   -2.4271   20.1849 C.ar    1  UNL1        0.0501
      2 C           4.9128   -3.5518   19.4002 C.ar    1  UNL1        0.1059
      3 N           5.8372   -4.3053   20.3099 N.ar    1  UNL1       -0.2368
      4 C           5.8008   -3.6462   21.6570 C.ar    1  UNL1        0.1108
      5 S           4.8539   -2.4855   21.5796 S.2     1  UNL1       -0.0664
      6 O          -0.2947   -0.0356   20.5357 O.3     1  UNL1       -0.5055
      7 C           1.0213   -0.2250   19.8413 C.ar    1  UNL1        0.1337
      8 C           1.3536    0.5920   18.6280 C.ar    1  UNL1        0.0366
      9 C           2.6696    0.4026   17.9336 C.ar    1  UNL1        0.0031
     10 C           3.6534   -0.6038   18.4526 C.ar    1  UNL1        0.0007
     11 C           3.3212   -1.4207   19.6659 C.ar    1  UNL1        0.0106
     12 C           2.0052   -1.2313   20.3603 C.ar    1  UNL1        0.0372
     13 H          -0.9093    0.5930   20.2115 H       1  UNL1        0.2922
     14 C           6.5753   -4.0730   22.8686 C.ar    1  UNL1        0.0268
     15 C           7.8995   -4.7594   22.7088 C.ar    1  UNL1        0.0022
     16 C           8.6740   -5.1862   23.9204 C.ar    1  UNL1        0.0032
     17 C           8.1244   -4.9266   25.2917 C.ar    1  UNL1        0.0366
     18 C           6.8002   -4.2402   25.4514 C.ar    1  UNL1        0.1337
     19 O           6.2506   -3.9807   26.8228 O.3     1  UNL1       -0.5055
     20 C           6.0257   -3.8135   24.2399 C.ar    1  UNL1        0.0386
     21 H           6.7344   -4.2473   27.5796 H       1  UNL1        0.2922
@<TRIPOS>BOND
     1     6     7    1
     2     7     8   ar
     3     8     9   ar
     4     9    10   ar
     5    10    11   ar
     6    11     1    1
     7     1     2   ar
     8     2     3   ar
     9     3     4   ar
    10     4    14    1
    11    14    15   ar
    12    15    16   ar
    13    16    17   ar
    14    17    18   ar
    15    18    19    1
    16    18    20   ar
    17     4     5   ar
    18    11    12   ar
    19    12     7   ar
    20     5     1   ar
    21    20    14   ar
    22     6    13    1
    23    19    21    1
