@<TRIPOS>MOLECULE
*****
 41 46 0 0 0
SMALL
GASTEIGER

@<TRIPOS>ATOM
      1 N           3.5145    1.5380   35.4125 N.3     1  UNL1       -0.2676
      2 C           4.2128    0.5043   34.5796 C.3     1  UNL1        0.0746
      3 C           3.8080    0.2938   33.1507 C.3     1  UNL1        0.0449
      4 C           2.7049    1.1171   32.5547 C.3     1  UNL1        0.1391
      5 C           2.0066    2.1508   33.3875 C.3     1  UNL1        0.0449
      6 C           2.4113    2.3613   34.8164 C.3     1  UNL1        0.0746
      7 C           1.6255    1.8608   31.8254 C.2     1  UNL1        0.2529
      8 O           0.7614    2.9455   32.3969 O.2     1  UNL1       -0.2724
      9 N           1.5620    1.3293   30.4240 N.am    1  UNL1       -0.1907
     10 C           2.6021    0.2571   30.2873 C.2     1  UNL1        0.3220
     11 O           2.8860   -0.5433   29.0510 O.2     1  UNL1       -0.2512
     12 N           3.3084    0.1260   31.6041 N.am    1  UNL1       -0.2212
     13 C           0.6231    1.7892   29.3484 C.ar    1  UNL1        0.0622
     14 C           0.7066    3.1944   28.8305 C.ar    1  UNL1        0.0154
     15 C          -0.2322    3.6544   27.7549 C.ar    1  UNL1        0.0013
     16 C          -1.2545    2.7091   27.1970 C.ar    1  UNL1        0.0001
     17 C          -1.3380    1.3038   27.7149 C.ar    1  UNL1        0.0013
     18 C          -0.3991    0.8438   28.7906 C.ar    1  UNL1        0.0154
     19 C          -2.1933    3.1690   26.1214 C.ar    1  UNL1        0.0000
     20 C          -1.7349    3.2117   24.6937 C.ar    1  UNL1        0.0000
     21 C          -2.6737    3.6716   23.6181 C.ar    1  UNL1        0.0011
     22 C          -4.0710    4.0889   23.9700 C.ar    1  UNL1        0.0140
     23 C          -4.5293    4.0462   25.3976 C.ar    1  UNL1        0.0011
     24 C          -3.5904    3.5862   26.4733 C.ar    1  UNL1        0.0000
     25 C          -5.0098    4.5488   22.8943 C.2     1  UNL1        0.0729
     26 O          -6.4779    4.2628   23.0076 O.co2   1  UNL1       -0.5446
     27 O          -4.4805    5.2947   21.7054 O.co2   1  UNL1       -0.5446
     28 C           4.4227   -0.8286   31.9157 C.ar    1  UNL1        0.1583
     29 C           5.8400   -0.4579   31.5938 C.ar    1  UNL1        0.1335
     30 N           6.9542   -1.4126   31.9054 N.ar    1  UNL1       -0.2378
     31 C           6.6512   -2.7380   32.5390 C.ar    1  UNL1        0.1196
     32 C           5.2338   -3.1088   32.8608 C.ar    1  UNL1        0.1210
     33 N           4.1196   -2.1541   32.5492 N.ar    1  UNL1       -0.2255
     34 C           3.9192    1.7485   36.8415 C.3     1  UNL1        0.1183
     35 C           2.7749    4.2560   38.0260 C.3     1  UNL1        0.0323
     36 C           2.3209    2.9160   38.5244 C.ar    1  UNL1       -0.0069
     37 C           1.2948    2.8298   39.6150 C.ar    1  UNL1       -0.0015
     38 C           0.8408    1.4899   40.1135 C.ar    1  UNL1        0.0203
     39 C           1.4129    0.2362   39.5212 C.ar    1  UNL1        0.0985
     40 N           2.4391    0.3223   38.4305 N.ar    1  UNL1       -0.2471
     41 C           2.8931    1.6623   37.9321 C.ar    1  UNL1        0.0712
@<TRIPOS>UNITY_ATOM_ATTR
26 1
charge -1
@<TRIPOS>BOND
     1    35    36    1
     2    36    37   ar
     3    37    38   ar
     4    38    39   ar
     5    39    40   ar
     6    40    41   ar
     7    41    34    1
     8    34     1    1
     9     1     2    1
    10     2     3    1
    11     3     4    1
    12     4     5    1
    13     5     6    1
    14     4     7    1
    15     7     8    2
    16     7     9   am
    17     9    13    1
    18    13    14   ar
    19    14    15   ar
    20    15    16   ar
    21    16    19    1
    22    19    20   ar
    23    20    21   ar
    24    21    22   ar
    25    22    25    1
    26    25    26   ar
    27    25    27   ar
    28    22    23   ar
    29    23    24   ar
    30    16    17   ar
    31    17    18   ar
    32     9    10   am
    33    10    11    2
    34    10    12   am
    35    12    28    1
    36    28    29   ar
    37    29    30   ar
    38    30    31   ar
    39    31    32   ar
    40    32    33   ar
    41    41    36   ar
    42     6     1    1
    43    18    13   ar
    44    33    28   ar
    45    12     4    1
    46    24    19   ar
@<TRIPOS>MOLECULE
*****
 41 46 0 0 0
SMALL
GASTEIGER

@<TRIPOS>ATOM
      1 N           2.7162    2.7756   35.0886 N.3     1  UNL1       -0.2676
      2 C           3.4735    1.6294   34.4864 C.3     1  UNL1        0.0746
      3 C           3.2255    1.2330   33.0611 C.3     1  UNL1        0.0449
      4 C           2.2203    1.9828   32.2381 C.3     1  UNL1        0.1391
      5 C           1.4631    3.1290   32.8403 C.3     1  UNL1        0.0449
      6 C           1.7110    3.5254   34.2656 C.3     1  UNL1        0.0746
      7 C           1.2513    2.6354   31.2972 C.2     1  UNL1        0.2529
      8 O           0.3602    3.7990   31.6165 O.2     1  UNL1       -0.2724
      9 N           1.3300    1.9201   29.9810 N.am    1  UNL1       -0.1907
     10 C           2.3476    0.8254   30.1085 C.2     1  UNL1        0.3220
     11 O           2.7451   -0.1387   29.0304 O.2     1  UNL1       -0.2512
     12 N           2.8978    0.8642   31.5034 N.am    1  UNL1       -0.2212
     13 C           0.5313    2.2428   28.7531 C.ar    1  UNL1        0.0622
     14 C           0.4292    3.6612   28.2761 C.ar    1  UNL1        0.0154
     15 C          -0.3695    3.9839   27.0482 C.ar    1  UNL1        0.0013
     16 C          -1.0661    2.8883   26.2972 C.ar    1  UNL1        0.0001
     17 C          -0.9640    1.4698   26.7741 C.ar    1  UNL1        0.0013
     18 C          -0.1653    1.1470   28.0021 C.ar    1  UNL1        0.0154
     19 C          -1.8648    3.2110   25.0692 C.ar    1  UNL1        0.0000
     20 C          -1.1923    3.2633   23.7294 C.ar    1  UNL1        0.0000
     21 C          -1.9910    3.5860   22.5014 C.ar    1  UNL1        0.0011
     22 C          -3.4622    3.8564   22.6132 C.ar    1  UNL1        0.0140
     23 C          -4.1347    3.8041   23.9530 C.ar    1  UNL1        0.0011
     24 C          -3.3359    3.4814   25.1810 C.ar    1  UNL1        0.0000
     25 C          -4.2609    4.1792   21.3853 C.2     1  UNL1        0.0729
     26 O          -5.1557    5.3830   21.3675 O.co2   1  UNL1       -0.5446
     27 O          -4.1649    3.2981   20.1751 O.co2   1  UNL1       -0.5446
     28 C           3.9422   -0.0544   32.0651 C.ar    1  UNL1        0.1583
     29 C           5.3928    0.3175   31.9791 C.ar    1  UNL1        0.1335
     30 N           6.4371   -0.6011   32.5408 N.ar    1  UNL1       -0.2378
     31 C           6.0309   -1.8917   33.1885 C.ar    1  UNL1        0.1196
     32 C           4.5803   -2.2636   33.2745 C.ar    1  UNL1        0.1210
     33 N           3.5360   -1.3449   32.7128 N.ar    1  UNL1       -0.2255
     34 C           2.9641    3.1720   36.5139 C.3     1  UNL1        0.1183
     35 C           3.9775    0.6184   37.7189 C.3     1  UNL1        0.0323
     36 C           2.7054    1.2326   38.2232 C.ar    1  UNL1       -0.0069
     37 C           1.9399    0.5700   39.3300 C.ar    1  UNL1       -0.0015
     38 C           0.6677    1.1842   39.8343 C.ar    1  UNL1        0.0203
     39 C           0.1610    2.4610   39.2318 C.ar    1  UNL1        0.0985
     40 N           0.9265    3.1237   38.1250 N.ar    1  UNL1       -0.2471
     41 C           2.1987    2.5094   37.6207 C.ar    1  UNL1        0.0712
@<TRIPOS>UNITY_ATOM_ATTR
26 1
charge -1
@<TRIPOS>BOND
     1    35    36    1
     2    36    37   ar
     3    37    38   ar
     4    38    39   ar
     5    39    40   ar
     6    40    41   ar
     7    41    34    1
     8    34     1    1
     9     1     2    1
    10     2     3    1
    11     3     4    1
    12     4     5    1
    13     5     6    1
    14     4     7    1
    15     7     8    2
    16     7     9   am
    17     9    13    1
    18    13    14   ar
    19    14    15   ar
    20    15    16   ar
    21    16    19    1
    22    19    20   ar
    23    20    21   ar
    24    21    22   ar
    25    22    25    1
    26    25    26   ar
    27    25    27   ar
    28    22    23   ar
    29    23    24   ar
    30    16    17   ar
    31    17    18   ar
    32     9    10   am
    33    10    11    2
    34    10    12   am
    35    12    28    1
    36    28    29   ar
    37    29    30   ar
    38    30    31   ar
    39    31    32   ar
    40    32    33   ar
    41    41    36   ar
    42     6     1    1
    43    18    13   ar
    44    33    28   ar
    45    12     4    1
    46    24    19   ar
@<TRIPOS>MOLECULE
*****
 41 46 0 0 0
SMALL
GASTEIGER

@<TRIPOS>ATOM
      1 N           2.8892    3.2224   35.2704 N.3     1  UNL1       -0.2676
      2 C           1.9274    4.1867   34.6420 C.3     1  UNL1        0.0746
      3 C           1.6261    4.0969   33.1754 C.3     1  UNL1        0.0449
      4 C           2.2865    3.0428   32.3372 C.3     1  UNL1        0.1391
      5 C           3.2483    2.0784   32.9656 C.3     1  UNL1        0.0449
      6 C           3.5497    2.1682   34.4322 C.3     1  UNL1        0.0746
      7 C           2.8671    2.0472   31.3771 C.2     1  UNL1        0.2529
      8 O           3.8510    0.9666   31.7151 O.2     1  UNL1       -0.2724
      9 N           2.2911    2.3219   30.0195 N.am    1  UNL1       -0.1907
     10 C           1.3544    3.4873   30.1407 C.2     1  UNL1        0.3220
     11 O           0.5601    4.0997   29.0254 O.2     1  UNL1       -0.2512
     12 N           1.3516    3.9328   31.5730 N.am    1  UNL1       -0.2212
     13 C           2.5978    1.5643   28.7618 C.ar    1  UNL1        0.0622
     14 C           2.4156    0.0761   28.7194 C.ar    1  UNL1        0.0154
     15 C           2.7223   -0.6815   27.4617 C.ar    1  UNL1        0.0013
     16 C           3.2112    0.0491   26.2463 C.ar    1  UNL1        0.0001
     17 C           3.3934    1.5374   26.2887 C.ar    1  UNL1        0.0013
     18 C           3.0867    2.2950   27.5465 C.ar    1  UNL1        0.0154
     19 C           3.5179   -0.7086   24.9886 C.ar    1  UNL1        0.0000
     20 C           2.8118   -0.3600   23.7120 C.ar    1  UNL1        0.0000
     21 C           3.1185   -1.1176   22.4542 C.ar    1  UNL1        0.0011
     22 C           4.1314   -2.2239   22.4731 C.ar    1  UNL1        0.0140
     23 C           4.8375   -2.5725   23.7498 C.ar    1  UNL1        0.0011
     24 C           4.5308   -1.8148   25.0076 C.ar    1  UNL1        0.0000
     25 C           4.4381   -2.9815   21.2154 C.2     1  UNL1        0.0729
     26 O           4.0967   -2.3885   19.8805 O.co2   1  UNL1       -0.5446
     27 O           5.0862   -4.3321   21.2925 O.co2   1  UNL1       -0.5446
     28 C           0.5540    5.0689   32.1414 C.ar    1  UNL1        0.1583
     29 C           1.0663    6.4743   32.0306 C.ar    1  UNL1        0.1335
     30 N           0.2686    7.6103   32.5990 N.ar    1  UNL1       -0.2378
     31 C          -1.0414    7.3410   33.2784 C.ar    1  UNL1        0.1196
     32 C          -1.5536    5.9355   33.3893 C.ar    1  UNL1        0.1210
     33 N          -0.7559    4.7995   32.8208 N.ar    1  UNL1       -0.2255
     34 C           3.1906    3.3122   36.7372 C.3     1  UNL1        0.1183
     35 C           4.1311    0.6356   37.7126 C.3     1  UNL1        0.0323
     36 C           2.8337    1.2013   38.2092 C.ar    1  UNL1       -0.0069
     37 C           2.0065    0.4288   39.1935 C.ar    1  UNL1       -0.0015
     38 C           0.7091    0.9945   39.6901 C.ar    1  UNL1        0.0203
     39 C           0.2388    2.3327   39.2024 C.ar    1  UNL1        0.0985
     40 N           1.0660    3.1053   38.2181 N.ar    1  UNL1       -0.2471
     41 C           2.3634    2.5396   37.7215 C.ar    1  UNL1        0.0712
@<TRIPOS>UNITY_ATOM_ATTR
26 1
charge -1
@<TRIPOS>BOND
     1    35    36    1
     2    36    37   ar
     3    37    38   ar
     4    38    39   ar
     5    39    40   ar
     6    40    41   ar
     7    41    34    1
     8    34     1    1
     9     1     2    1
    10     2     3    1
    11     3     4    1
    12     4     5    1
    13     5     6    1
    14     4     7    1
    15     7     8    2
    16     7     9   am
    17     9    13    1
    18    13    14   ar
    19    14    15   ar
    20    15    16   ar
    21    16    19    1
    22    19    20   ar
    23    20    21   ar
    24    21    22   ar
    25    22    25    1
    26    25    26   ar
    27    25    27   ar
    28    22    23   ar
    29    23    24   ar
    30    16    17   ar
    31    17    18   ar
    32     9    10   am
    33    10    11    2
    34    10    12   am
    35    12    28    1
    36    28    29   ar
    37    29    30   ar
    38    30    31   ar
    39    31    32   ar
    40    32    33   ar
    41    41    36   ar
    42     6     1    1
    43    18    13   ar
    44    33    28   ar
    45    12     4    1
    46    24    19   ar
@<TRIPOS>MOLECULE
*****
 41 46 0 0 0
SMALL
GASTEIGER

@<TRIPOS>ATOM
      1 N           6.4931   -2.5895   24.1029 N.3     1  UNL1       -0.2676
      2 C           6.0570   -2.5409   22.6685 C.3     1  UNL1        0.0746
      3 C           4.8271   -1.7732   22.2841 C.3     1  UNL1        0.0449
      4 C           4.0331   -1.0541   23.3341 C.3     1  UNL1        0.1391
      5 C           4.4692   -1.1026   24.7685 C.3     1  UNL1        0.0449
      6 C           5.6991   -1.8703   25.1529 C.3     1  UNL1        0.0746
      7 C           3.1430   -0.2896   24.2686 C.2     1  UNL1        0.2529
      8 O           3.3265   -0.1586   25.7515 O.2     1  UNL1       -0.2724
      9 N           2.0370    0.3209   23.4597 N.am    1  UNL1       -0.1907
     10 C           2.2437   -0.0663   22.0253 C.2     1  UNL1        0.3220
     11 O           1.3701    0.3272   20.8712 O.2     1  UNL1       -0.2512
     12 N           3.4773   -0.9161   21.9477 N.am    1  UNL1       -0.2212
     13 C           0.9205    1.1696   23.9918 C.ar    1  UNL1        0.0622
     14 C           0.3325    2.2554   23.1403 C.ar    1  UNL1        0.0154
     15 C          -0.7840    3.1041   23.6724 C.ar    1  UNL1        0.0013
     16 C          -1.3126    2.8669   25.0559 C.ar    1  UNL1        0.0001
     17 C          -0.7245    1.7810   25.9075 C.ar    1  UNL1        0.0013
     18 C           0.3920    0.9324   25.3754 C.ar    1  UNL1        0.0154
     19 C          -2.4291    3.7156   25.5880 C.ar    1  UNL1        0.0000
     20 C          -2.1692    4.6831   26.7045 C.ar    1  UNL1        0.0000
     21 C          -3.2858    5.5317   27.2366 C.ar    1  UNL1        0.0011
     22 C          -4.6622    5.4129   26.6522 C.ar    1  UNL1        0.0140
     23 C          -4.9220    4.4455   25.5357 C.ar    1  UNL1        0.0011
     24 C          -3.8054    3.5968   25.0036 C.ar    1  UNL1        0.0000
     25 C          -5.7787    6.2616   27.1843 C.2     1  UNL1        0.0729
     26 O          -6.0915    7.5795   26.5399 O.co2   1  UNL1       -0.5446
     27 O          -6.5824    5.7923   28.3606 O.co2   1  UNL1       -0.5446
     28 C           4.0539   -1.5215   20.7024 C.ar    1  UNL1        0.1583
     29 C           5.0478   -0.7512   19.8846 C.ar    1  UNL1        0.1335
     30 N           5.6244   -1.3568   18.6393 N.ar    1  UNL1       -0.2378
     31 C           5.2071   -2.7327   18.2117 C.ar    1  UNL1        0.1196
     32 C           4.2133   -3.5030   19.0295 C.ar    1  UNL1        0.1210
     33 N           3.6367   -2.8975   20.2748 N.ar    1  UNL1       -0.2255
     34 C           7.7231   -3.3572   24.4874 C.3     1  UNL1        0.1183
     35 C           8.7942   -5.5656   22.7623 C.3     1  UNL1        0.0323
     36 C           8.1425   -5.8877   24.0744 C.ar    1  UNL1       -0.0069
     37 C           8.0264   -7.3140   24.5240 C.ar    1  UNL1       -0.0015
     38 C           7.3748   -7.6361   25.8361 C.ar    1  UNL1        0.0203
     39 C           6.8392   -6.5320   26.6986 C.ar    1  UNL1        0.0985
     40 N           6.9553   -5.1056   26.2490 N.ar    1  UNL1       -0.2471
     41 C           7.6070   -4.7835   24.9369 C.ar    1  UNL1        0.0712
@<TRIPOS>UNITY_ATOM_ATTR
26 1
charge -1
@<TRIPOS>BOND
     1    35    36    1
     2    36    37   ar
     3    37    38   ar
     4    38    39   ar
     5    39    40   ar
     6    40    41   ar
     7    41    34    1
     8    34     1    1
     9     1     2    1
    10     2     3    1
    11     3     4    1
    12     4     5    1
    13     5     6    1
    14     4     7    1
    15     7     8    2
    16     7     9   am
    17     9    13    1
    18    13    14   ar
    19    14    15   ar
    20    15    16   ar
    21    16    19    1
    22    19    20   ar
    23    20    21   ar
    24    21    22   ar
    25    22    25    1
    26    25    26   ar
    27    25    27   ar
    28    22    23   ar
    29    23    24   ar
    30    16    17   ar
    31    17    18   ar
    32     9    10   am
    33    10    11    2
    34    10    12   am
    35    12    28    1
    36    28    29   ar
    37    29    30   ar
    38    30    31   ar
    39    31    32   ar
    40    32    33   ar
    41    41    36   ar
    42     6     1    1
    43    18    13   ar
    44    33    28   ar
    45    12     4    1
    46    24    19   ar
@<TRIPOS>MOLECULE
*****
 41 46 0 0 0
SMALL
GASTEIGER

@<TRIPOS>ATOM
      1 N           6.4733   -2.1535   28.8257 N.3     1  UNL1       -0.2676
      2 C           6.0508   -1.7724   30.2136 C.3     1  UNL1        0.0746
      3 C           4.8055   -0.9630   30.4227 C.3     1  UNL1        0.0449
      4 C           3.9826   -0.5347   29.2440 C.3     1  UNL1        0.1391
      5 C           4.4050   -0.9158   27.8562 C.3     1  UNL1        0.0449
      6 C           5.6504   -1.7252   27.6470 C.3     1  UNL1        0.0746
      7 C           3.0635   -0.0368   28.1681 C.2     1  UNL1        0.2529
      8 O           3.2285   -0.2610   26.6942 O.2     1  UNL1       -0.2724
      9 N           1.9504    0.7246   28.8250 N.am    1  UNL1       -0.1907
     10 C           2.1816    0.6974   30.3069 C.2     1  UNL1        0.3220
     11 O           1.3100    1.3362   31.3470 O.2     1  UNL1       -0.2512
     12 N           3.4375   -0.0809   30.5658 N.am    1  UNL1       -0.2212
     13 C           0.8070    1.3955   28.1232 C.ar    1  UNL1        0.0622
     14 C          -0.6021    0.9662   28.4057 C.ar    1  UNL1        0.0154
     15 C          -1.7455    1.6371   27.7040 C.ar    1  UNL1        0.0013
     16 C          -1.4798    2.7373   26.7197 C.ar    1  UNL1        0.0001
     17 C          -0.0706    3.1666   26.4372 C.ar    1  UNL1        0.0013
     18 C           1.0728    2.4957   27.1389 C.ar    1  UNL1        0.0154
     19 C          -2.6233    3.4081   26.0179 C.ar    1  UNL1        0.0000
     20 C          -3.7860    3.9305   26.8087 C.ar    1  UNL1        0.0000
     21 C          -4.9294    4.6014   26.1069 C.ar    1  UNL1        0.0011
     22 C          -4.9101    4.7499   24.6143 C.ar    1  UNL1        0.0140
     23 C          -3.7474    4.2275   23.8236 C.ar    1  UNL1        0.0011
     24 C          -2.6040    3.5566   24.5254 C.ar    1  UNL1        0.0000
     25 C          -6.0536    5.4208   23.9126 C.2     1  UNL1        0.0729
     26 O          -6.1150    6.9178   23.8408 O.co2   1  UNL1       -0.5446
     27 O          -7.1355    4.5946   23.2826 O.co2   1  UNL1       -0.5446
     28 C           4.0422   -0.3569   31.9105 C.ar    1  UNL1        0.1583
     29 C           4.9870    0.6326   32.5254 C.ar    1  UNL1        0.1335
     30 N           5.5917    0.3564   33.8700 N.ar    1  UNL1       -0.2378
     31 C           5.2517   -0.9093   34.5998 C.ar    1  UNL1        0.1196
     32 C           4.3068   -1.8988   33.9848 C.ar    1  UNL1        0.1210
     33 N           3.7022   -1.6226   32.6402 N.ar    1  UNL1       -0.2255
     34 C           7.7188   -2.9630   28.6165 C.3     1  UNL1        0.1183
     35 C           6.9215   -5.6860   29.5910 C.3     1  UNL1        0.0323
     36 C           7.3088   -5.4868   28.1557 C.ar    1  UNL1       -0.0069
     37 C           7.2974   -6.6491   27.2075 C.ar    1  UNL1       -0.0015
     38 C           7.6847   -6.4499   25.7721 C.ar    1  UNL1        0.0203
     39 C           8.0833   -5.0884   25.2849 C.ar    1  UNL1        0.0985
     40 N           8.0947   -3.9261   26.2330 N.ar    1  UNL1       -0.2471
     41 C           7.7074   -4.1253   27.6684 C.ar    1  UNL1        0.0712
@<TRIPOS>UNITY_ATOM_ATTR
26 1
charge -1
@<TRIPOS>BOND
     1    35    36    1
     2    36    37   ar
     3    37    38   ar
     4    38    39   ar
     5    39    40   ar
     6    40    41   ar
     7    41    34    1
     8    34     1    1
     9     1     2    1
    10     2     3    1
    11     3     4    1
    12     4     5    1
    13     5     6    1
    14     4     7    1
    15     7     8    2
    16     7     9   am
    17     9    13    1
    18    13    14   ar
    19    14    15   ar
    20    15    16   ar
    21    16    19    1
    22    19    20   ar
    23    20    21   ar
    24    21    22   ar
    25    22    25    1
    26    25    26   ar
    27    25    27   ar
    28    22    23   ar
    29    23    24   ar
    30    16    17   ar
    31    17    18   ar
    32     9    10   am
    33    10    11    2
    34    10    12   am
    35    12    28    1
    36    28    29   ar
    37    29    30   ar
    38    30    31   ar
    39    31    32   ar
    40    32    33   ar
    41    41    36   ar
    42     6     1    1
    43    18    13   ar
    44    33    28   ar
    45    12     4    1
    46    24    19   ar
@<TRIPOS>MOLECULE
*****
 41 46 0 0 0
SMALL
GASTEIGER

@<TRIPOS>ATOM
      1 N           7.1177   -2.2303   24.2900 N.3     1  UNL1       -0.2676
      2 C           7.4434   -3.5523   24.9195 C.3     1  UNL1        0.0746
      3 C           7.2248   -3.7571   26.3893 C.3     1  UNL1        0.0449
      4 C           6.6804   -2.6401   27.2295 C.3     1  UNL1        0.1391
      5 C           6.3548   -1.3182   26.5999 C.3     1  UNL1        0.0449
      6 C           6.5734   -1.1133   25.1302 C.3     1  UNL1        0.0746
      7 C           6.1455   -1.6213   28.1917 C.2     1  UNL1        0.2529
      8 O           5.7354   -0.2188   27.8532 O.2     1  UNL1       -0.2724
      9 N           6.0928   -2.2513   29.5521 N.am    1  UNL1       -0.1907
     10 C           6.5952   -3.6595   29.4305 C.2     1  UNL1        0.3220
     11 O           6.7135   -4.6530   30.5480 O.2     1  UNL1       -0.2512
     12 N           6.9583   -3.8998   27.9951 N.am    1  UNL1       -0.2212
     13 C           5.6207   -1.5894   30.8126 C.ar    1  UNL1        0.0622
     14 C           6.5664   -1.4040   31.9619 C.ar    1  UNL1        0.0154
     15 C           6.0943   -0.7421   33.2225 C.ar    1  UNL1        0.0013
     16 C           4.6764   -0.2656   33.3336 C.ar    1  UNL1        0.0001
     17 C           3.7306   -0.4510   32.1842 C.ar    1  UNL1        0.0013
     18 C           4.2027   -1.1129   30.9237 C.ar    1  UNL1        0.0154
     19 C           4.2043    0.3963   34.5942 C.ar    1  UNL1        0.0000
     20 C           3.2897    1.5830   34.5210 C.ar    1  UNL1        0.0000
     21 C           2.8176    2.2449   35.7815 C.ar    1  UNL1        0.0011
     22 C           3.2600    1.7201   37.1153 C.ar    1  UNL1        0.0140
     23 C           4.1746    0.5334   37.1885 C.ar    1  UNL1        0.0011
     24 C           4.6467   -0.1285   35.9279 C.ar    1  UNL1        0.0000
     25 C           2.7879    2.3821   38.3758 C.2     1  UNL1        0.0729
     26 O           3.7324    2.5630   39.5270 O.co2   1  UNL1       -0.5446
     27 O           1.3713    2.8630   38.4852 O.co2   1  UNL1       -0.5446
     28 C           7.5036   -5.1757   27.4252 C.ar    1  UNL1        0.1583
     29 C           8.9834   -5.4206   27.4153 C.ar    1  UNL1        0.1335
     30 N           9.5286   -6.6965   26.8454 N.ar    1  UNL1       -0.2378
     31 C           8.5941   -7.7275   26.2854 C.ar    1  UNL1        0.1196
     32 C           7.1142   -7.4826   26.2953 C.ar    1  UNL1        0.1210
     33 N           6.5690   -6.2067   26.8652 N.ar    1  UNL1       -0.2255
     34 C           7.3364   -2.0254   22.8202 C.3     1  UNL1        0.1183
     35 C           7.8068   -4.2988   20.9200 C.3     1  UNL1        0.0323
     36 C           6.5048   -3.5544   20.8912 C.ar    1  UNL1       -0.0069
     37 C           5.4381   -3.9467   19.9124 C.ar    1  UNL1       -0.0015
     38 C           4.1361   -3.2023   19.8837 C.ar    1  UNL1        0.0203
     39 C           3.9009   -2.0657   20.8337 C.ar    1  UNL1        0.0985
     40 N           4.9677   -1.6733   21.8126 N.ar    1  UNL1       -0.2471
     41 C           6.2696   -2.4177   21.8414 C.ar    1  UNL1        0.0712
@<TRIPOS>UNITY_ATOM_ATTR
26 1
charge -1
@<TRIPOS>BOND
     1    35    36    1
     2    36    37   ar
     3    37    38   ar
     4    38    39   ar
     5    39    40   ar
     6    40    41   ar
     7    41    34    1
     8    34     1    1
     9     1     2    1
    10     2     3    1
    11     3     4    1
    12     4     5    1
    13     5     6    1
    14     4     7    1
    15     7     8    2
    16     7     9   am
    17     9    13    1
    18    13    14   ar
    19    14    15   ar
    20    15    16   ar
    21    16    19    1
    22    19    20   ar
    23    20    21   ar
    24    21    22   ar
    25    22    25    1
    26    25    26   ar
    27    25    27   ar
    28    22    23   ar
    29    23    24   ar
    30    16    17   ar
    31    17    18   ar
    32     9    10   am
    33    10    11    2
    34    10    12   am
    35    12    28    1
    36    28    29   ar
    37    29    30   ar
    38    30    31   ar
    39    31    32   ar
    40    32    33   ar
    41    41    36   ar
    42     6     1    1
    43    18    13   ar
    44    33    28   ar
    45    12     4    1
    46    24    19   ar
@<TRIPOS>MOLECULE
*****
 41 46 0 0 0
SMALL
GASTEIGER

@<TRIPOS>ATOM
      1 N           4.3154    0.8331   35.4127 N.3     1  UNL1       -0.2676
      2 C           5.0313   -0.1067   34.4886 C.3     1  UNL1        0.0746
      3 C           4.5959   -0.2289   33.0584 C.3     1  UNL1        0.0449
      4 C           3.4447    0.5888   32.5524 C.3     1  UNL1        0.1391
      5 C           2.7289    1.5287   33.4765 C.3     1  UNL1        0.0449
      6 C           3.1642    1.6508   34.9067 C.3     1  UNL1        0.0746
      7 C           2.3167    1.3380   31.9070 C.2     1  UNL1        0.2529
      8 O           1.4261    2.3408   32.5786 O.2     1  UNL1       -0.2724
      9 N           2.2358    0.9082   30.4721 N.am    1  UNL1       -0.1907
     10 C           3.3138   -0.1066   30.2307 C.2     1  UNL1        0.3220
     11 O           3.5951   -0.8019   28.9318 O.2     1  UNL1       -0.2512
     12 N           4.0609   -0.3040   31.5163 N.am    1  UNL1       -0.2212
     13 C           1.2500    1.4058   29.4569 C.ar    1  UNL1        0.0622
     14 C           0.0828    0.5501   29.0628 C.ar    1  UNL1        0.0154
     15 C          -0.9030    1.0478   28.0476 C.ar    1  UNL1        0.0013
     16 C          -0.7216    2.4010   27.4266 C.ar    1  UNL1        0.0001
     17 C           0.4456    3.2567   27.8208 C.ar    1  UNL1        0.0013
     18 C           1.4314    2.7591   28.8360 C.ar    1  UNL1        0.0154
     19 C          -1.7074    2.8986   26.4115 C.ar    1  UNL1        0.0000
     20 C          -1.3755    2.8355   24.9500 C.ar    1  UNL1        0.0000
     21 C          -2.3613    3.3331   23.9349 C.ar    1  UNL1        0.0011
     22 C          -3.6791    3.8939   24.3812 C.ar    1  UNL1        0.0140
     23 C          -4.0111    3.9570   25.8426 C.ar    1  UNL1        0.0011
     24 C          -3.0252    3.4593   26.8578 C.ar    1  UNL1        0.0000
     25 C          -4.6649    4.3915   23.3660 C.2     1  UNL1        0.0729
     26 O          -5.7446    5.3489   23.7756 O.co2   1  UNL1       -0.5446
     27 O          -4.5711    3.9317   21.9413 O.co2   1  UNL1       -0.5446
     28 C           5.2206   -1.2313   31.7287 C.ar    1  UNL1        0.1583
     29 C           4.9885   -2.6110   32.2694 C.ar    1  UNL1        0.1335
     30 N           6.1482   -3.5382   32.4818 N.ar    1  UNL1       -0.2378
     31 C           7.5402   -3.0858   32.1534 C.ar    1  UNL1        0.1196
     32 C           7.7723   -1.7061   31.6127 C.ar    1  UNL1        0.1210
     33 N           6.6126   -0.7789   31.4003 N.ar    1  UNL1       -0.2255
     34 C           4.7508    0.9553   36.8430 C.3     1  UNL1        0.1183
     35 C           2.4673    1.1234   38.7814 C.3     1  UNL1        0.0323
     36 C           3.3577    2.3113   38.5667 C.ar    1  UNL1       -0.0069
     37 C           3.1064    3.5831   39.3211 C.ar    1  UNL1       -0.0015
     38 C           3.9969    4.7710   39.1063 C.ar    1  UNL1        0.0203
     39 C           5.1386    4.6870   38.1371 C.ar    1  UNL1        0.0985
     40 N           5.3899    3.4150   37.3826 N.ar    1  UNL1       -0.2471
     41 C           4.4995    2.2272   37.5974 C.ar    1  UNL1        0.0712
@<TRIPOS>UNITY_ATOM_ATTR
26 1
charge -1
@<TRIPOS>BOND
     1    35    36    1
     2    36    37   ar
     3    37    38   ar
     4    38    39   ar
     5    39    40   ar
     6    40    41   ar
     7    41    34    1
     8    34     1    1
     9     1     2    1
    10     2     3    1
    11     3     4    1
    12     4     5    1
    13     5     6    1
    14     4     7    1
    15     7     8    2
    16     7     9   am
    17     9    13    1
    18    13    14   ar
    19    14    15   ar
    20    15    16   ar
    21    16    19    1
    22    19    20   ar
    23    20    21   ar
    24    21    22   ar
    25    22    25    1
    26    25    26   ar
    27    25    27   ar
    28    22    23   ar
    29    23    24   ar
    30    16    17   ar
    31    17    18   ar
    32     9    10   am
    33    10    11    2
    34    10    12   am
    35    12    28    1
    36    28    29   ar
    37    29    30   ar
    38    30    31   ar
    39    31    32   ar
    40    32    33   ar
    41    41    36   ar
    42     6     1    1
    43    18    13   ar
    44    33    28   ar
    45    12     4    1
    46    24    19   ar
@<TRIPOS>MOLECULE
*****
 41 46 0 0 0
SMALL
GASTEIGER

@<TRIPOS>ATOM
      1 N           6.9169   -2.5863   23.9632 N.3     1  UNL1       -0.2676
      2 C           7.2967   -3.8971   24.5857 C.3     1  UNL1        0.0746
      3 C           7.1564   -4.0928   26.0662 C.3     1  UNL1        0.0449
      4 C           6.6363   -2.9777   26.9242 C.3     1  UNL1        0.1391
      5 C           6.2565   -1.6669   26.3016 C.3     1  UNL1        0.0449
      6 C           6.3968   -1.4712   24.8211 C.3     1  UNL1        0.0746
      7 C           6.1335   -1.9596   27.9044 C.2     1  UNL1        0.2529
      8 O           5.6827   -0.5671   27.5761 O.2     1  UNL1       -0.2724
      9 N           6.1606   -2.5786   29.2706 N.am    1  UNL1       -0.1907
     10 C           6.6801   -3.9792   29.1346 C.2     1  UNL1        0.3220
     11 O           6.8720   -4.9607   30.2525 O.2     1  UNL1       -0.2512
     12 N           6.9741   -4.2258   27.6846 N.am    1  UNL1       -0.2212
     13 C           5.7417   -1.9137   30.5482 C.ar    1  UNL1        0.0622
     14 C           4.3946   -1.2615   30.6477 C.ar    1  UNL1        0.0154
     15 C           3.9757   -0.5966   31.9253 C.ar    1  UNL1        0.0013
     16 C           4.9039   -0.5838   33.1035 C.ar    1  UNL1        0.0001
     17 C           6.2511   -1.2360   33.0040 C.ar    1  UNL1        0.0013
     18 C           6.6699   -1.9009   31.7264 C.ar    1  UNL1        0.0154
     19 C           4.4850    0.0811   34.3811 C.ar    1  UNL1        0.0000
     20 C           3.5850    1.2804   34.3424 C.ar    1  UNL1        0.0000
     21 C           3.1661    1.9454   35.6201 C.ar    1  UNL1        0.0011
     22 C           3.6472    1.4109   36.9365 C.ar    1  UNL1        0.0140
     23 C           4.5472    0.2115   36.9753 C.ar    1  UNL1        0.0011
     24 C           4.9661   -0.4534   35.6975 C.ar    1  UNL1        0.0000
     25 C           3.2283    2.0758   38.2142 C.2     1  UNL1        0.0729
     26 O           4.1555    2.0862   39.3932 O.co2   1  UNL1       -0.5446
     27 O           1.8822    2.7303   38.3128 O.co2   1  UNL1       -0.5446
     28 C           7.5116   -5.4973   27.0978 C.ar    1  UNL1        0.1583
     29 C           6.5727   -6.6040   26.7185 C.ar    1  UNL1        0.1335
     30 N           7.1103   -7.8755   26.1317 N.ar    1  UNL1       -0.2378
     31 C           8.5867   -8.0404   25.9241 C.ar    1  UNL1        0.1196
     32 C           9.5255   -6.9338   26.3034 C.ar    1  UNL1        0.1210
     33 N           8.9880   -5.6623   26.8902 N.ar    1  UNL1       -0.2255
     34 C           7.0572   -2.3906   22.4826 C.3     1  UNL1        0.1183
     35 C           5.5338   -0.0758   21.3331 C.3     1  UNL1        0.0323
     36 C           5.1241   -1.4808   21.0042 C.ar    1  UNL1       -0.0069
     37 C           3.9528   -1.7285   20.1006 C.ar    1  UNL1       -0.0015
     38 C           3.5431   -3.1335   19.7717 C.ar    1  UNL1        0.0203
     39 C           4.3048   -4.2908   20.3464 C.ar    1  UNL1        0.0985
     40 N           5.4762   -4.0432   21.2501 N.ar    1  UNL1       -0.2471
     41 C           5.8859   -2.6382   21.5790 C.ar    1  UNL1        0.0712
@<TRIPOS>UNITY_ATOM_ATTR
26 1
charge -1
@<TRIPOS>BOND
     1    35    36    1
     2    36    37   ar
     3    37    38   ar
     4    38    39   ar
     5    39    40   ar
     6    40    41   ar
     7    41    34    1
     8    34     1    1
     9     1     2    1
    10     2     3    1
    11     3     4    1
    12     4     5    1
    13     5     6    1
    14     4     7    1
    15     7     8    2
    16     7     9   am
    17     9    13    1
    18    13    14   ar
    19    14    15   ar
    20    15    16   ar
    21    16    19    1
    22    19    20   ar
    23    20    21   ar
    24    21    22   ar
    25    22    25    1
    26    25    26   ar
    27    25    27   ar
    28    22    23   ar
    29    23    24   ar
    30    16    17   ar
    31    17    18   ar
    32     9    10   am
    33    10    11    2
    34    10    12   am
    35    12    28    1
    36    28    29   ar
    37    29    30   ar
    38    30    31   ar
    39    31    32   ar
    40    32    33   ar
    41    41    36   ar
    42     6     1    1
    43    18    13   ar
    44    33    28   ar
    45    12     4    1
    46    24    19   ar
@<TRIPOS>MOLECULE
*****
 41 46 0 0 0
SMALL
GASTEIGER

@<TRIPOS>ATOM
      1 N           6.5707   -1.9569   28.7845 N.3     1  UNL1       -0.2676
      2 C           6.1279   -1.6320   30.1803 C.3     1  UNL1        0.0746
      3 C           4.8599   -0.8628   30.4049 C.3     1  UNL1        0.0449
      4 C           4.0347   -0.4185   29.2337 C.3     1  UNL1        0.1391
      5 C           4.4775   -0.7435   27.8379 C.3     1  UNL1        0.0449
      6 C           5.7455   -1.5127   27.6133 C.3     1  UNL1        0.0746
      7 C           3.1108    0.0893   28.1667 C.2     1  UNL1        0.2529
      8 O           3.2927   -0.0829   26.6877 O.2     1  UNL1       -0.2724
      9 N           1.9730    0.7996   28.8383 N.am    1  UNL1       -0.1907
     10 C           2.1937    0.7307   30.3204 C.2     1  UNL1        0.3220
     11 O           1.2977    1.3125   31.3732 O.2     1  UNL1       -0.2512
     12 N           3.4679   -0.0221   30.5648 N.am    1  UNL1       -0.2212
     13 C           0.8174    1.4624   28.1488 C.ar    1  UNL1        0.0622
     14 C           1.0565    2.6317   27.2404 C.ar    1  UNL1        0.0154
     15 C          -0.0991    3.2944   26.5510 C.ar    1  UNL1        0.0013
     16 C          -1.4938    2.7879   26.7700 C.ar    1  UNL1        0.0001
     17 C          -1.7329    1.6185   27.6785 C.ar    1  UNL1        0.0013
     18 C          -0.5774    0.9557   28.3679 C.ar    1  UNL1        0.0154
     19 C          -2.6494    3.4507   26.0805 C.ar    1  UNL1        0.0000
     20 C          -3.8005    3.9777   26.8849 C.ar    1  UNL1        0.0000
     21 C          -4.9561    4.6404   26.1955 C.ar    1  UNL1        0.0011
     22 C          -4.9606    4.7762   24.7016 C.ar    1  UNL1        0.0140
     23 C          -3.8094    4.2492   23.8972 C.ar    1  UNL1        0.0011
     24 C          -2.6538    3.5864   24.5867 C.ar    1  UNL1        0.0000
     25 C          -6.1162    5.4390   24.0122 C.2     1  UNL1        0.0729
     26 O          -7.3477    4.6479   23.6842 O.co2   1  UNL1       -0.5446
     27 O          -6.0402    6.8928   23.6507 O.co2   1  UNL1       -0.5446
     28 C           4.0697   -0.3253   31.9048 C.ar    1  UNL1        0.1583
     29 C           5.0138    0.6512   32.5413 C.ar    1  UNL1        0.1335
     30 N           5.6156    0.3479   33.8814 N.ar    1  UNL1       -0.2378
     31 C           5.2733   -0.9319   34.5851 C.ar    1  UNL1        0.1196
     32 C           4.3292   -1.9083   33.9486 C.ar    1  UNL1        0.1210
     33 N           3.7275   -1.6051   32.6085 N.ar    1  UNL1       -0.2255
     34 C           7.8388   -2.7262   28.5599 C.3     1  UNL1        0.1183
     35 C           6.5137   -5.3860   28.1484 C.3     1  UNL1        0.0323
     36 C           7.5205   -5.2116   29.2464 C.ar    1  UNL1       -0.0069
     37 C           7.8649   -6.3671   30.1387 C.ar    1  UNL1       -0.0015
     38 C           8.8717   -6.1927   31.2368 C.ar    1  UNL1        0.0203
     39 C           9.5343   -4.8629   31.4426 C.ar    1  UNL1        0.0985
     40 N           9.1900   -3.7073   30.5503 N.ar    1  UNL1       -0.2471
     41 C           8.1831   -3.8816   29.4522 C.ar    1  UNL1        0.0712
@<TRIPOS>UNITY_ATOM_ATTR
26 1
charge -1
@<TRIPOS>BOND
     1    35    36    1
     2    36    37   ar
     3    37    38   ar
     4    38    39   ar
     5    39    40   ar
     6    40    41   ar
     7    41    34    1
     8    34     1    1
     9     1     2    1
    10     2     3    1
    11     3     4    1
    12     4     5    1
    13     5     6    1
    14     4     7    1
    15     7     8    2
    16     7     9   am
    17     9    13    1
    18    13    14   ar
    19    14    15   ar
    20    15    16   ar
    21    16    19    1
    22    19    20   ar
    23    20    21   ar
    24    21    22   ar
    25    22    25    1
    26    25    26   ar
    27    25    27   ar
    28    22    23   ar
    29    23    24   ar
    30    16    17   ar
    31    17    18   ar
    32     9    10   am
    33    10    11    2
    34    10    12   am
    35    12    28    1
    36    28    29   ar
    37    29    30   ar
    38    30    31   ar
    39    31    32   ar
    40    32    33   ar
    41    41    36   ar
    42     6     1    1
    43    18    13   ar
    44    33    28   ar
    45    12     4    1
    46    24    19   ar
