@<TRIPOS>MOLECULE
*****
 36 40 0 0 0
SMALL
GASTEIGER

@<TRIPOS>ATOM
      1 N           5.9127   -2.7458   23.9334 N.pl3   1  UNL1       -0.2629
      2 C           4.8607   -1.4537   27.5353 C.ar    1  UNL1        0.1559
      3 C           5.6129   -2.1605   26.4469 C.ar    1  UNL1        0.0533
      4 C           5.1605   -2.0390   25.0219 C.ar    1  UNL1        0.0565
      5 C           3.9560   -1.2109   24.6853 C.ar    1  UNL1        0.0166
      6 C           3.2039   -0.5042   25.7738 C.ar    1  UNL1        0.0219
      7 C           3.6562   -0.6256   27.1988 C.ar    1  UNL1        0.0995
      8 N           2.9040    0.0812   28.2872 N.ar    1  UNL1       -0.2839
      9 C           1.8105   -0.5072   29.1287 C.ar    1  UNL1        0.1826
     10 N           1.3439    0.5484   30.0868 N.ar    1  UNL1       -0.2280
     11 C           2.1491    1.7892   29.8375 C.ar    1  UNL1        0.0786
     12 C           2.0137    3.0904   30.5715 C.3     1  UNL1        0.0538
     13 C           3.1132    1.5005   28.7253 C.ar    1  UNL1        0.0963
     14 C           6.4866   -2.4441   29.3032 C.3     1  UNL1        0.2525
     15 O           5.3131   -1.5752   28.9603 O.3     1  UNL1       -0.4699
     16 C           5.2800   -2.9376   22.5870 C.ar    1  UNL1        0.1664
     17 N           4.8184   -4.2418   22.0074 N.ar    1  UNL1       -0.2285
     18 C           4.2508   -3.9690   20.6460 C.ar    1  UNL1        0.0636
     19 C           3.6738   -4.9898   19.7106 C.3     1  UNL1        0.0524
     20 C           4.3617   -2.4962   20.3842 C.ar    1  UNL1        0.0278
     21 S           4.9977   -1.8587   21.5838 S.2     1  UNL1       -0.0556
     22 C           3.9149   -1.7856   19.1410 C.3     1  UNL1        0.0605
     23 C           2.8747   -0.7081   19.2258 C.ar    1  UNL1       -0.0172
     24 C           1.6583   -0.9057   20.0809 C.ar    1  UNL1       -0.0031
     25 C           0.6181    0.1718   20.1656 C.ar    1  UNL1        0.0111
     26 C           0.7944    1.4467   19.3953 C.ar    1  UNL1        0.0577
     27 CL         -0.2458    2.5242   19.4800 Cl      1  UNL1       -0.0822
     28 C           2.0109    1.6443   18.5402 C.ar    1  UNL1        0.0111
     29 C           3.0510    0.5668   18.4554 C.ar    1  UNL1       -0.0031
     30 C           7.2977   -3.2608   24.1914 C.3     1  UNL1        0.1240
     31 C           7.5122   -4.7122   24.5034 C.ar    1  UNL1       -0.0020
     32 C           7.0507   -5.2734   25.8157 C.ar    1  UNL1       -0.0026
     33 C           7.2651   -6.7249   26.1277 C.ar    1  UNL1       -0.0003
     34 C           7.9411   -7.6151   25.1274 C.ar    1  UNL1       -0.0000
     35 C           8.4026   -7.0539   23.8151 C.ar    1  UNL1       -0.0003
     36 C           8.1882   -5.6025   23.5031 C.ar    1  UNL1       -0.0026
@<TRIPOS>BOND
     1    14    15    1
     2    15     2    1
     3     2     3   ar
     4     3     4   ar
     5     4     1    1
     6     1    30    1
     7    30    31    1
     8    31    32   ar
     9    32    33   ar
    10    33    34   ar
    11    34    35   ar
    12    35    36   ar
    13     1    16    1
    14    16    17   ar
    15    17    18   ar
    16    18    19    1
    17    18    20   ar
    18    20    22    1
    19    22    23    1
    20    23    24   ar
    21    24    25   ar
    22    25    26   ar
    23    26    27    1
    24    26    28   ar
    25    28    29   ar
    26    20    21   ar
    27     4     5   ar
    28     5     6   ar
    29     6     7   ar
    30     7     8    1
    31     8     9   ar
    32     9    10   ar
    33    10    11   ar
    34    11    12    1
    35    11    13   ar
    36     7     2   ar
    37    13     8   ar
    38    36    31   ar
    39    21    16   ar
    40    29    23   ar
@<TRIPOS>MOLECULE
*****
 36 40 0 0 0
SMALL
GASTEIGER

@<TRIPOS>ATOM
      1 N           0.1720    2.7773   23.9114 N.pl3   1  UNL1       -0.2629
      2 C           0.1574    1.0768   27.4973 C.ar    1  UNL1        0.1559
      3 C          -0.1476    1.3409   26.0526 C.ar    1  UNL1        0.0533
      4 C           0.4771    2.5134   25.3562 C.ar    1  UNL1        0.0565
      5 C           1.4069    3.4219   26.1046 C.ar    1  UNL1        0.0166
      6 C           1.7119    3.1579   27.5493 C.ar    1  UNL1        0.0219
      7 C           1.0872    1.9854   28.2456 C.ar    1  UNL1        0.0995
      8 N           1.3922    1.7214   29.6904 N.ar    1  UNL1       -0.2839
      9 C           0.6049    2.2242   30.8639 C.ar    1  UNL1        0.1826
     10 N           1.2642    1.7218   32.1141 N.ar    1  UNL1       -0.2280
     11 C           2.4592    0.9085   31.7131 C.ar    1  UNL1        0.0786
     12 C           3.4083    0.2169   32.6463 C.3     1  UNL1        0.0538
     13 C           2.5383    0.9082   30.2152 C.ar    1  UNL1        0.0963
     14 C          -1.7224    0.0890   28.9941 C.3     1  UNL1        0.2525
     15 O          -0.4674   -0.0957   28.1936 O.3     1  UNL1       -0.4699
     16 C           0.7748    1.9094   22.8469 C.ar    1  UNL1        0.1664
     17 N           1.6657    0.7243   23.0751 N.ar    1  UNL1       -0.2285
     18 C           2.0340    0.1566   21.7365 C.ar    1  UNL1        0.0636
     19 C           2.9115   -1.0359   21.4957 C.3     1  UNL1        0.0524
     20 C           1.3708    0.9909   20.6809 C.ar    1  UNL1        0.0278
     21 S           0.5926    2.0741   21.3671 S.2     1  UNL1       -0.0556
     22 C           1.4687    0.7791   19.1991 C.3     1  UNL1        0.0605
     23 C           2.8108    0.7739   18.5292 C.ar    1  UNL1       -0.0172
     24 C           3.2297   -0.4024   17.6982 C.ar    1  UNL1       -0.0031
     25 C           4.5718   -0.4076   17.0283 C.ar    1  UNL1        0.0111
     26 C           5.4950    0.7637   17.1895 C.ar    1  UNL1        0.0577
     27 CL          6.8371    0.7585   16.5196 Cl      1  UNL1       -0.0822
     28 C           5.0761    1.9400   18.0206 C.ar    1  UNL1        0.0111
     29 C           3.7340    1.9451   18.6905 C.ar    1  UNL1       -0.0031
     30 C          -0.7358    3.9093   23.5313 C.3     1  UNL1        0.1240
     31 C          -2.2064    3.6670   23.3625 C.ar    1  UNL1       -0.0020
     32 C          -3.0857    3.5201   24.5689 C.ar    1  UNL1       -0.0026
     33 C          -4.5564    3.2778   24.4000 C.ar    1  UNL1       -0.0003
     34 C          -5.1477    3.1823   23.0249 C.ar    1  UNL1       -0.0000
     35 C          -4.2685    3.3292   21.8185 C.ar    1  UNL1       -0.0003
     36 C          -2.7979    3.5715   21.9873 C.ar    1  UNL1       -0.0026
@<TRIPOS>BOND
     1    14    15    1
     2    15     2    1
     3     2     3   ar
     4     3     4   ar
     5     4     1    1
     6     1    30    1
     7    30    31    1
     8    31    32   ar
     9    32    33   ar
    10    33    34   ar
    11    34    35   ar
    12    35    36   ar
    13     1    16    1
    14    16    17   ar
    15    17    18   ar
    16    18    19    1
    17    18    20   ar
    18    20    22    1
    19    22    23    1
    20    23    24   ar
    21    24    25   ar
    22    25    26   ar
    23    26    27    1
    24    26    28   ar
    25    28    29   ar
    26    20    21   ar
    27     4     5   ar
    28     5     6   ar
    29     6     7   ar
    30     7     8    1
    31     8     9   ar
    32     9    10   ar
    33    10    11   ar
    34    11    12    1
    35    11    13   ar
    36     7     2   ar
    37    13     8   ar
    38    36    31   ar
    39    21    16   ar
    40    29    23   ar
@<TRIPOS>MOLECULE
*****
 36 40 0 0 0
SMALL
GASTEIGER

@<TRIPOS>ATOM
      1 N           0.1753    2.8747   23.7352 N.pl3   1  UNL1       -0.2629
      2 C          -0.0418    1.4401   27.4291 C.ar    1  UNL1        0.1559
      3 C          -0.4538    1.9377   26.0754 C.ar    1  UNL1        0.0533
      4 C           0.5874    2.3771   25.0890 C.ar    1  UNL1        0.0565
      5 C           2.0405    2.3189   25.4564 C.ar    1  UNL1        0.0166
      6 C           2.4525    1.8214   26.8101 C.ar    1  UNL1        0.0219
      7 C           1.4113    1.3820   27.7965 C.ar    1  UNL1        0.0995
      8 N           1.8233    0.8844   29.1503 N.ar    1  UNL1       -0.2839
      9 C           2.1054   -0.5424   29.5170 C.ar    1  UNL1        0.1826
     10 N           2.4821   -0.5823   30.9684 N.ar    1  UNL1       -0.2280
     11 C           2.4327    0.8200   31.4988 C.ar    1  UNL1        0.0786
     12 C           2.7370    1.2417   32.9057 C.3     1  UNL1        0.0538
     13 C           2.0256    1.7264   30.3751 C.ar    1  UNL1        0.0963
     14 C          -1.3410   -0.4609   28.6326 C.3     1  UNL1        0.2525
     15 O          -1.0830    1.0007   28.4155 O.3     1  UNL1       -0.4699
     16 C           0.7484    2.2472   22.4992 C.ar    1  UNL1        0.1664
     17 N           1.4700    2.9667   21.3985 N.ar    1  UNL1       -0.2285
     18 C           1.8680    1.9542   20.3658 C.ar    1  UNL1        0.0636
     19 C           2.6112    2.2373   19.0940 C.3     1  UNL1        0.0524
     20 C           1.3924    0.6089   20.8283 C.ar    1  UNL1        0.0278
     21 S           0.7004    0.7900   22.1468 S.2     1  UNL1       -0.0556
     22 C           1.5764   -0.6896   20.1001 C.3     1  UNL1        0.0605
     23 C           2.8983   -1.3967   20.1501 C.ar    1  UNL1       -0.0172
     24 C           3.6304   -1.7090   18.8787 C.ar    1  UNL1       -0.0031
     25 C           4.9523   -2.4161   18.9287 C.ar    1  UNL1        0.0111
     26 C           5.5422   -2.8108   20.2501 C.ar    1  UNL1        0.0577
     27 CL          6.8642   -3.5180   20.3001 Cl      1  UNL1       -0.0822
     28 C           4.8102   -2.4985   21.5216 C.ar    1  UNL1        0.0111
     29 C           3.4882   -1.7914   21.4716 C.ar    1  UNL1       -0.0031
     30 C          -0.8098    3.9997   23.6175 C.3     1  UNL1        0.1240
     31 C          -2.2394    3.7112   23.2672 C.ar    1  UNL1       -0.0020
     32 C          -2.6482    3.5831   21.8296 C.ar    1  UNL1       -0.0026
     33 C          -4.0779    3.2946   21.4793 C.ar    1  UNL1       -0.0003
     34 C          -5.0988    3.1342   22.5665 C.ar    1  UNL1       -0.0000
     35 C          -4.6901    3.2623   24.0040 C.ar    1  UNL1       -0.0003
     36 C          -3.2604    3.5508   24.3544 C.ar    1  UNL1       -0.0026
@<TRIPOS>BOND
     1    14    15    1
     2    15     2    1
     3     2     3   ar
     4     3     4   ar
     5     4     1    1
     6     1    30    1
     7    30    31    1
     8    31    32   ar
     9    32    33   ar
    10    33    34   ar
    11    34    35   ar
    12    35    36   ar
    13     1    16    1
    14    16    17   ar
    15    17    18   ar
    16    18    19    1
    17    18    20   ar
    18    20    22    1
    19    22    23    1
    20    23    24   ar
    21    24    25   ar
    22    25    26   ar
    23    26    27    1
    24    26    28   ar
    25    28    29   ar
    26    20    21   ar
    27     4     5   ar
    28     5     6   ar
    29     6     7   ar
    30     7     8    1
    31     8     9   ar
    32     9    10   ar
    33    10    11   ar
    34    11    12    1
    35    11    13   ar
    36     7     2   ar
    37    13     8   ar
    38    36    31   ar
    39    21    16   ar
    40    29    23   ar
@<TRIPOS>MOLECULE
*****
 36 40 0 0 0
SMALL
GASTEIGER

@<TRIPOS>ATOM
      1 N          -0.1882    3.4343   23.2610 N.pl3   1  UNL1       -0.2629
      2 C           2.0661    2.1483   26.2634 C.ar    1  UNL1        0.1559
      3 C           1.6647    2.7372   24.9436 C.ar    1  UNL1        0.0533
      4 C           0.2132    2.8453   24.5809 C.ar    1  UNL1        0.0565
      5 C          -0.8368    2.3644   25.5380 C.ar    1  UNL1        0.0166
      6 C          -0.4354    1.7754   26.8578 C.ar    1  UNL1        0.0219
      7 C           1.0161    1.6674   27.2205 C.ar    1  UNL1        0.0995
      8 N           1.4175    1.0784   28.5404 N.ar    1  UNL1       -0.2839
      9 C           1.5267   -0.3838   28.8567 C.ar    1  UNL1        0.1826
     10 N           1.9569   -0.5176   30.2875 N.ar    1  UNL1       -0.2280
     11 C           2.1136    0.8619   30.8554 C.ar    1  UNL1        0.0786
     12 C           2.5304    1.1962   32.2570 C.3     1  UNL1        0.0538
     13 C           1.7802    1.8482   29.7756 C.ar    1  UNL1        0.0963
     14 C           4.5660    2.1208   25.5563 C.3     1  UNL1        0.2525
     15 O           3.5176    2.0402   26.6261 O.3     1  UNL1       -0.4699
     16 C           0.5129    3.0082   22.0053 C.ar    1  UNL1        0.1664
     17 N           1.6974    3.6865   21.3833 N.ar    1  UNL1       -0.2285
     18 C           2.0692    2.9265   20.1446 C.ar    1  UNL1        0.0636
     19 C           3.1976    3.2566   19.2131 C.3     1  UNL1        0.0524
     20 C           1.1144    1.7785   20.0011 C.ar    1  UNL1        0.0278
     21 S           0.1526    1.8290   21.1510 S.2     1  UNL1       -0.0556
     22 C           1.1204    0.7590   18.9008 C.3     1  UNL1        0.0605
     23 C           2.2296   -0.2472   18.8168 C.ar    1  UNL1       -0.0172
     24 C           3.1909   -0.2094   17.6659 C.ar    1  UNL1       -0.0031
     25 C           4.3001   -1.2156   17.5819 C.ar    1  UNL1        0.0111
     26 C           4.4479   -2.2598   18.6487 C.ar    1  UNL1        0.0577
     27 CL          5.5572   -3.2661   18.5646 Cl      1  UNL1       -0.0822
     28 C           3.4866   -2.2976   19.7995 C.ar    1  UNL1        0.0111
     29 C           2.3774   -1.2913   19.8835 C.ar    1  UNL1       -0.0031
     30 C          -1.2907    4.4493   23.1969 C.3     1  UNL1        0.1240
     31 C          -2.6413    4.0577   22.6750 C.ar    1  UNL1       -0.0020
     32 C          -3.7236    3.6466   23.6288 C.ar    1  UNL1       -0.0026
     33 C          -5.0743    3.2550   23.1069 C.ar    1  UNL1       -0.0003
     34 C          -5.3427    3.2744   21.6312 C.ar    1  UNL1       -0.0000
     35 C          -4.2604    3.6855   20.6775 C.ar    1  UNL1       -0.0003
     36 C          -2.9098    4.0771   21.1993 C.ar    1  UNL1       -0.0026
@<TRIPOS>BOND
     1    14    15    1
     2    15     2    1
     3     2     3   ar
     4     3     4   ar
     5     4     1    1
     6     1    30    1
     7    30    31    1
     8    31    32   ar
     9    32    33   ar
    10    33    34   ar
    11    34    35   ar
    12    35    36   ar
    13     1    16    1
    14    16    17   ar
    15    17    18   ar
    16    18    19    1
    17    18    20   ar
    18    20    22    1
    19    22    23    1
    20    23    24   ar
    21    24    25   ar
    22    25    26   ar
    23    26    27    1
    24    26    28   ar
    25    28    29   ar
    26    20    21   ar
    27     4     5   ar
    28     5     6   ar
    29     6     7   ar
    30     7     8    1
    31     8     9   ar
    32     9    10   ar
    33    10    11   ar
    34    11    12    1
    35    11    13   ar
    36     7     2   ar
    37    13     8   ar
    38    36    31   ar
    39    21    16   ar
    40    29    23   ar
@<TRIPOS>MOLECULE
*****
 36 40 0 0 0
SMALL
GASTEIGER

@<TRIPOS>ATOM
      1 N           0.3241    2.3669   24.0815 N.pl3   1  UNL1       -0.2629
      2 C           1.2450    0.4215   20.7472 C.ar    1  UNL1        0.1559
      3 C           0.5254    1.3131   21.7153 C.ar    1  UNL1        0.0533
      4 C           1.0439    1.4753   23.1134 C.ar    1  UNL1        0.0565
      5 C           2.2820    0.7460   23.5435 C.ar    1  UNL1        0.0166
      6 C           3.0017   -0.1455   22.5754 C.ar    1  UNL1        0.0219
      7 C           2.4832   -0.3077   21.1772 C.ar    1  UNL1        0.0995
      8 N           3.2029   -1.1993   20.2091 N.ar    1  UNL1       -0.2839
      9 C           3.9184   -0.7567   18.9673 C.ar    1  UNL1        0.1826
     10 N           4.4912   -1.9739   18.3036 N.ar    1  UNL1       -0.2280
     11 C           4.1297   -3.1688   19.1353 C.ar    1  UNL1        0.0786
     12 C           4.4995   -4.5923   18.8410 C.3     1  UNL1        0.0538
     13 C           3.3336   -2.6900   20.3130 C.ar    1  UNL1        0.0963
     14 C           0.9295    1.3526   18.3423 C.3     1  UNL1        0.2525
     15 O           0.7265    0.2593   19.3490 O.3     1  UNL1       -0.4699
     16 C           0.3538    2.0589   25.5492 C.ar    1  UNL1        0.1664
     17 N          -0.4835    1.0314   26.2516 N.ar    1  UNL1       -0.2285
     18 C          -0.1289    1.0619   27.7088 C.ar    1  UNL1        0.0636
     19 C          -0.7258    0.1977   28.7797 C.3     1  UNL1        0.0524
     20 C           0.9276    2.1082   27.9070 C.ar    1  UNL1        0.0278
     21 S           1.2258    2.7244   26.5723 S.2     1  UNL1       -0.0556
     22 C           1.5725    2.4741   29.2109 C.3     1  UNL1        0.0605
     23 C           0.9301    3.4922   30.1057 C.ar    1  UNL1       -0.0172
     24 C           0.6396    3.1549   31.5381 C.ar    1  UNL1       -0.0031
     25 C          -0.0028    4.1731   32.4329 C.ar    1  UNL1        0.0111
     26 C          -0.3547    5.5285   31.8953 C.ar    1  UNL1        0.0577
     27 CL         -0.9972    6.5467   32.7902 Cl      1  UNL1       -0.0822
     28 C          -0.0643    5.8658   30.4629 C.ar    1  UNL1        0.0111
     29 C           0.5782    4.8477   29.5681 C.ar    1  UNL1       -0.0031
     30 C          -0.4252    3.5663   23.5818 C.3     1  UNL1        0.1240
     31 C          -1.9122    3.4983   23.3970 C.ar    1  UNL1       -0.0020
     32 C          -2.8155    3.4553   24.5937 C.ar    1  UNL1       -0.0026
     33 C          -4.3026    3.3872   24.4089 C.ar    1  UNL1       -0.0003
     34 C          -4.8862    3.3622   23.0273 C.ar    1  UNL1       -0.0000
     35 C          -3.9829    3.4053   21.8306 C.ar    1  UNL1       -0.0003
     36 C          -2.4959    3.4733   22.0154 C.ar    1  UNL1       -0.0026
@<TRIPOS>BOND
     1    14    15    1
     2    15     2    1
     3     2     3   ar
     4     3     4   ar
     5     4     1    1
     6     1    30    1
     7    30    31    1
     8    31    32   ar
     9    32    33   ar
    10    33    34   ar
    11    34    35   ar
    12    35    36   ar
    13     1    16    1
    14    16    17   ar
    15    17    18   ar
    16    18    19    1
    17    18    20   ar
    18    20    22    1
    19    22    23    1
    20    23    24   ar
    21    24    25   ar
    22    25    26   ar
    23    26    27    1
    24    26    28   ar
    25    28    29   ar
    26    20    21   ar
    27     4     5   ar
    28     5     6   ar
    29     6     7   ar
    30     7     8    1
    31     8     9   ar
    32     9    10   ar
    33    10    11   ar
    34    11    12    1
    35    11    13   ar
    36     7     2   ar
    37    13     8   ar
    38    36    31   ar
    39    21    16   ar
    40    29    23   ar
@<TRIPOS>MOLECULE
*****
 36 40 0 0 0
SMALL
GASTEIGER

@<TRIPOS>ATOM
      1 N           0.2259    2.5843   22.8419 N.pl3   1  UNL1       -0.2629
      2 C           3.2105    0.3526   21.4775 C.ar    1  UNL1        0.1559
      3 C           2.4456    1.3488   22.2976 C.ar    1  UNL1        0.0533
      4 C           0.9908    1.5880   22.0218 C.ar    1  UNL1        0.0565
      5 C           0.3008    0.8311   20.9259 C.ar    1  UNL1        0.0166
      6 C           1.0657   -0.1651   20.1059 C.ar    1  UNL1        0.0219
      7 C           2.5205   -0.4043   20.3817 C.ar    1  UNL1        0.0995
      8 N           3.2854   -1.4006   19.5615 N.ar    1  UNL1       -0.2839
      9 C           4.0479   -1.1071   18.3035 C.ar    1  UNL1        0.1826
     10 N           4.6558   -2.3903   17.8200 N.ar    1  UNL1       -0.2280
     11 C           4.2691   -3.4769   18.7792 C.ar    1  UNL1        0.0786
     12 C           4.6605   -4.9214   18.6795 C.3     1  UNL1        0.0538
     13 C           3.4221   -2.8651   19.8555 C.ar    1  UNL1        0.0963
     14 C           5.7079    0.8990   21.0145 C.3     1  UNL1        0.2525
     15 O           4.6654    0.1133   21.7533 O.3     1  UNL1       -0.4699
     16 C           0.2937    2.5328   24.3394 C.ar    1  UNL1        0.1664
     17 N           0.6765    3.6663   25.2442 N.ar    1  UNL1       -0.2285
     18 C           0.6100    3.1729   26.6591 C.ar    1  UNL1        0.0636
     19 C           0.9141    3.9768   27.8885 C.3     1  UNL1        0.0524
     20 C           0.1861    1.7343   26.6288 C.ar    1  UNL1        0.0278
     21 S          -0.0094    1.3387   25.1952 S.2     1  UNL1       -0.0556
     22 C          -0.0082    0.8471   27.8226 C.3     1  UNL1        0.0605
     23 C           1.1755    0.4142   28.6360 C.ar    1  UNL1       -0.0172
     24 C           1.2735    0.8005   30.0820 C.ar    1  UNL1       -0.0031
     25 C           2.4571    0.3676   30.8954 C.ar    1  UNL1        0.0111
     26 C           3.5428   -0.4515   30.2626 C.ar    1  UNL1        0.0577
     27 CL          4.7265   -0.8844   31.0760 Cl      1  UNL1       -0.0822
     28 C           3.4448   -0.8378   28.8165 C.ar    1  UNL1        0.0111
     29 C           2.2611   -0.4049   28.0032 C.ar    1  UNL1       -0.0031
     30 C          -0.6068    3.6319   22.1644 C.3     1  UNL1        0.1240
     31 C          -2.1021    3.5137   22.1589 C.ar    1  UNL1       -0.0020
     32 C          -2.8351    3.3286   20.8634 C.ar    1  UNL1       -0.0026
     33 C          -4.3305    3.2104   20.8580 C.ar    1  UNL1       -0.0003
     34 C          -5.0928    3.2774   22.1481 C.ar    1  UNL1       -0.0000
     35 C          -4.3598    3.4625   23.4436 C.ar    1  UNL1       -0.0003
     36 C          -2.8645    3.5807   23.4491 C.ar    1  UNL1       -0.0026
@<TRIPOS>BOND
     1    14    15    1
     2    15     2    1
     3     2     3   ar
     4     3     4   ar
     5     4     1    1
     6     1    30    1
     7    30    31    1
     8    31    32   ar
     9    32    33   ar
    10    33    34   ar
    11    34    35   ar
    12    35    36   ar
    13     1    16    1
    14    16    17   ar
    15    17    18   ar
    16    18    19    1
    17    18    20   ar
    18    20    22    1
    19    22    23    1
    20    23    24   ar
    21    24    25   ar
    22    25    26   ar
    23    26    27    1
    24    26    28   ar
    25    28    29   ar
    26    20    21   ar
    27     4     5   ar
    28     5     6   ar
    29     6     7   ar
    30     7     8    1
    31     8     9   ar
    32     9    10   ar
    33    10    11   ar
    34    11    12    1
    35    11    13   ar
    36     7     2   ar
    37    13     8   ar
    38    36    31   ar
    39    21    16   ar
    40    29    23   ar
@<TRIPOS>MOLECULE
*****
 36 40 0 0 0
SMALL
GASTEIGER

@<TRIPOS>ATOM
      1 N           4.1267   -1.3792   23.2086 N.pl3   1  UNL1       -0.2629
      2 C           3.3267   -0.8349   27.0575 C.ar    1  UNL1        0.1559
      3 C           3.9222   -1.3922   25.7986 C.ar    1  UNL1        0.0533
      4 C           3.5311   -0.8219   24.4675 C.ar    1  UNL1        0.0565
      5 C           2.5446    0.3057   24.3953 C.ar    1  UNL1        0.0166
      6 C           1.9491    0.8630   25.6541 C.ar    1  UNL1        0.0219
      7 C           2.3402    0.2927   26.9852 C.ar    1  UNL1        0.0995
      8 N           1.7446    0.8500   28.2442 N.ar    1  UNL1       -0.2839
      9 C           0.6337    0.2341   29.0419 C.ar    1  UNL1        0.1826
     10 N           0.3580    1.1245   30.2171 N.ar    1  UNL1       -0.2280
     11 C           1.2985    2.2909   30.1456 C.ar    1  UNL1        0.0786
     12 C           1.3696    3.4274   31.1220 C.3     1  UNL1        0.0538
     13 C           2.1555    2.1212   28.9263 C.ar    1  UNL1        0.0963
     14 C           4.9715   -0.9372   29.0659 C.3     1  UNL1        0.2525
     15 O           3.7177   -1.4052   28.3886 O.3     1  UNL1       -0.4699
     16 C           5.4445   -2.0941   23.2548 C.ar    1  UNL1        0.1664
     17 N           6.7973   -1.4475   23.2975 N.ar    1  UNL1       -0.2285
     18 C           7.8298   -2.5349   23.3356 C.ar    1  UNL1        0.0636
     19 C           9.3161   -2.3383   23.3842 C.3     1  UNL1        0.0524
     20 C           7.1151   -3.8536   23.3165 C.ar    1  UNL1        0.0278
     21 S           5.6409   -3.5812   23.2666 S.2     1  UNL1       -0.0556
     22 C           7.7611   -5.2071   23.3427 C.3     1  UNL1        0.0605
     23 C           8.0276   -5.8857   24.6536 C.ar    1  UNL1       -0.0172
     24 C           8.1720   -7.3777   24.7101 C.ar    1  UNL1       -0.0031
     25 C           8.4385   -8.0563   26.0209 C.ar    1  UNL1        0.0111
     26 C           8.5605   -7.2429   27.2754 C.ar    1  UNL1        0.0577
     27 CL          8.8270   -7.9216   28.5863 Cl      1  UNL1       -0.0822
     28 C           8.4161   -5.7510   27.2189 C.ar    1  UNL1        0.0111
     29 C           8.1497   -5.0724   25.9080 C.ar    1  UNL1       -0.0031
     30 C           3.4043   -1.2216   21.9035 C.3     1  UNL1        0.1240
     31 C           4.0526   -1.6725   20.6282 C.ar    1  UNL1       -0.0020
     32 C           3.7508   -3.0332   20.0737 C.ar    1  UNL1       -0.0026
     33 C           4.3991   -3.4840   18.7983 C.ar    1  UNL1       -0.0003
     34 C           5.3493   -2.5743   18.0776 C.ar    1  UNL1       -0.0000
     35 C           5.6511   -1.2136   18.6321 C.ar    1  UNL1       -0.0003
     36 C           5.0028   -0.7627   19.9074 C.ar    1  UNL1       -0.0026
@<TRIPOS>BOND
     1    14    15    1
     2    15     2    1
     3     2     3   ar
     4     3     4   ar
     5     4     1    1
     6     1    30    1
     7    30    31    1
     8    31    32   ar
     9    32    33   ar
    10    33    34   ar
    11    34    35   ar
    12    35    36   ar
    13     1    16    1
    14    16    17   ar
    15    17    18   ar
    16    18    19    1
    17    18    20   ar
    18    20    22    1
    19    22    23    1
    20    23    24   ar
    21    24    25   ar
    22    25    26   ar
    23    26    27    1
    24    26    28   ar
    25    28    29   ar
    26    20    21   ar
    27     4     5   ar
    28     5     6   ar
    29     6     7   ar
    30     7     8    1
    31     8     9   ar
    32     9    10   ar
    33    10    11   ar
    34    11    12    1
    35    11    13   ar
    36     7     2   ar
    37    13     8   ar
    38    36    31   ar
    39    21    16   ar
    40    29    23   ar
@<TRIPOS>MOLECULE
*****
 36 40 0 0 0
SMALL
GASTEIGER

@<TRIPOS>ATOM
      1 N           2.3039    0.1894   29.3238 N.pl3   1  UNL1       -0.2629
      2 C           3.8622   -0.8905   32.8102 C.ar    1  UNL1        0.1559
      3 C           3.3563   -0.9645   31.4001 C.ar    1  UNL1        0.0533
      4 C           2.8098    0.2634   30.7340 C.ar    1  UNL1        0.0565
      5 C           2.7692    1.5652   31.4780 C.ar    1  UNL1        0.0166
      6 C           3.2752    1.6391   32.8882 C.ar    1  UNL1        0.0219
      7 C           3.8216    0.4113   33.5543 C.ar    1  UNL1        0.0995
      8 N           4.3276    0.4852   34.9645 N.ar    1  UNL1       -0.2839
      9 C           5.5470   -0.2041   35.5010 C.ar    1  UNL1        0.1826
     10 N           5.6759    0.1462   36.9538 N.ar    1  UNL1       -0.2280
     11 C           4.5362    1.0521   37.3152 C.ar    1  UNL1        0.0786
     12 C           4.2756    1.6444   38.6684 C.3     1  UNL1        0.0538
     13 C           3.7029    1.2616   36.0857 C.ar    1  UNL1        0.0963
     14 C           5.4651   -2.9351   32.7930 C.3     1  UNL1        0.2525
     15 O           4.4087   -2.1184   33.4763 O.3     1  UNL1       -0.4699
     16 C           3.2692    0.0173   28.1887 C.ar    1  UNL1        0.1664
     17 N           4.1638    1.0803   27.6232 N.ar    1  UNL1       -0.2285
     18 C           4.9569    0.4720   26.5048 C.ar    1  UNL1        0.0636
     19 C           5.9756    1.1785   25.6604 C.3     1  UNL1        0.0524
     20 C           4.5525   -0.9671   26.3791 C.ar    1  UNL1        0.0278
     21 S           3.5095   -1.2480   27.4198 S.2     1  UNL1       -0.0556
     22 C           5.0958   -1.9522   25.3869 C.3     1  UNL1        0.0605
     23 C           4.5566   -1.9821   23.9875 C.ar    1  UNL1       -0.0172
     24 C           4.9976   -3.0551   23.0367 C.ar    1  UNL1       -0.0031
     25 C           4.4584   -3.0851   21.6373 C.ar    1  UNL1        0.0111
     26 C           3.4781   -2.0421   21.1888 C.ar    1  UNL1        0.0577
     27 CL          2.9388   -2.0721   19.7893 Cl      1  UNL1       -0.0822
     28 C           3.0371   -0.9691   22.1396 C.ar    1  UNL1        0.0111
     29 C           3.5763   -0.9391   23.5390 C.ar    1  UNL1       -0.0031
     30 C           0.8326    0.2875   29.0487 C.3     1  UNL1        0.1240
     31 C           0.2801    1.4900   28.3425 C.ar    1  UNL1       -0.0020
     32 C           0.6572    2.8677   28.8005 C.ar    1  UNL1       -0.0026
     33 C           0.1047    4.0703   28.0942 C.ar    1  UNL1       -0.0003
     34 C          -0.8248    3.8951   26.9301 C.ar    1  UNL1       -0.0000
     35 C          -1.2018    2.5174   26.4721 C.ar    1  UNL1       -0.0003
     36 C          -0.6494    1.3149   27.1783 C.ar    1  UNL1       -0.0026
@<TRIPOS>BOND
     1    14    15    1
     2    15     2    1
     3     2     3   ar
     4     3     4   ar
     5     4     1    1
     6     1    30    1
     7    30    31    1
     8    31    32   ar
     9    32    33   ar
    10    33    34   ar
    11    34    35   ar
    12    35    36   ar
    13     1    16    1
    14    16    17   ar
    15    17    18   ar
    16    18    19    1
    17    18    20   ar
    18    20    22    1
    19    22    23    1
    20    23    24   ar
    21    24    25   ar
    22    25    26   ar
    23    26    27    1
    24    26    28   ar
    25    28    29   ar
    26    20    21   ar
    27     4     5   ar
    28     5     6   ar
    29     6     7   ar
    30     7     8    1
    31     8     9   ar
    32     9    10   ar
    33    10    11   ar
    34    11    12    1
    35    11    13   ar
    36     7     2   ar
    37    13     8   ar
    38    36    31   ar
    39    21    16   ar
    40    29    23   ar
@<TRIPOS>MOLECULE
*****
 36 40 0 0 0
SMALL
GASTEIGER

@<TRIPOS>ATOM
      1 N           3.8728   -0.3657   21.6172 N.pl3   1  UNL1       -0.2629
      2 C           1.5017    2.8068   21.3656 C.ar    1  UNL1        0.1559
      3 C           2.7150    1.9601   21.6127 C.ar    1  UNL1        0.0533
      4 C           2.6594    0.4809   21.3700 C.ar    1  UNL1        0.0565
      5 C           1.3906   -0.1516   20.8802 C.ar    1  UNL1        0.0166
      6 C           0.1773    0.6950   20.6331 C.ar    1  UNL1        0.0219
      7 C           0.2329    2.1742   20.8758 C.ar    1  UNL1        0.0995
      8 N          -0.9805    3.0209   20.6287 N.ar    1  UNL1       -0.2839
      9 C          -2.0467    3.3477   21.6318 C.ar    1  UNL1        0.1826
     10 N          -3.0658    4.2182   20.9581 N.ar    1  UNL1       -0.2280
     11 C          -2.6293    4.4293   19.5385 C.ar    1  UNL1        0.0786
     12 C          -3.3543    5.2383   18.5043 C.3     1  UNL1        0.0538
     13 C          -1.3405    3.6894   19.3350 C.ar    1  UNL1        0.0963
     14 C           2.1843    5.1902   20.5890 C.3     1  UNL1        0.2525
     15 O           1.5572    4.2860   21.6083 O.3     1  UNL1       -0.4699
     16 C           4.2416   -0.7572   23.0174 C.ar    1  UNL1        0.1664
     17 N           3.3438   -0.6902   24.2172 N.ar    1  UNL1       -0.2285
     18 C           4.1203   -1.1760   25.4050 C.ar    1  UNL1        0.0636
     19 C           3.6089   -1.2769   26.8115 C.3     1  UNL1        0.0524
     20 C           5.4982   -1.5432   24.9393 C.ar    1  UNL1        0.0278
     21 S           5.5731   -1.2844   23.4637 S.2     1  UNL1       -0.0556
     22 C           6.6065   -2.0758   25.7984 C.3     1  UNL1        0.0605
     23 C           6.8346   -3.5551   25.8966 C.ar    1  UNL1       -0.0172
     24 C           7.3972   -4.3064   24.7267 C.ar    1  UNL1       -0.0031
     25 C           7.6253   -5.7857   24.8249 C.ar    1  UNL1        0.0111
     26 C           7.2908   -6.5136   26.0930 C.ar    1  UNL1        0.0577
     27 CL          7.5190   -7.9930   26.1912 Cl      1  UNL1       -0.0822
     28 C           6.7282   -5.7622   27.2630 C.ar    1  UNL1        0.0111
     29 C           6.5001   -4.2830   27.1648 C.ar    1  UNL1       -0.0031
     30 C           4.7172   -0.8209   20.4640 C.3     1  UNL1        0.1240
     31 C           4.6343   -2.2410   19.9882 C.ar    1  UNL1       -0.0020
     32 C           5.8637   -3.1002   19.9738 C.ar    1  UNL1       -0.0026
     33 C           5.7807   -4.5203   19.4980 C.ar    1  UNL1       -0.0003
     34 C           4.4683   -5.0812   19.0365 C.ar    1  UNL1       -0.0000
     35 C           3.2389   -4.2219   19.0508 C.ar    1  UNL1       -0.0003
     36 C           3.3218   -2.8019   19.5267 C.ar    1  UNL1       -0.0026
@<TRIPOS>BOND
     1    14    15    1
     2    15     2    1
     3     2     3   ar
     4     3     4   ar
     5     4     1    1
     6     1    30    1
     7    30    31    1
     8    31    32   ar
     9    32    33   ar
    10    33    34   ar
    11    34    35   ar
    12    35    36   ar
    13     1    16    1
    14    16    17   ar
    15    17    18   ar
    16    18    19    1
    17    18    20   ar
    18    20    22    1
    19    22    23    1
    20    23    24   ar
    21    24    25   ar
    22    25    26   ar
    23    26    27    1
    24    26    28   ar
    25    28    29   ar
    26    20    21   ar
    27     4     5   ar
    28     5     6   ar
    29     6     7   ar
    30     7     8    1
    31     8     9   ar
    32     9    10   ar
    33    10    11   ar
    34    11    12    1
    35    11    13   ar
    36     7     2   ar
    37    13     8   ar
    38    36    31   ar
    39    21    16   ar
    40    29    23   ar
