@<TRIPOS>MOLECULE
*****
 32 35 0 0 0
SMALL
GASTEIGER

@<TRIPOS>ATOM
      1 N          -5.5878  -19.0193   20.5910 N.am    1  UNL1       -0.2683
      2 C          -6.9067  -18.4915   21.0727 C.2     1  UNL1        0.3047
      3 O          -6.9662  -17.6244   22.2952 O.2     1  UNL1       -0.2525
      4 N          -8.1661  -18.8308   20.3318 N.am    1  UNL1       -0.2863
      5 H          -5.5487  -19.5884   19.7886 H       1  UNL1        0.1564
      6 H          -8.1270  -19.3999   19.5294 H       1  UNL1        0.1512
      7 C          -1.9087  -17.8045   16.8176 C.3     1  UNL1        0.0521
      8 C          -1.8840  -17.8537   18.3166 C.ar    1  UNL1        0.0594
      9 C          -3.1185  -18.2422   19.0747 C.ar    1  UNL1        0.0160
     10 C          -3.0938  -18.2914   20.5737 C.ar    1  UNL1        0.0162
     11 C          -4.3285  -18.6800   21.3319 C.ar    1  UNL1        0.0516
     12 C          -4.3037  -18.7292   22.8308 C.ar    1  UNL1        0.0147
     13 C          -3.0443  -18.3898   23.5717 C.ar    1  UNL1        0.0013
     14 C          -1.8097  -18.0013   22.8136 C.ar    1  UNL1        0.0016
     15 C          -1.8345  -17.9521   21.3146 C.ar    1  UNL1        0.0204
     16 C          -0.5999  -17.5636   20.5565 C.ar    1  UNL1        0.0984
     17 N          -0.6246  -17.5144   19.0575 N.ar    1  UNL1       -0.2481
     18 C          -9.4849  -18.3030   20.8135 C.3     1  UNL1        0.1022
     19 C         -10.2105  -17.2585   20.0181 C.3     1  UNL1        0.0700
     20 C         -11.5294  -16.7307   20.4998 C.3     1  UNL1        0.2000
     21 O         -12.1226  -17.2474   21.7769 O.3     1  UNL1       -0.4772
     22 C         -11.3971  -18.2918   22.5724 C.ar    1  UNL1        0.1361
     23 C         -11.9903  -18.8084   23.8495 C.ar    1  UNL1        0.0389
     24 C         -11.2648  -19.8529   24.6449 C.ar    1  UNL1        0.0327
     25 C          -9.9459  -20.3807   24.1632 C.ar    1  UNL1        0.1401
     26 F          -9.2204  -21.4251   24.9587 F       1  UNL1       -0.2042
     27 C          -9.3527  -19.8640   22.8861 C.ar    1  UNL1        0.0300
     28 C         -10.0782  -18.8196   22.0907 C.ar    1  UNL1        0.0319
     29 C         -12.7948  -15.9265   20.5431 C.3     1  UNL1        0.2357
     30 F         -13.2627  -15.1978   19.3184 F       1  UNL1       -0.2303
     31 C         -11.3756  -15.9348   19.2377 C.3     1  UNL1        0.2357
     32 F         -10.4150  -14.7837   19.1894 F       1  UNL1       -0.2303
@<TRIPOS>BOND
     1     7     8    1
     2     8     9   ar
     3     9    10   ar
     4    10    11   ar
     5    11     1    1
     6     1     2   am
     7     2     3    2
     8     2     4   am
     9    18     4    1
    10    18    19    1
    11    19    20    1
    12    20    29    1
    13    29    30    1
    14    20    31    1
    15    31    32    1
    16    20    21    1
    17    21    22    1
    18    22    23   ar
    19    23    24   ar
    20    24    25   ar
    21    25    26    1
    22    25    27   ar
    23    27    28   ar
    24    11    12   ar
    25    12    13   ar
    26    13    14   ar
    27    14    15   ar
    28    15    16   ar
    29    16    17   ar
    30    17     8   ar
    31    15    10   ar
    32    28    18    1
    33    28    22   ar
    34     1     5    1
    35     4     6    1
@<TRIPOS>MOLECULE
*****
 32 35 0 0 0
SMALL
GASTEIGER

@<TRIPOS>ATOM
      1 N          -0.6070    3.5915   20.9749 N.am    1  UNL1       -0.2683
      2 C           0.1485    2.3154   20.7495 C.2     1  UNL1        0.3047
      3 O          -0.5961    1.0309   20.5352 O.2     1  UNL1       -0.2525
      4 N           1.6484    2.3237   20.7383 N.am    1  UNL1       -0.2863
      5 H          -0.1183    4.4346   21.1156 H       1  UNL1        0.1564
      6 H           2.1370    3.1667   20.8789 H       1  UNL1        0.1512
      7 C          -2.0676    3.4967   26.1814 C.3     1  UNL1        0.0521
      8 C          -2.8274    3.5142   24.8882 C.ar    1  UNL1        0.0594
      9 C          -2.0873    3.5400   23.5838 C.ar    1  UNL1        0.0160
     10 C          -2.8471    3.5574   22.2906 C.ar    1  UNL1        0.0162
     11 C          -2.1069    3.5832   20.9862 C.ar    1  UNL1        0.0516
     12 C          -2.8667    3.6007   19.6929 C.ar    1  UNL1        0.0147
     13 C          -4.3667    3.5924   19.7042 C.ar    1  UNL1        0.0013
     14 C          -5.1068    3.5666   21.0086 C.ar    1  UNL1        0.0016
     15 C          -4.3470    3.5491   22.3018 C.ar    1  UNL1        0.0204
     16 C          -5.0871    3.5233   23.6062 C.ar    1  UNL1        0.0984
     17 N          -4.3273    3.5059   24.8994 N.ar    1  UNL1       -0.2481
     18 C           2.4037    1.0476   20.5128 C.3     1  UNL1        0.1022
     19 C           2.7482    0.6163   19.1181 C.3     1  UNL1        0.0700
     20 C           3.5036   -0.6599   18.8927 C.3     1  UNL1        0.2000
     21 O           3.9145   -1.5048   20.0620 O.3     1  UNL1       -0.4772
     22 C           3.5701   -1.0735   21.4567 C.ar    1  UNL1        0.1361
     23 C           3.9811   -1.9183   22.6260 C.ar    1  UNL1        0.0389
     24 C           3.6366   -1.4870   24.0208 C.ar    1  UNL1        0.0327
     25 C           2.8813   -0.2109   24.2463 C.ar    1  UNL1        0.1401
     26 F           2.5368    0.2204   25.6410 F       1  UNL1       -0.2042
     27 C           2.4703    0.6339   23.0769 C.ar    1  UNL1        0.0300
     28 C           2.8147    0.2026   21.6822 C.ar    1  UNL1        0.0319
     29 C           4.2003   -1.7774   18.1744 C.3     1  UNL1        0.2357
     30 F           3.9941   -3.1962   18.6154 F       1  UNL1       -0.2303
     31 C           3.3346   -0.2032   17.4739 C.3     1  UNL1        0.2357
     32 F           3.5508   -1.1669   16.3450 F       1  UNL1       -0.2303
@<TRIPOS>BOND
     1     7     8    1
     2     8     9   ar
     3     9    10   ar
     4    10    11   ar
     5    11     1    1
     6     1     2   am
     7     2     3    2
     8     2     4   am
     9    18     4    1
    10    18    19    1
    11    19    20    1
    12    20    29    1
    13    29    30    1
    14    20    31    1
    15    31    32    1
    16    20    21    1
    17    21    22    1
    18    22    23   ar
    19    23    24   ar
    20    24    25   ar
    21    25    26    1
    22    25    27   ar
    23    27    28   ar
    24    11    12   ar
    25    12    13   ar
    26    13    14   ar
    27    14    15   ar
    28    15    16   ar
    29    16    17   ar
    30    17     8   ar
    31    15    10   ar
    32    28    18    1
    33    28    22   ar
    34     1     5    1
    35     4     6    1
@<TRIPOS>MOLECULE
*****
 32 35 0 0 0
SMALL
GASTEIGER

@<TRIPOS>ATOM
      1 N           1.6148    2.3181   20.5752 N.am    1  UNL1       -0.2683
      2 C           0.1244    2.3445   20.7432 C.2     1  UNL1        0.3047
      3 O          -0.6976    1.1583   20.3344 O.2     1  UNL1       -0.2525
      4 N          -0.5439    3.5572   21.3200 N.am    1  UNL1       -0.2863
      5 H           2.1543    3.0967   20.8435 H       1  UNL1        0.1564
      6 H          -0.0044    4.3358   21.5883 H       1  UNL1        0.1512
      7 C           3.2141   -0.6629   24.7948 C.3     1  UNL1        0.0521
      8 C           3.3156   -0.8272   23.3073 C.ar    1  UNL1        0.0594
      9 C           2.7486    0.2212   22.3966 C.ar    1  UNL1        0.0160
     10 C           2.8501    0.0570   20.9091 C.ar    1  UNL1        0.0162
     11 C           2.2831    1.1054   19.9984 C.ar    1  UNL1        0.0516
     12 C           2.3846    0.9412   18.5108 C.ar    1  UNL1        0.0147
     13 C           3.0529   -0.2715   17.9340 C.ar    1  UNL1        0.0013
     14 C           3.6198   -1.3199   18.8447 C.ar    1  UNL1        0.0016
     15 C           3.5184   -1.1557   20.3323 C.ar    1  UNL1        0.0204
     16 C           4.0853   -2.2041   21.2430 C.ar    1  UNL1        0.0984
     17 N           3.9839   -2.0398   22.7305 N.ar    1  UNL1       -0.2481
     18 C          -2.0342    3.5835   21.4880 C.3     1  UNL1        0.1022
     19 C          -2.9244    3.6219   20.2813 C.3     1  UNL1        0.0700
     20 C          -4.4148    3.6483   20.4494 C.3     1  UNL1        0.2000
     21 O          -5.0149    3.6363   21.8241 O.3     1  UNL1       -0.4772
     22 C          -4.1247    3.5979   23.0307 C.ar    1  UNL1        0.1361
     23 C          -4.7247    3.5860   24.4054 C.ar    1  UNL1        0.0389
     24 C          -3.8345    3.5476   25.6120 C.ar    1  UNL1        0.0327
     25 C          -2.3442    3.5212   25.4440 C.ar    1  UNL1        0.1401
     26 F          -1.4540    3.4829   26.6507 F       1  UNL1       -0.2042
     27 C          -1.7441    3.5332   24.0694 C.ar    1  UNL1        0.0300
     28 C          -2.6344    3.5716   22.8627 C.ar    1  UNL1        0.0319
     29 C          -5.8725    3.6830   20.0975 C.3     1  UNL1        0.2357
     30 F          -6.8650    4.2522   21.0675 F       1  UNL1       -0.2303
     31 C          -4.3210    3.6723   18.9525 C.3     1  UNL1        0.2357
     32 F          -5.4729    3.1909   18.1210 F       1  UNL1       -0.2303
@<TRIPOS>BOND
     1     7     8    1
     2     8     9   ar
     3     9    10   ar
     4    10    11   ar
     5    11     1    1
     6     1     2   am
     7     2     3    2
     8     2     4   am
     9    18     4    1
    10    18    19    1
    11    19    20    1
    12    20    29    1
    13    29    30    1
    14    20    31    1
    15    31    32    1
    16    20    21    1
    17    21    22    1
    18    22    23   ar
    19    23    24   ar
    20    24    25   ar
    21    25    26    1
    22    25    27   ar
    23    27    28   ar
    24    11    12   ar
    25    12    13   ar
    26    13    14   ar
    27    14    15   ar
    28    15    16   ar
    29    16    17   ar
    30    17     8   ar
    31    15    10   ar
    32    28    18    1
    33    28    22   ar
    34     1     5    1
    35     4     6    1
@<TRIPOS>MOLECULE
*****
 32 35 0 0 0
SMALL
GASTEIGER

@<TRIPOS>ATOM
      1 N          -6.3810  -18.1117   22.1559 N.am    1  UNL1       -0.2683
      2 C          -7.8768  -18.2199   22.1245 C.2     1  UNL1        0.3047
      3 O          -8.5335  -19.3056   21.3245 O.2     1  UNL1       -0.2525
      4 N          -8.7158  -17.2425   22.8930 N.am    1  UNL1       -0.2863
      5 H          -5.9499  -17.3991   22.6809 H       1  UNL1        0.1564
      6 H          -8.2847  -16.5299   23.4180 H       1  UNL1        0.1512
      7 C          -1.4816  -15.8637   21.7179 C.3     1  UNL1        0.0521
      8 C          -2.0772  -17.1588   21.2510 C.ar    1  UNL1        0.0594
      9 C          -3.5117  -17.4764   21.5526 C.ar    1  UNL1        0.0160
     10 C          -4.1073  -18.7715   21.0857 C.ar    1  UNL1        0.0162
     11 C          -5.5420  -19.0891   21.3874 C.ar    1  UNL1        0.0516
     12 C          -6.1376  -20.3842   20.9205 C.ar    1  UNL1        0.0147
     13 C          -5.2985  -21.3617   20.1519 C.ar    1  UNL1        0.0013
     14 C          -3.8640  -21.0440   19.8503 C.ar    1  UNL1        0.0016
     15 C          -3.2684  -19.7489   20.3172 C.ar    1  UNL1        0.0204
     16 C          -1.8338  -19.4313   20.0155 C.ar    1  UNL1        0.0984
     17 N          -1.2382  -18.1362   20.4824 N.ar    1  UNL1       -0.2481
     18 C         -10.2115  -17.3508   22.8616 C.3     1  UNL1        0.1022
     19 C         -10.9355  -18.0602   23.9672 C.3     1  UNL1        0.0700
     20 C         -12.4314  -18.1684   23.9357 C.3     1  UNL1        0.2000
     21 O         -13.2030  -17.5673   22.7986 O.3     1  UNL1       -0.4772
     22 C         -12.4790  -16.8579   21.6930 C.ar    1  UNL1        0.1361
     23 C         -13.2507  -16.2567   20.5558 C.ar    1  UNL1        0.0389
     24 C         -12.5266  -15.5473   19.4502 C.ar    1  UNL1        0.0327
     25 C         -11.0309  -15.4391   19.4816 C.ar    1  UNL1        0.1401
     26 F         -10.3069  -14.7297   18.3759 F       1  UNL1       -0.2042
     27 C         -10.2592  -16.0402   20.6187 C.ar    1  UNL1        0.0300
     28 C         -10.9833  -16.7496   21.7244 C.ar    1  UNL1        0.0319
     29 C         -13.8274  -18.5290   24.3491 C.3     1  UNL1        0.2357
     30 F         -14.1941  -18.5626   25.8032 F       1  UNL1       -0.2303
     31 C         -12.1445  -18.8948   25.2165 C.3     1  UNL1        0.2357
     32 F         -10.8461  -19.6256   25.3896 F       1  UNL1       -0.2303
@<TRIPOS>BOND
     1     7     8    1
     2     8     9   ar
     3     9    10   ar
     4    10    11   ar
     5    11     1    1
     6     1     2   am
     7     2     3    2
     8     2     4   am
     9    18     4    1
    10    18    19    1
    11    19    20    1
    12    20    29    1
    13    29    30    1
    14    20    31    1
    15    31    32    1
    16    20    21    1
    17    21    22    1
    18    22    23   ar
    19    23    24   ar
    20    24    25   ar
    21    25    26    1
    22    25    27   ar
    23    27    28   ar
    24    11    12   ar
    25    12    13   ar
    26    13    14   ar
    27    14    15   ar
    28    15    16   ar
    29    16    17   ar
    30    17     8   ar
    31    15    10   ar
    32    28    18    1
    33    28    22   ar
    34     1     5    1
    35     4     6    1
@<TRIPOS>MOLECULE
*****
 32 35 0 0 0
SMALL
GASTEIGER

@<TRIPOS>ATOM
      1 N           1.7438    2.3913   20.4316 N.am    1  UNL1       -0.2683
      2 C           0.3046    2.3918   20.8546 C.2     1  UNL1        0.3047
      3 O          -0.5177    1.1448   20.7176 O.2     1  UNL1       -0.2525
      4 N          -0.3122    3.6391   21.4146 N.am    1  UNL1       -0.2863
      5 H           2.2835    3.2098   20.5215 H       1  UNL1        0.1564
      6 H           0.2276    4.4576   21.5045 H       1  UNL1        0.1512
      7 C           3.1846   -0.6125   24.6920 C.3     1  UNL1        0.0521
      8 C           3.2869   -0.7971   23.2070 C.ar    1  UNL1        0.0594
      9 C           2.7726    0.2657   22.2818 C.ar    1  UNL1        0.0160
     10 C           2.8750    0.0811   20.7968 C.ar    1  UNL1        0.0162
     11 C           2.3605    1.1440   19.8717 C.ar    1  UNL1        0.0516
     12 C           2.4629    0.9594   18.3866 C.ar    1  UNL1        0.0147
     13 C           3.0797   -0.2881   17.8266 C.ar    1  UNL1        0.0013
     14 C           3.5941   -1.3509   18.7517 C.ar    1  UNL1        0.0016
     15 C           3.4917   -1.1663   20.2368 C.ar    1  UNL1        0.0204
     16 C           4.0061   -2.2291   21.1619 C.ar    1  UNL1        0.0984
     17 N           3.9037   -2.0445   22.6470 N.ar    1  UNL1       -0.2481
     18 C          -1.7512    3.6395   21.8376 C.3     1  UNL1        0.1022
     19 C          -2.1050    3.5769   23.2939 C.3     1  UNL1        0.0700
     20 C          -3.5442    3.5773   23.7169 C.3     1  UNL1        0.2000
     21 O          -4.6295    3.6403   22.6835 O.3     1  UNL1       -0.4772
     22 C          -4.2758    3.7029   21.2271 C.ar    1  UNL1        0.1361
     23 C          -5.3612    3.7659   20.1937 C.ar    1  UNL1        0.0389
     24 C          -5.0075    3.8284   18.7374 C.ar    1  UNL1        0.0327
     25 C          -3.5684    3.8281   18.3144 C.ar    1  UNL1        0.1401
     26 F          -3.2147    3.8907   16.8581 F       1  UNL1       -0.2042
     27 C          -2.4830    3.7651   19.3478 C.ar    1  UNL1        0.0300
     28 C          -2.8367    3.7025   20.8042 C.ar    1  UNL1        0.0319
     29 C          -4.7519    3.5529   24.6060 C.3     1  UNL1        0.2357
     30 F          -4.5862    3.4614   26.0940 F       1  UNL1       -0.2303
     31 C          -2.8782    3.5059   25.0591 C.3     1  UNL1        0.2357
     32 F          -1.6002    2.7378   25.2222 F       1  UNL1       -0.2303
@<TRIPOS>BOND
     1     7     8    1
     2     8     9   ar
     3     9    10   ar
     4    10    11   ar
     5    11     1    1
     6     1     2   am
     7     2     3    2
     8     2     4   am
     9    18     4    1
    10    18    19    1
    11    19    20    1
    12    20    29    1
    13    29    30    1
    14    20    31    1
    15    31    32    1
    16    20    21    1
    17    21    22    1
    18    22    23   ar
    19    23    24   ar
    20    24    25   ar
    21    25    26    1
    22    25    27   ar
    23    27    28   ar
    24    11    12   ar
    25    12    13   ar
    26    13    14   ar
    27    14    15   ar
    28    15    16   ar
    29    16    17   ar
    30    17     8   ar
    31    15    10   ar
    32    28    18    1
    33    28    22   ar
    34     1     5    1
    35     4     6    1
@<TRIPOS>MOLECULE
*****
 32 35 0 0 0
SMALL
GASTEIGER

@<TRIPOS>ATOM
      1 N           8.1282   -3.4879   23.0338 N.am    1  UNL1       -0.2683
      2 C           6.8989   -3.0498   22.2943 C.2     1  UNL1        0.3047
      3 O           5.7754   -4.0175   22.0673 O.2     1  UNL1       -0.2525
      4 N           6.7930   -1.6441   21.7818 N.am    1  UNL1       -0.2863
      5 H           8.8656   -2.8528   23.1828 H       1  UNL1        0.1564
      6 H           7.5303   -1.0090   21.9308 H       1  UNL1        0.1512
      7 C           6.1282   -3.4074   28.0581 C.3     1  UNL1        0.0521
      8 C           6.7076   -4.4819   27.1864 C.ar    1  UNL1        0.0594
      9 C           7.1811   -4.1506   25.8022 C.ar    1  UNL1        0.0160
     10 C           7.7605   -5.2250   24.9305 C.ar    1  UNL1        0.0162
     11 C           8.2341   -4.8937   23.5463 C.ar    1  UNL1        0.0516
     12 C           8.8135   -5.9681   22.6746 C.ar    1  UNL1        0.0147
     13 C           8.9194   -7.3739   23.1871 C.ar    1  UNL1        0.0013
     14 C           8.4458   -7.7052   24.5713 C.ar    1  UNL1        0.0016
     15 C           7.8664   -6.6307   25.4430 C.ar    1  UNL1        0.0204
     16 C           7.3929   -6.9620   26.8272 C.ar    1  UNL1        0.0984
     17 N           6.8135   -5.8876   27.6989 N.ar    1  UNL1       -0.2481
     18 C           5.5637   -1.2060   21.0424 C.3     1  UNL1        0.1022
     19 C           5.5247   -1.2757   19.5445 C.3     1  UNL1        0.0700
     20 C           4.2953   -0.8376   18.8050 C.3     1  UNL1        0.2000
     21 O           3.1050   -0.3298   19.5635 O.3     1  UNL1       -0.4772
     22 C           3.1439   -0.2602   21.0613 C.ar    1  UNL1        0.1361
     23 C           1.9536    0.2476   21.8197 C.ar    1  UNL1        0.0389
     24 C           1.9926    0.3173   23.3176 C.ar    1  UNL1        0.0327
     25 C           3.2219   -0.1208   24.0571 C.ar    1  UNL1        0.1401
     26 F           3.2608   -0.0511   25.5550 F       1  UNL1       -0.2042
     27 C           4.4122   -0.6285   23.2987 C.ar    1  UNL1        0.0300
     28 C           4.3732   -0.6982   21.8008 C.ar    1  UNL1        0.0319
     29 C           3.3675   -0.5400   17.6646 C.3     1  UNL1        0.2357
     30 F           3.7423   -0.9407   16.2686 F       1  UNL1       -0.2303
     31 C           5.1635   -1.2420   17.6505 C.3     1  UNL1        0.2357
     32 F           5.8398   -2.5809   17.6537 F       1  UNL1       -0.2303
@<TRIPOS>BOND
     1     7     8    1
     2     8     9   ar
     3     9    10   ar
     4    10    11   ar
     5    11     1    1
     6     1     2   am
     7     2     3    2
     8     2     4   am
     9    18     4    1
    10    18    19    1
    11    19    20    1
    12    20    29    1
    13    29    30    1
    14    20    31    1
    15    31    32    1
    16    20    21    1
    17    21    22    1
    18    22    23   ar
    19    23    24   ar
    20    24    25   ar
    21    25    26    1
    22    25    27   ar
    23    27    28   ar
    24    11    12   ar
    25    12    13   ar
    26    13    14   ar
    27    14    15   ar
    28    15    16   ar
    29    16    17   ar
    30    17     8   ar
    31    15    10   ar
    32    28    18    1
    33    28    22   ar
    34     1     5    1
    35     4     6    1
@<TRIPOS>MOLECULE
*****
 32 35 0 0 0
SMALL
GASTEIGER

@<TRIPOS>ATOM
      1 N           4.3090    0.5124   27.6380 N.am    1  UNL1       -0.2683
      2 C           4.6594   -0.9462   27.6364 C.2     1  UNL1        0.3047
      3 O           3.5717   -1.9789   27.6574 O.2     1  UNL1       -0.2525
      4 N           6.0975   -1.3719   27.6138 N.am    1  UNL1       -0.2863
      5 H           5.0229    1.1902   27.6243 H       1  UNL1        0.1564
      6 H           6.8114   -0.6942   27.6001 H       1  UNL1        0.1512
      7 C           2.9760    1.0178   32.8551 C.3     1  UNL1        0.0521
      8 C           2.2307    1.2108   31.5677 C.ar    1  UNL1        0.0594
      9 C           2.9234    0.9780   30.2579 C.ar    1  UNL1        0.0160
     10 C           2.1781    1.1710   28.9705 C.ar    1  UNL1        0.0162
     11 C           2.8709    0.9382   27.6606 C.ar    1  UNL1        0.0516
     12 C           2.1255    1.1312   26.3733 C.ar    1  UNL1        0.0147
     13 C           0.6874    1.5570   26.3959 C.ar    1  UNL1        0.0013
     14 C          -0.0054    1.7897   27.7058 C.ar    1  UNL1        0.0016
     15 C           0.7400    1.5967   28.9931 C.ar    1  UNL1        0.0204
     16 C           0.0472    1.8295   30.3030 C.ar    1  UNL1        0.0984
     17 N           0.7926    1.6365   31.5903 N.ar    1  UNL1       -0.2481
     18 C           6.4479   -2.8304   27.6122 C.3     1  UNL1        0.1022
     19 C           6.6322   -3.5561   26.3124 C.3     1  UNL1        0.0700
     20 C           6.9826   -5.0146   26.3109 C.3     1  UNL1        0.2000
     21 O           7.1487   -5.7474   27.6091 O.3     1  UNL1       -0.4772
     22 C           6.9644   -5.0218   28.9088 C.ar    1  UNL1        0.1361
     23 C           7.1305   -5.7546   30.2070 C.ar    1  UNL1        0.0389
     24 C           6.9463   -5.0289   31.5068 C.ar    1  UNL1        0.0327
     25 C           6.5959   -3.5705   31.5084 C.ar    1  UNL1        0.1401
     26 F           6.4116   -2.8448   32.8082 F       1  UNL1       -0.2042
     27 C           6.4298   -2.8377   30.2103 C.ar    1  UNL1        0.0300
     28 C           6.6140   -3.5633   28.9105 C.ar    1  UNL1        0.0319
     29 C           7.3154   -6.3837   25.7963 C.3     1  UNL1        0.2357
     30 F           7.6518   -6.5792   24.3477 F       1  UNL1       -0.2303
     31 C           6.9320   -4.7573   24.8339 C.3     1  UNL1        0.2357
     32 F           5.8217   -3.9322   24.2540 F       1  UNL1       -0.2303
@<TRIPOS>BOND
     1     7     8    1
     2     8     9   ar
     3     9    10   ar
     4    10    11   ar
     5    11     1    1
     6     1     2   am
     7     2     3    2
     8     2     4   am
     9    18     4    1
    10    18    19    1
    11    19    20    1
    12    20    29    1
    13    29    30    1
    14    20    31    1
    15    31    32    1
    16    20    21    1
    17    21    22    1
    18    22    23   ar
    19    23    24   ar
    20    24    25   ar
    21    25    26    1
    22    25    27   ar
    23    27    28   ar
    24    11    12   ar
    25    12    13   ar
    26    13    14   ar
    27    14    15   ar
    28    15    16   ar
    29    16    17   ar
    30    17     8   ar
    31    15    10   ar
    32    28    18    1
    33    28    22   ar
    34     1     5    1
    35     4     6    1
@<TRIPOS>MOLECULE
*****
 32 35 0 0 0
SMALL
GASTEIGER

@<TRIPOS>ATOM
      1 N           4.1737    0.6241   27.7834 N.am    1  UNL1       -0.2683
      2 C           4.5465   -0.8279   27.7290 C.2     1  UNL1        0.3047
      3 O           3.4758   -1.8740   27.6323 O.2     1  UNL1       -0.2525
      4 N           5.9899   -1.2338   27.7713 N.am    1  UNL1       -0.2863
      5 H           4.8765    1.3106   27.8469 H       1  UNL1        0.1564
      6 H           6.6926   -0.5472   27.8348 H       1  UNL1        0.1512
      7 C           2.7107    0.4222   22.5806 C.3     1  UNL1        0.0521
      8 C           1.9939    0.7771   23.8496 C.ar    1  UNL1        0.0594
      9 C           2.7205    0.7261   25.1609 C.ar    1  UNL1        0.0160
     10 C           2.0037    1.0809   26.4298 C.ar    1  UNL1        0.0162
     11 C           2.7303    1.0299   27.7411 C.ar    1  UNL1        0.0516
     12 C           2.0135    1.3848   29.0101 C.ar    1  UNL1        0.0147
     13 C           0.5700    1.7907   28.9677 C.ar    1  UNL1        0.0013
     14 C          -0.1566    1.8417   27.6565 C.ar    1  UNL1        0.0016
     15 C           0.5603    1.4868   26.3875 C.ar    1  UNL1        0.0204
     16 C          -0.1663    1.5378   25.0763 C.ar    1  UNL1        0.0984
     17 N           0.5505    1.1829   23.8073 N.ar    1  UNL1       -0.2481
     18 C           6.3626   -2.6857   27.7169 C.3     1  UNL1        0.1022
     19 C           6.5573   -3.3609   26.3917 C.3     1  UNL1        0.0700
     20 C           6.9300   -4.8129   26.3374 C.3     1  UNL1        0.2000
     21 O           7.1079   -5.5896   27.6082 O.3     1  UNL1       -0.4772
     22 C           6.9132   -4.9144   28.9334 C.ar    1  UNL1        0.1361
     23 C           7.0911   -5.6911   30.2042 C.ar    1  UNL1        0.0389
     24 C           6.8964   -5.0159   31.5294 C.ar    1  UNL1        0.0327
     25 C           6.5237   -3.5640   31.5838 C.ar    1  UNL1        0.1401
     26 F           6.3289   -2.8888   32.9090 F       1  UNL1       -0.2042
     27 C           6.3457   -2.7873   30.3130 C.ar    1  UNL1        0.0300
     28 C           6.5405   -3.4625   28.9878 C.ar    1  UNL1        0.0319
     29 C           7.2835   -6.1572   25.7736 C.3     1  UNL1        0.2357
     30 F           6.6735   -7.3982   26.3545 F       1  UNL1       -0.2303
     31 C           6.8749   -4.5030   24.8707 C.3     1  UNL1        0.2357
     32 F           5.6654   -3.8313   24.2911 F       1  UNL1       -0.2303
@<TRIPOS>BOND
     1     7     8    1
     2     8     9   ar
     3     9    10   ar
     4    10    11   ar
     5    11     1    1
     6     1     2   am
     7     2     3    2
     8     2     4   am
     9    18     4    1
    10    18    19    1
    11    19    20    1
    12    20    29    1
    13    29    30    1
    14    20    31    1
    15    31    32    1
    16    20    21    1
    17    21    22    1
    18    22    23   ar
    19    23    24   ar
    20    24    25   ar
    21    25    26    1
    22    25    27   ar
    23    27    28   ar
    24    11    12   ar
    25    12    13   ar
    26    13    14   ar
    27    14    15   ar
    28    15    16   ar
    29    16    17   ar
    30    17     8   ar
    31    15    10   ar
    32    28    18    1
    33    28    22   ar
    34     1     5    1
    35     4     6    1
@<TRIPOS>MOLECULE
*****
 32 35 0 0 0
SMALL
GASTEIGER

@<TRIPOS>ATOM
      1 N           5.8985   -0.6221   26.0458 N.am    1  UNL1       -0.2683
      2 C           5.6209   -1.3081   27.3506 C.2     1  UNL1        0.3047
      3 O           4.4116   -2.1837   27.4952 O.2     1  UNL1       -0.2525
      4 N           6.5527   -1.1185   28.5107 N.am    1  UNL1       -0.2863
      5 H           6.6922   -0.0474   25.9508 H       1  UNL1        0.1564
      6 H           7.3464   -0.5438   28.4158 H       1  UNL1        0.1512
      7 C           7.6622   -5.0003   23.4055 C.3     1  UNL1        0.0521
      8 C           6.5224   -4.0479   23.1954 C.ar    1  UNL1        0.0594
      9 C           6.3145   -2.9060   24.1455 C.ar    1  UNL1        0.0160
     10 C           5.1747   -1.9537   23.9355 C.ar    1  UNL1        0.0162
     11 C           4.9668   -0.8117   24.8857 C.ar    1  UNL1        0.0516
     12 C           3.8271    0.1406   24.6756 C.ar    1  UNL1        0.0147
     13 C           2.8953   -0.0490   23.5155 C.ar    1  UNL1        0.0013
     14 C           3.1033   -1.1909   22.5654 C.ar    1  UNL1        0.0016
     15 C           4.2430   -2.1433   22.7754 C.ar    1  UNL1        0.0204
     16 C           4.4510   -3.2852   21.8253 C.ar    1  UNL1        0.0984
     17 N           5.5907   -4.2375   22.0353 N.ar    1  UNL1       -0.2481
     18 C           6.2751   -1.8045   29.8154 C.3     1  UNL1        0.1022
     19 C           5.4839   -1.1020   30.8787 C.3     1  UNL1        0.0700
     20 C           5.2064   -1.7880   32.1835 C.3     1  UNL1        0.2000
     21 O           5.7199   -3.1765   32.4249 O.3     1  UNL1       -0.4772
     22 C           6.5110   -3.8790   31.3616 C.ar    1  UNL1        0.1361
     23 C           7.0245   -5.2675   31.6030 C.ar    1  UNL1        0.0389
     24 C           7.8157   -5.9700   30.5397 C.ar    1  UNL1        0.0327
     25 C           8.0933   -5.2841   29.2350 C.ar    1  UNL1        0.1401
     26 F           8.8844   -5.9866   28.1717 F       1  UNL1       -0.2042
     27 C           7.5797   -3.8956   28.9936 C.ar    1  UNL1        0.0300
     28 C           6.7886   -3.1931   30.0569 C.ar    1  UNL1        0.0319
     29 C           4.6879   -2.0197   33.5718 C.3     1  UNL1        0.2357
     30 F           3.9083   -3.2626   33.8836 F       1  UNL1       -0.2303
     31 C           4.5127   -0.4800   32.4242 C.3     1  UNL1        0.2357
     32 F           3.3205   -0.4193   33.3324 F       1  UNL1       -0.2303
@<TRIPOS>BOND
     1     7     8    1
     2     8     9   ar
     3     9    10   ar
     4    10    11   ar
     5    11     1    1
     6     1     2   am
     7     2     3    2
     8     2     4   am
     9    18     4    1
    10    18    19    1
    11    19    20    1
    12    20    29    1
    13    29    30    1
    14    20    31    1
    15    31    32    1
    16    20    21    1
    17    21    22    1
    18    22    23   ar
    19    23    24   ar
    20    24    25   ar
    21    25    26    1
    22    25    27   ar
    23    27    28   ar
    24    11    12   ar
    25    12    13   ar
    26    13    14   ar
    27    14    15   ar
    28    15    16   ar
    29    16    17   ar
    30    17     8   ar
    31    15    10   ar
    32    28    18    1
    33    28    22   ar
    34     1     5    1
    35     4     6    1
