@<TRIPOS>MOLECULE
*****
 30 34 0 0 0
SMALL
GASTEIGER

@<TRIPOS>ATOM
      1 C          -8.3469  -15.4001   25.2264 C.3     1  UNL1        0.1128
      2 O          -8.3748  -14.8321   26.6144 O.3     1  UNL1       -0.3844
      3 H          -9.2685  -14.5130   26.8153 H       1  UNL1        0.2103
      4 O          -1.9641  -17.4933   23.7680 O.2     1  UNL1       -0.2749
      5 C          -3.2477  -17.6538   23.0087 C.2     1  UNL1        0.2251
      6 N          -4.5225  -17.0904   23.5632 N.am    1  UNL1       -0.2795
      7 C          -4.5137  -16.3664   24.8769 C.3     1  UNL1        0.0935
      8 C          -5.7885  -15.8030   25.4313 C.3     1  UNL1        0.0240
      9 C          -7.0721  -15.9635   24.6720 C.3     1  UNL1        0.0304
     10 C          -7.0810  -16.6874   23.3583 C.3     1  UNL1        0.0240
     11 C          -5.8062  -17.2509   22.8039 C.3     1  UNL1        0.0935
     12 C          -3.2565  -18.3778   21.6950 C.3     1  UNL1        0.0767
     13 C          -2.5665  -17.7802   20.5047 C.3     1  UNL1        0.0091
     14 C          -2.5753  -18.5040   19.1910 C.3     1  UNL1        0.0005
     15 C          -3.2740  -19.8256   19.0676 C.3     1  UNL1        0.0000
     16 C          -3.9640  -20.4232   20.2579 C.3     1  UNL1        0.0005
     17 C          -3.9553  -19.6993   21.5716 C.3     1  UNL1        0.0091
     18 C          -9.5940  -15.4046   24.3927 C.3     1  UNL1        0.0564
     19 C         -10.0136  -16.6546   23.6776 C.3     1  UNL1        0.1119
     20 C         -10.4978  -16.7393   22.2604 C.ar    1  UNL1       -0.0002
     21 C         -10.6978  -15.6935   21.2039 C.ar    1  UNL1       -0.0024
     22 C         -11.2062  -16.0849   19.8481 C.ar    1  UNL1       -0.0003
     23 C         -11.5144  -17.5220   19.5487 C.ar    1  UNL1        0.0000
     24 C         -11.3144  -18.5678   20.6052 C.ar    1  UNL1        0.0012
     25 C         -10.8061  -18.1765   21.9611 C.ar    1  UNL1        0.0152
     26 C         -10.5124  -18.9799   23.1932 C.ar    1  UNL1        0.0804
     27 C         -10.5214  -20.3648   23.7697 C.ar    1  UNL1        0.1177
     28 N         -10.0372  -20.2800   25.1869 N.ar    1  UNL1       -0.2223
     29 C          -9.7289  -18.8428   25.4863 C.ar    1  UNL1        0.1788
     30 N         -10.0226  -18.0394   24.2541 N.ar    1  UNL1       -0.3069
@<TRIPOS>BOND
     1     4     5    2
     2     5    12    1
     3    12    13    1
     4    13    14    1
     5    14    15    1
     6    15    16    1
     7    16    17    1
     8     5     6   am
     9     6     7    1
    10     7     8    1
    11     8     9    1
    12     9     1    1
    13     1     2    1
    14     1    18    1
    15    18    19    1
    16    19    20    1
    17    20    21   ar
    18    21    22   ar
    19    22    23   ar
    20    23    24   ar
    21    24    25   ar
    22    25    26    1
    23    26    27   ar
    24    27    28   ar
    25    28    29   ar
    26    29    30   ar
    27     9    10    1
    28    10    11    1
    29    17    12    1
    30    11     6    1
    31    30    19    1
    32    25    20   ar
    33    30    26   ar
    34     2     3    1
@<TRIPOS>MOLECULE
*****
 30 34 0 0 0
SMALL
GASTEIGER

@<TRIPOS>ATOM
      1 C          -8.4464  -15.4208   25.1097 C.3     1  UNL1        0.1128
      2 O          -8.5457  -15.0161   26.5507 O.3     1  UNL1       -0.3844
      3 H          -9.4368  -14.6779   26.7308 H       1  UNL1        0.2103
      4 O          -2.0276  -17.4542   23.7264 O.2     1  UNL1       -0.2749
      5 C          -3.3063  -17.6560   22.9688 C.2     1  UNL1        0.2251
      6 N          -4.5914  -17.0971   23.5041 N.am    1  UNL1       -0.2795
      7 C          -4.5975  -16.3366   24.7969 C.3     1  UNL1        0.0935
      8 C          -5.8826  -15.7778   25.3321 C.3     1  UNL1        0.0240
      9 C          -7.1613  -15.9796   24.5745 C.3     1  UNL1        0.0304
     10 C          -7.1552  -16.7401   23.2817 C.3     1  UNL1        0.0240
     11 C          -5.8701  -17.2989   22.7465 C.3     1  UNL1        0.0935
     12 C          -3.3001  -18.4166   21.6760 C.3     1  UNL1        0.0767
     13 C          -4.0064  -19.7363   21.5788 C.3     1  UNL1        0.0091
     14 C          -4.0002  -20.4970   20.2861 C.3     1  UNL1        0.0005
     15 C          -3.2876  -19.9378   19.0904 C.3     1  UNL1        0.0000
     16 C          -2.5813  -18.6181   19.1876 C.3     1  UNL1        0.0005
     17 C          -2.5875  -17.8575   20.4803 C.3     1  UNL1        0.0091
     18 C          -9.6321  -15.2667   24.2039 C.3     1  UNL1        0.0564
     19 C         -10.0476  -16.3996   23.3130 C.3     1  UNL1        0.1119
     20 C         -10.1507  -17.8422   23.7111 C.ar    1  UNL1       -0.0002
     21 C          -9.8936  -18.5455   25.0108 C.ar    1  UNL1       -0.0024
     22 C         -10.0856  -20.0297   25.1111 C.ar    1  UNL1       -0.0003
     23 C         -10.5347  -20.8106   23.9118 C.ar    1  UNL1        0.0000
     24 C         -10.7917  -20.1073   22.6121 C.ar    1  UNL1        0.0012
     25 C         -10.5997  -18.6231   22.5118 C.ar    1  UNL1        0.0152
     26 C         -10.7742  -17.6632   21.3724 C.ar    1  UNL1        0.0804
     27 C         -11.1596  -17.5526   19.9269 C.ar    1  UNL1        0.1177
     28 N         -11.0565  -16.1100   19.5288 N.ar    1  UNL1       -0.2223
     29 C         -10.6074  -15.3291   20.7282 C.ar    1  UNL1        0.1788
     30 N         -10.4329  -16.2890   21.8676 N.ar    1  UNL1       -0.3069
@<TRIPOS>BOND
     1     4     5    2
     2     5    12    1
     3    12    13    1
     4    13    14    1
     5    14    15    1
     6    15    16    1
     7    16    17    1
     8     5     6   am
     9     6     7    1
    10     7     8    1
    11     8     9    1
    12     9     1    1
    13     1     2    1
    14     1    18    1
    15    18    19    1
    16    19    20    1
    17    20    21   ar
    18    21    22   ar
    19    22    23   ar
    20    23    24   ar
    21    24    25   ar
    22    25    26    1
    23    26    27   ar
    24    27    28   ar
    25    28    29   ar
    26    29    30   ar
    27     9    10    1
    28    10    11    1
    29    17    12    1
    30    11     6    1
    31    30    19    1
    32    25    20   ar
    33    30    26   ar
    34     2     3    1
@<TRIPOS>MOLECULE
*****
 30 34 0 0 0
SMALL
GASTEIGER

@<TRIPOS>ATOM
      1 C          -5.4014  -16.0668   23.9346 C.3     1  UNL1        0.1128
      2 O          -5.0927  -14.6717   24.3913 O.3     1  UNL1       -0.3844
      3 H          -4.1572  -14.6127   24.6406 H       1  UNL1        0.2103
      4 O         -11.3066  -17.4643   20.7060 O.2     1  UNL1       -0.2749
      5 C         -10.9563  -17.4840   22.1644 C.2     1  UNL1        0.2251
      6 N          -9.5675  -17.1297   22.6069 N.am    1  UNL1       -0.2795
      7 C          -8.5292  -16.7557   21.5911 C.3     1  UNL1        0.0935
      8 C          -7.1404  -16.4014   22.0336 C.3     1  UNL1        0.0240
      9 C          -6.7901  -16.4211   23.4920 C.3     1  UNL1        0.0304
     10 C          -7.8284  -16.7950   24.5079 C.3     1  UNL1        0.0240
     11 C          -9.2172  -17.1493   24.0653 C.3     1  UNL1        0.0935
     12 C         -11.9947  -17.8580   23.1802 C.3     1  UNL1        0.0767
     13 C         -11.5948  -18.5894   24.4272 C.3     1  UNL1        0.0091
     14 C         -12.6331  -18.9634   25.4430 C.3     1  UNL1        0.0005
     15 C         -14.0714  -18.6060   25.2118 C.3     1  UNL1        0.0000
     16 C         -14.4713  -17.8745   23.9648 C.3     1  UNL1        0.0005
     17 C         -13.4330  -17.5005   22.9490 C.3     1  UNL1        0.0091
     18 C          -4.3212  -17.1076   23.9204 C.3     1  UNL1        0.0564
     19 C          -3.9043  -17.7382   22.6249 C.3     1  UNL1        0.1119
     20 C          -4.5787  -18.8961   21.9508 C.ar    1  UNL1       -0.0002
     21 C          -5.7770  -19.7167   22.3258 C.ar    1  UNL1       -0.0024
     22 C          -6.2277  -20.8364   21.4352 C.ar    1  UNL1       -0.0003
     23 C          -5.4800  -21.1356   20.1697 C.ar    1  UNL1        0.0000
     24 C          -4.2817  -20.3150   19.7947 C.ar    1  UNL1        0.0012
     25 C          -3.8311  -19.1953   20.6852 C.ar    1  UNL1        0.0152
     26 C          -2.6946  -18.2223   20.5773 C.ar    1  UNL1        0.0804
     27 C          -1.5301  -17.8058   19.7283 C.ar    1  UNL1        0.1177
     28 N          -0.8557  -16.6479   20.4025 N.ar    1  UNL1       -0.2223
     29 C          -1.6034  -16.3487   21.6681 C.ar    1  UNL1        0.1788
     30 N          -2.7398  -17.3218   21.7760 N.ar    1  UNL1       -0.3069
@<TRIPOS>BOND
     1     4     5    2
     2     5    12    1
     3    12    13    1
     4    13    14    1
     5    14    15    1
     6    15    16    1
     7    16    17    1
     8     5     6   am
     9     6     7    1
    10     7     8    1
    11     8     9    1
    12     9     1    1
    13     1     2    1
    14     1    18    1
    15    18    19    1
    16    19    20    1
    17    20    21   ar
    18    21    22   ar
    19    22    23   ar
    20    23    24   ar
    21    24    25   ar
    22    25    26    1
    23    26    27   ar
    24    27    28   ar
    25    28    29   ar
    26    29    30   ar
    27     9    10    1
    28    10    11    1
    29    17    12    1
    30    11     6    1
    31    30    19    1
    32    25    20   ar
    33    30    26   ar
    34     2     3    1
@<TRIPOS>MOLECULE
*****
 30 34 0 0 0
SMALL
GASTEIGER

@<TRIPOS>ATOM
      1 C           5.2365   -2.2984   25.8638 C.3     1  UNL1        0.1128
      2 O           4.2934   -2.0125   26.9946 O.3     1  UNL1       -0.3844
      3 H           4.7611   -2.1117   27.8386 H       1  UNL1        0.2103
      4 O           3.6242   -3.0601   19.2253 O.2     1  UNL1       -0.2749
      5 C           3.3102   -1.9567   20.1917 C.2     1  UNL1        0.2251
      6 N           3.7918   -2.0422   21.6098 N.am    1  UNL1       -0.2795
      7 C           4.5873   -3.2310   22.0613 C.3     1  UNL1        0.0935
      8 C           5.0689   -3.3163   23.4793 C.3     1  UNL1        0.0240
      9 C           4.7549   -2.2130   24.4457 C.3     1  UNL1        0.0304
     10 C           3.9594   -1.0242   23.9942 C.3     1  UNL1        0.0240
     11 C           3.4778   -0.9388   22.5762 C.3     1  UNL1        0.0935
     12 C           2.5146   -0.7680   19.7401 C.3     1  UNL1        0.0767
     13 C           1.1060   -0.5818   20.2207 C.3     1  UNL1        0.0091
     14 C           0.3103    0.6069   19.7692 C.3     1  UNL1        0.0005
     15 C           0.9234    1.6095   18.8370 C.3     1  UNL1        0.0000
     16 C           2.3321    1.4233   18.3564 C.3     1  UNL1        0.0005
     17 C           3.1277    0.2346   18.8079 C.3     1  UNL1        0.0091
     18 C           6.6612   -2.6697   26.1510 C.3     1  UNL1        0.0564
     19 C           6.9733   -3.9553   26.8580 C.3     1  UNL1        0.1119
     20 C           7.4219   -5.2315   26.2098 C.ar    1  UNL1       -0.0002
     21 C           7.6776   -5.5935   24.7768 C.ar    1  UNL1       -0.0024
     22 C           8.1288   -6.9794   24.4225 C.ar    1  UNL1       -0.0003
     23 C           8.3244   -8.0033   25.5012 C.ar    1  UNL1        0.0000
     24 C           8.0688   -7.6412   26.9342 C.ar    1  UNL1        0.0012
     25 C           7.6175   -6.2553   27.2885 C.ar    1  UNL1        0.0152
     26 C           7.2898   -5.6118   28.6032 C.ar    1  UNL1        0.0804
     27 C           7.2081   -5.8470   30.0825 C.ar    1  UNL1        0.1177
     28 N           6.7595   -4.5707   30.7306 N.ar    1  UNL1       -0.2223
     29 C           6.5639   -3.5468   29.6519 C.ar    1  UNL1        0.1788
     30 N           6.8917   -4.1903   28.3372 N.ar    1  UNL1       -0.3069
@<TRIPOS>BOND
     1     4     5    2
     2     5    12    1
     3    12    13    1
     4    13    14    1
     5    14    15    1
     6    15    16    1
     7    16    17    1
     8     5     6   am
     9     6     7    1
    10     7     8    1
    11     8     9    1
    12     9     1    1
    13     1     2    1
    14     1    18    1
    15    18    19    1
    16    19    20    1
    17    20    21   ar
    18    21    22   ar
    19    22    23   ar
    20    23    24   ar
    21    24    25   ar
    22    25    26    1
    23    26    27   ar
    24    27    28   ar
    25    28    29   ar
    26    29    30   ar
    27     9    10    1
    28    10    11    1
    29    17    12    1
    30    11     6    1
    31    30    19    1
    32    25    20   ar
    33    30    26   ar
    34     2     3    1
@<TRIPOS>MOLECULE
*****
 30 34 0 0 0
SMALL
GASTEIGER

@<TRIPOS>ATOM
      1 C           5.1375   -3.6213   21.3662 C.3     1  UNL1        0.1128
      2 O           6.2782   -4.4320   20.8263 O.3     1  UNL1       -0.3844
      3 H           6.0895   -4.6849   19.9090 H       1  UNL1        0.2103
      4 O           6.3642   -2.0689   27.9491 O.2     1  UNL1       -0.2749
      5 C           5.3253   -1.5560   26.9964 C.2     1  UNL1        0.2251
      6 N           5.2784   -2.0724   25.5888 N.am    1  UNL1       -0.2795
      7 C           6.2703   -3.1016   25.1341 C.3     1  UNL1        0.0935
      8 C           6.2234   -3.6179   23.7265 C.3     1  UNL1        0.0240
      9 C           5.1845   -3.1050   22.7738 C.3     1  UNL1        0.0304
     10 C           4.1926   -2.0758   23.2285 C.3     1  UNL1        0.0240
     11 C           4.2396   -1.5595   24.6361 C.3     1  UNL1        0.0935
     12 C           4.3334   -0.5268   27.4512 C.3     1  UNL1        0.0767
     13 C           4.6577    0.9326   27.3292 C.3     1  UNL1        0.0091
     14 C           3.6659    1.9619   27.7840 C.3     1  UNL1        0.0005
     15 C           2.3498    1.5317   28.3608 C.3     1  UNL1        0.0000
     16 C           2.0255    0.0723   28.4829 C.3     1  UNL1        0.0005
     17 C           3.0173   -0.9570   28.0281 C.3     1  UNL1        0.0091
     18 C           3.9498   -3.3269   20.4986 C.3     1  UNL1        0.0564
     19 C           3.9351   -2.0977   19.6391 C.3     1  UNL1        0.1119
     20 C           2.8360   -1.0788   19.5764 C.ar    1  UNL1       -0.0002
     21 C           1.5206   -0.9762   20.2900 C.ar    1  UNL1       -0.0024
     22 C           0.6078    0.1823   20.0172 C.ar    1  UNL1       -0.0003
     23 C           1.0103    1.2383   19.0308 C.ar    1  UNL1        0.0000
     24 C           2.3257    1.1357   18.3172 C.ar    1  UNL1        0.0012
     25 C           3.2385   -0.0229   18.5900 C.ar    1  UNL1        0.0152
     26 C           4.5864   -0.3892   18.0431 C.ar    1  UNL1        0.0804
     27 C           5.6682    0.0372   17.0955 C.ar    1  UNL1        0.1177
     28 N           6.7674   -0.9817   17.1583 N.ar    1  UNL1       -0.2223
     29 C           6.3648   -2.0377   18.1446 C.ar    1  UNL1        0.1788
     30 N           5.0169   -1.6714   18.6915 N.ar    1  UNL1       -0.3069
@<TRIPOS>BOND
     1     4     5    2
     2     5    12    1
     3    12    13    1
     4    13    14    1
     5    14    15    1
     6    15    16    1
     7    16    17    1
     8     5     6   am
     9     6     7    1
    10     7     8    1
    11     8     9    1
    12     9     1    1
    13     1     2    1
    14     1    18    1
    15    18    19    1
    16    19    20    1
    17    20    21   ar
    18    21    22   ar
    19    22    23   ar
    20    23    24   ar
    21    24    25   ar
    22    25    26    1
    23    26    27   ar
    24    27    28   ar
    25    28    29   ar
    26    29    30   ar
    27     9    10    1
    28    10    11    1
    29    17    12    1
    30    11     6    1
    31    30    19    1
    32    25    20   ar
    33    30    26   ar
    34     2     3    1
@<TRIPOS>MOLECULE
*****
 30 34 0 0 0
SMALL
GASTEIGER

@<TRIPOS>ATOM
      1 C           5.5933   -2.5437   25.6665 C.3     1  UNL1        0.1128
      2 O           4.7720   -2.0756   26.8311 O.3     1  UNL1       -0.3844
      3 H           5.2740   -2.2002   27.6517 H       1  UNL1        0.2103
      4 O           3.5924   -3.3278   19.1373 O.2     1  UNL1       -0.2749
      5 C           3.3779   -2.1987   20.1013 C.2     1  UNL1        0.2251
      6 N           3.9318   -2.2850   21.4926 N.am    1  UNL1       -0.2795
      7 C           4.7001   -3.5003   21.9199 C.3     1  UNL1        0.0935
      8 C           5.2540   -3.5866   23.3113 C.3     1  UNL1        0.0240
      9 C           5.0395   -2.4575   24.2752 C.3     1  UNL1        0.0304
     10 C           4.2712   -1.2422   23.8479 C.3     1  UNL1        0.0240
     11 C           3.7173   -1.1560   22.4565 C.3     1  UNL1        0.0935
     12 C           2.6096   -0.9834   19.6739 C.3     1  UNL1        0.0767
     13 C           1.2329   -0.7373   20.2163 C.3     1  UNL1        0.0091
     14 C           0.4645    0.4779   19.7890 C.3     1  UNL1        0.0005
     15 C           1.0728    1.4471   18.8191 C.3     1  UNL1        0.0000
     16 C           2.4495    1.2010   18.2767 C.3     1  UNL1        0.0005
     17 C           3.2179   -0.0142   18.7040 C.3     1  UNL1        0.0091
     18 C           6.9686   -3.0981   25.8933 C.3     1  UNL1        0.0564
     19 C           7.1570   -4.3030   26.7668 C.3     1  UNL1        0.1119
     20 C           7.0939   -4.3241   28.2653 C.ar    1  UNL1       -0.0002
     21 C           6.8447   -3.2430   29.2747 C.ar    1  UNL1       -0.0024
     22 C           6.8409   -3.5701   30.7386 C.ar    1  UNL1       -0.0003
     23 C           7.0863   -4.9784   31.1930 C.ar    1  UNL1        0.0000
     24 C           7.3356   -6.0595   30.1836 C.ar    1  UNL1        0.0012
     25 C           7.3393   -5.7324   28.7197 C.ar    1  UNL1        0.0152
     26 C           7.5541   -6.5816   27.5020 C.ar    1  UNL1        0.0804
     27 C           7.8386   -7.9769   27.0303 C.ar    1  UNL1        0.1177
     28 N           7.9016   -7.9556   25.5318 N.ar    1  UNL1       -0.2223
     29 C           7.6562   -6.5474   25.0773 C.ar    1  UNL1        0.1788
     30 N           7.4414   -5.6982   26.2950 N.ar    1  UNL1       -0.3069
@<TRIPOS>BOND
     1     4     5    2
     2     5    12    1
     3    12    13    1
     4    13    14    1
     5    14    15    1
     6    15    16    1
     7    16    17    1
     8     5     6   am
     9     6     7    1
    10     7     8    1
    11     8     9    1
    12     9     1    1
    13     1     2    1
    14     1    18    1
    15    18    19    1
    16    19    20    1
    17    20    21   ar
    18    21    22   ar
    19    22    23   ar
    20    23    24   ar
    21    24    25   ar
    22    25    26    1
    23    26    27   ar
    24    27    28   ar
    25    28    29   ar
    26    29    30   ar
    27     9    10    1
    28    10    11    1
    29    17    12    1
    30    11     6    1
    31    30    19    1
    32    25    20   ar
    33    30    26   ar
    34     2     3    1
@<TRIPOS>MOLECULE
*****
 30 34 0 0 0
SMALL
GASTEIGER

@<TRIPOS>ATOM
      1 C           4.0341   -1.2695   26.9601 C.3     1  UNL1        0.1128
      2 O           2.8654   -1.4542   27.8821 O.3     1  UNL1       -0.3844
      3 H           3.1828   -1.5287   28.7956 H       1  UNL1        0.2103
      4 O           2.1436    0.2961   20.5395 O.2     1  UNL1       -0.2749
      5 C           3.1366   -0.7030   21.0548 C.2     1  UNL1        0.2251
      6 N           3.3610   -0.8446   22.5312 N.am    1  UNL1       -0.2795
      7 C           2.5922    0.0129   23.4922 C.3     1  UNL1        0.0935
      8 C           2.8166   -0.1287   24.9686 C.3     1  UNL1        0.0240
      9 C           3.8097   -1.1278   25.4838 C.3     1  UNL1        0.0304
     10 C           4.5784   -1.9854   24.5228 C.3     1  UNL1        0.0240
     11 C           4.3540   -1.8437   23.0464 C.3     1  UNL1        0.0935
     12 C           3.9053   -1.5605   20.0937 C.3     1  UNL1        0.0767
     13 C           3.3965   -2.9248   19.7335 C.3     1  UNL1        0.0091
     14 C           4.1651   -3.7824   18.7724 C.3     1  UNL1        0.0005
     15 C           5.4426   -3.2756   18.1714 C.3     1  UNL1        0.0000
     16 C           5.9515   -1.9113   18.5316 C.3     1  UNL1        0.0005
     17 C           5.1829   -1.0537   19.4927 C.3     1  UNL1        0.0091
     18 C           5.4273   -1.2264   27.5146 C.3     1  UNL1        0.0564
     19 C           5.9168   -2.3342   28.3996 C.3     1  UNL1        0.1119
     20 C           6.4423   -3.6622   27.9410 C.ar    1  UNL1       -0.0002
     21 C           6.6279   -4.2502   26.5736 C.ar    1  UNL1       -0.0024
     22 C           7.1883   -5.6333   26.4218 C.ar    1  UNL1       -0.0003
     23 C           7.5631   -6.4282   27.6373 C.ar    1  UNL1        0.0000
     24 C           7.3775   -5.8402   29.0047 C.ar    1  UNL1        0.0012
     25 C           6.8171   -4.4572   29.1565 C.ar    1  UNL1        0.0152
     26 C           6.5233   -3.6205   30.3663 C.ar    1  UNL1        0.0804
     27 C           6.5734   -3.5947   31.8653 C.ar    1  UNL1        0.1177
     28 N           6.0479   -2.2667   32.3239 N.ar    1  UNL1       -0.2223
     29 C           5.6731   -1.4717   31.1083 C.ar    1  UNL1        0.1788
     30 N           5.9669   -2.3084   29.8985 N.ar    1  UNL1       -0.3069
@<TRIPOS>BOND
     1     4     5    2
     2     5    12    1
     3    12    13    1
     4    13    14    1
     5    14    15    1
     6    15    16    1
     7    16    17    1
     8     5     6   am
     9     6     7    1
    10     7     8    1
    11     8     9    1
    12     9     1    1
    13     1     2    1
    14     1    18    1
    15    18    19    1
    16    19    20    1
    17    20    21   ar
    18    21    22   ar
    19    22    23   ar
    20    23    24   ar
    21    24    25   ar
    22    25    26    1
    23    26    27   ar
    24    27    28   ar
    25    28    29   ar
    26    29    30   ar
    27     9    10    1
    28    10    11    1
    29    17    12    1
    30    11     6    1
    31    30    19    1
    32    25    20   ar
    33    30    26   ar
    34     2     3    1
@<TRIPOS>MOLECULE
*****
 30 34 0 0 0
SMALL
GASTEIGER

@<TRIPOS>ATOM
      1 C          -0.6862    2.5422   21.1285 C.3     1  UNL1        0.1128
      2 O          -2.1212    2.5206   20.6925 O.3     1  UNL1       -0.3844
      3 H          -2.6368    3.1267   21.2472 H       1  UNL1        0.2103
      4 O           3.5836   -0.7197   16.8415 O.2     1  UNL1       -0.2749
      5 C           3.3561   -0.8847   18.3149 C.2     1  UNL1        0.2251
      6 N           2.3455   -0.0279   19.0182 N.am    1  UNL1       -0.2795
      7 C           1.5625    0.9938   18.2482 C.3     1  UNL1        0.0935
      8 C           0.5519    1.8505   18.9516 C.3     1  UNL1        0.0240
      9 C           0.3244    1.6855   20.4250 C.3     1  UNL1        0.0304
     10 C           1.1074    0.6638   21.1951 C.3     1  UNL1        0.0240
     11 C           2.1179   -0.1929   20.4917 C.3     1  UNL1        0.0935
     12 C           4.1391   -1.9064   19.0849 C.3     1  UNL1        0.0767
     13 C           5.4494   -1.5312   19.7113 C.3     1  UNL1        0.0091
     14 C           6.2325   -2.5529   20.4813 C.3     1  UNL1        0.0005
     15 C           5.7052   -3.9498   20.6249 C.3     1  UNL1        0.0000
     16 C           4.3949   -4.3250   19.9985 C.3     1  UNL1        0.0005
     17 C           3.6119   -3.3033   19.2285 C.3     1  UNL1        0.0091
     18 C          -0.2616    3.4207   22.2679 C.3     1  UNL1        0.0564
     19 C          -0.9033    3.2647   23.6147 C.3     1  UNL1        0.1119
     20 C          -0.3249    2.5291   24.7870 C.ar    1  UNL1       -0.0002
     21 C           0.9638    1.7831   24.9673 C.ar    1  UNL1       -0.0024
     22 C           1.2773    1.1346   26.2830 C.ar    1  UNL1       -0.0003
     23 C           0.3020    1.2322   27.4185 C.ar    1  UNL1        0.0000
     24 C          -0.9868    1.9782   27.2382 C.ar    1  UNL1        0.0012
     25 C          -1.3002    2.6267   25.9225 C.ar    1  UNL1        0.0152
     26 C          -2.4814    3.4225   25.4518 C.ar    1  UNL1        0.0804
     27 C          -3.8142    3.9747   25.8628 C.ar    1  UNL1        0.1177
     28 N          -4.3925    4.7103   24.6904 N.ar    1  UNL1       -0.2223
     29 C          -3.4172    4.6127   23.5549 C.ar    1  UNL1        0.1788
     30 N          -2.2361    3.8169   24.0256 N.ar    1  UNL1       -0.3069
@<TRIPOS>BOND
     1     4     5    2
     2     5    12    1
     3    12    13    1
     4    13    14    1
     5    14    15    1
     6    15    16    1
     7    16    17    1
     8     5     6   am
     9     6     7    1
    10     7     8    1
    11     8     9    1
    12     9     1    1
    13     1     2    1
    14     1    18    1
    15    18    19    1
    16    19    20    1
    17    20    21   ar
    18    21    22   ar
    19    22    23   ar
    20    23    24   ar
    21    24    25   ar
    22    25    26    1
    23    26    27   ar
    24    27    28   ar
    25    28    29   ar
    26    29    30   ar
    27     9    10    1
    28    10    11    1
    29    17    12    1
    30    11     6    1
    31    30    19    1
    32    25    20   ar
    33    30    26   ar
    34     2     3    1
@<TRIPOS>MOLECULE
*****
 30 34 0 0 0
SMALL
GASTEIGER

@<TRIPOS>ATOM
      1 C           7.1492   -3.6799   24.7058 C.3     1  UNL1        0.1128
      2 O           8.3546   -3.0476   24.0756 O.3     1  UNL1       -0.3844
      3 H           8.2132   -2.9637   23.1196 H       1  UNL1        0.2103
      4 O           6.6739   -6.0066   31.1563 O.2     1  UNL1       -0.2749
      5 C           7.0183   -4.6464   30.6259 C.2     1  UNL1        0.2251
      6 N           7.0510   -4.4048   29.1458 N.am    1  UNL1       -0.2795
      7 C           6.7393   -5.5234   28.1963 C.3     1  UNL1        0.0935
      8 C           6.7721   -5.2817   26.7162 C.3     1  UNL1        0.0240
      9 C           7.1165   -3.9215   26.1858 C.3     1  UNL1        0.0304
     10 C           7.4282   -2.8030   27.1354 C.3     1  UNL1        0.0240
     11 C           7.3954   -3.0447   28.6154 C.3     1  UNL1        0.0935
     12 C           7.3300   -3.5280   31.5756 C.3     1  UNL1        0.0767
     13 C           6.2265   -2.6528   32.0916 C.3     1  UNL1        0.0091
     14 C           6.5380   -1.5343   33.0412 C.3     1  UNL1        0.0005
     15 C           7.9532   -1.2910   33.4748 C.3     1  UNL1        0.0000
     16 C           9.0568   -2.1662   32.9589 C.3     1  UNL1        0.0005
     17 C           8.7452   -3.2847   32.0092 C.3     1  UNL1        0.0091
     18 C           5.9765   -4.0705   23.8559 C.3     1  UNL1        0.0564
     19 C           4.9900   -3.0300   23.4151 C.3     1  UNL1        0.1119
     20 C           4.4478   -2.8612   22.0267 C.ar    1  UNL1       -0.0002
     21 C           4.6984   -3.6128   20.7531 C.ar    1  UNL1       -0.0024
     22 C           3.9965   -3.2058   19.4916 C.ar    1  UNL1       -0.0003
     23 C           3.0439   -2.0471   19.5037 C.ar    1  UNL1        0.0000
     24 C           2.7933   -1.2955   20.7773 C.ar    1  UNL1        0.0012
     25 C           3.4953   -1.7025   22.0388 C.ar    1  UNL1        0.0152
     26 C           3.4488   -1.1553   23.4347 C.ar    1  UNL1        0.0804
     27 C           2.8313   -0.1009   24.3049 C.ar    1  UNL1        0.1177
     28 N           3.3735   -0.2698   25.6932 N.ar    1  UNL1       -0.2223
     29 C           4.3261   -1.4285   25.6811 C.ar    1  UNL1        0.1788
     30 N           4.3726   -1.9757   24.2853 N.ar    1  UNL1       -0.3069
@<TRIPOS>BOND
     1     4     5    2
     2     5    12    1
     3    12    13    1
     4    13    14    1
     5    14    15    1
     6    15    16    1
     7    16    17    1
     8     5     6   am
     9     6     7    1
    10     7     8    1
    11     8     9    1
    12     9     1    1
    13     1     2    1
    14     1    18    1
    15    18    19    1
    16    19    20    1
    17    20    21   ar
    18    21    22   ar
    19    22    23   ar
    20    23    24   ar
    21    24    25   ar
    22    25    26    1
    23    26    27   ar
    24    27    28   ar
    25    28    29   ar
    26    29    30   ar
    27     9    10    1
    28    10    11    1
    29    17    12    1
    30    11     6    1
    31    30    19    1
    32    25    20   ar
    33    30    26   ar
    34     2     3    1
