@<TRIPOS>MOLECULE
*****
 27 29 0 0 0
SMALL
GASTEIGER

@<TRIPOS>ATOM
      1 N          -6.9780  -18.5361   20.0946 N.3     1  UNL1       -0.2951
      2 H          -6.1308  -18.4503   19.5331 H       1  UNL1        0.1235
      3 C          -5.2654  -19.0441   21.9812 C.3     1  UNL1        0.0220
      4 C          -6.5582  -18.4310   21.5309 C.3     1  UNL1        0.0768
      5 C          -7.4312  -17.7127   22.5167 C.ar    1  UNL1       -0.0080
      6 C          -7.3040  -16.2281   22.6888 C.ar    1  UNL1       -0.0030
      7 C          -8.1770  -15.5098   23.6747 C.ar    1  UNL1       -0.0003
      8 C          -9.1771  -16.2761   24.4885 C.ar    1  UNL1       -0.0000
      9 C          -9.3044  -17.7608   24.3164 C.ar    1  UNL1       -0.0003
     10 C         -10.3046  -18.5272   25.1302 C.ar    1  UNL1       -0.0000
     11 C         -10.4318  -20.0118   24.9581 C.ar    1  UNL1       -0.0000
     12 C          -9.5588  -20.7301   23.9723 C.ar    1  UNL1       -0.0000
     13 C          -8.5586  -19.9637   23.1585 C.ar    1  UNL1       -0.0003
     14 C          -8.4314  -18.4791   23.3306 C.ar    1  UNL1       -0.0027
     15 C          -7.6959  -19.7611   19.6108 C.3     1  UNL1        0.0691
     16 C          -9.0430  -19.6343   18.9635 C.3     1  UNL1        0.0218
     17 C         -10.2872  -19.7332   19.7955 C.3     1  UNL1        0.0278
     18 C         -10.8008  -18.5262   20.5231 C.ar    1  UNL1       -0.0222
     19 C         -10.3109  -17.1591   20.1473 C.ar    1  UNL1       -0.0043
     20 C         -10.8244  -15.9522   20.8749 C.ar    1  UNL1       -0.0004
     21 C         -11.8278  -16.1122   21.9783 C.ar    1  UNL1        0.0038
     22 C         -12.3177  -17.4792   22.3541 C.ar    1  UNL1        0.0711
     23 C         -11.8042  -18.6863   21.6265 C.ar    1  UNL1       -0.0004
     24 C         -13.3211  -17.6393   23.4576 C.3     1  UNL1        0.4186
     25 F         -14.3246  -17.7993   24.5610 F       1  UNL1       -0.1659
     26 F         -12.9829  -19.0975   23.5537 F       1  UNL1       -0.1659
     27 F         -13.6594  -16.1811   23.3615 F       1  UNL1       -0.1659
@<TRIPOS>BOND
     1     4     3    1
     2     4     1    1
     3     1    15    1
     4    15    16    1
     5    16    17    1
     6    17    18    1
     7    18    19   ar
     8    19    20   ar
     9    20    21   ar
    10    21    22   ar
    11    22    24    1
    12    24    25    1
    13    24    26    1
    14    24    27    1
    15    22    23   ar
    16     4     5    1
    17     5     6   ar
    18     6     7   ar
    19     7     8   ar
    20     8     9   ar
    21     9    10   ar
    22    10    11   ar
    23    11    12   ar
    24    12    13   ar
    25    13    14   ar
    26    23    18   ar
    27    14     5   ar
    28    14     9   ar
    29     1     2    1
@<TRIPOS>MOLECULE
*****
 27 29 0 0 0
SMALL
GASTEIGER

@<TRIPOS>ATOM
      1 N          -7.2114  -18.7900   20.0797 N.3     1  UNL1       -0.2951
      2 H          -6.3609  -18.6952   19.5246 H       1  UNL1        0.1235
      3 C          -5.3512  -19.4648   21.7633 C.3     1  UNL1        0.0220
      4 C          -6.7806  -19.1086   21.4808 C.3     1  UNL1        0.0768
      5 C          -7.7793  -19.0711   22.5994 C.ar    1  UNL1       -0.0080
      6 C          -8.5044  -20.3216   22.9997 C.ar    1  UNL1       -0.0030
      7 C          -9.5032  -20.2841   24.1182 C.ar    1  UNL1       -0.0003
      8 C          -9.7768  -18.9960   24.8365 C.ar    1  UNL1       -0.0000
      9 C          -9.0517  -17.7454   24.4362 C.ar    1  UNL1       -0.0003
     10 C          -9.3253  -16.4573   25.1544 C.ar    1  UNL1       -0.0000
     11 C          -8.6002  -15.2067   24.7541 C.ar    1  UNL1       -0.0000
     12 C          -7.6014  -15.2443   23.6356 C.ar    1  UNL1       -0.0000
     13 C          -7.3278  -16.5323   22.9173 C.ar    1  UNL1       -0.0003
     14 C          -8.0529  -17.7829   23.3176 C.ar    1  UNL1       -0.0027
     15 C          -8.1096  -19.7350   19.3380 C.3     1  UNL1        0.0691
     16 C          -9.5411  -19.3656   19.0843 C.3     1  UNL1        0.0218
     17 C         -10.5929  -19.6981   20.1006 C.3     1  UNL1        0.0278
     18 C         -11.1294  -18.6266   21.0029 C.ar    1  UNL1       -0.0222
     19 C         -10.6633  -17.2097   20.8441 C.ar    1  UNL1       -0.0043
     20 C         -11.1997  -16.1382   21.7464 C.ar    1  UNL1       -0.0004
     21 C         -12.2022  -16.4835   22.8074 C.ar    1  UNL1        0.0038
     22 C         -12.6683  -17.9004   22.9662 C.ar    1  UNL1        0.0711
     23 C         -12.1319  -18.9720   22.0639 C.ar    1  UNL1       -0.0004
     24 C         -13.6708  -18.2457   24.0272 C.3     1  UNL1        0.4186
     25 F         -14.6733  -18.5911   25.0882 F       1  UNL1       -0.1659
     26 F         -14.7574  -18.2675   22.9934 F       1  UNL1       -0.1659
     27 F         -12.5841  -18.2240   25.0610 F       1  UNL1       -0.1659
@<TRIPOS>BOND
     1     4     3    1
     2     4     1    1
     3     1    15    1
     4    15    16    1
     5    16    17    1
     6    17    18    1
     7    18    19   ar
     8    19    20   ar
     9    20    21   ar
    10    21    22   ar
    11    22    24    1
    12    24    25    1
    13    24    26    1
    14    24    27    1
    15    22    23   ar
    16     4     5    1
    17     5     6   ar
    18     6     7   ar
    19     7     8   ar
    20     8     9   ar
    21     9    10   ar
    22    10    11   ar
    23    11    12   ar
    24    12    13   ar
    25    13    14   ar
    26    23    18   ar
    27    14     5   ar
    28    14     9   ar
    29     1     2    1
@<TRIPOS>MOLECULE
*****
 27 29 0 0 0
SMALL
GASTEIGER

@<TRIPOS>ATOM
      1 N          -6.6283  -18.7787   19.8262 N.3     1  UNL1       -0.2951
      2 H          -6.5669  -18.9204   18.8180 H       1  UNL1        0.1235
      3 C          -5.4891  -21.0776   20.2355 C.3     1  UNL1        0.0220
      4 C          -5.5312  -19.5930   20.4455 C.3     1  UNL1        0.0768
      5 C          -4.4763  -18.9226   21.2748 C.ar    1  UNL1       -0.0080
      6 C          -4.6967  -18.7148   22.7438 C.ar    1  UNL1       -0.0030
      7 C          -3.6417  -18.0444   23.5731 C.ar    1  UNL1       -0.0003
      8 C          -2.3664  -17.5818   22.9333 C.ar    1  UNL1       -0.0000
      9 C          -2.1459  -17.7895   21.4641 C.ar    1  UNL1       -0.0003
     10 C          -0.8706  -17.3269   20.8243 C.ar    1  UNL1       -0.0000
     11 C          -0.6502  -17.5346   19.3553 C.ar    1  UNL1       -0.0000
     12 C          -1.7051  -18.2050   18.5260 C.ar    1  UNL1       -0.0000
     13 C          -2.9804  -18.6677   19.1658 C.ar    1  UNL1       -0.0003
     14 C          -3.2009  -18.4599   20.6349 C.ar    1  UNL1       -0.0027
     15 C          -8.0562  -19.0273   20.2123 C.3     1  UNL1        0.0691
     16 C          -9.0158  -19.5974   19.2103 C.3     1  UNL1        0.0218
     17 C         -10.4729  -19.7112   19.5476 C.3     1  UNL1        0.0278
     18 C         -11.1303  -18.6637   20.3964 C.ar    1  UNL1       -0.0222
     19 C         -11.3173  -17.2744   19.8625 C.ar    1  UNL1       -0.0043
     20 C         -11.9746  -16.2269   20.7113 C.ar    1  UNL1       -0.0004
     21 C         -12.4450  -16.5686   22.0941 C.ar    1  UNL1        0.0038
     22 C         -12.2580  -17.9578   22.6280 C.ar    1  UNL1        0.0711
     23 C         -11.6006  -19.0054   21.7792 C.ar    1  UNL1       -0.0004
     24 C         -12.7284  -18.2995   24.0108 C.3     1  UNL1        0.4186
     25 F         -13.1988  -18.6411   25.3935 F       1  UNL1       -0.1659
     26 F         -14.1417  -18.0065   23.6024 F       1  UNL1       -0.1659
     27 F         -11.3151  -18.5924   24.4192 F       1  UNL1       -0.1659
@<TRIPOS>BOND
     1     4     3    1
     2     4     1    1
     3     1    15    1
     4    15    16    1
     5    16    17    1
     6    17    18    1
     7    18    19   ar
     8    19    20   ar
     9    20    21   ar
    10    21    22   ar
    11    22    24    1
    12    24    25    1
    13    24    26    1
    14    24    27    1
    15    22    23   ar
    16     4     5    1
    17     5     6   ar
    18     6     7   ar
    19     7     8   ar
    20     8     9   ar
    21     9    10   ar
    22    10    11   ar
    23    11    12   ar
    24    12    13   ar
    25    13    14   ar
    26    23    18   ar
    27    14     5   ar
    28    14     9   ar
    29     1     2    1
@<TRIPOS>MOLECULE
*****
 27 29 0 0 0
SMALL
GASTEIGER

@<TRIPOS>ATOM
      1 N          -6.3110  -15.8371   23.3721 N.3     1  UNL1       -0.2951
      2 H          -6.9225  -16.5256   22.9334 H       1  UNL1        0.1235
      3 C          -4.8119  -16.4257   25.4108 C.3     1  UNL1        0.0220
      4 C          -5.1582  -16.5948   23.9612 C.3     1  UNL1        0.0768
      5 C          -4.3517  -17.5216   23.1006 C.ar    1  UNL1       -0.0080
      6 C          -2.8554  -17.4179   23.0840 C.ar    1  UNL1       -0.0030
      7 C          -2.0489  -18.3447   22.2234 C.ar    1  UNL1       -0.0003
      8 C          -2.7386  -19.3752   21.3795 C.ar    1  UNL1       -0.0000
      9 C          -4.2350  -19.4789   21.3961 C.ar    1  UNL1       -0.0003
     10 C          -4.9248  -20.5094   20.5522 C.ar    1  UNL1       -0.0000
     11 C          -6.4211  -20.6131   20.5688 C.ar    1  UNL1       -0.0000
     12 C          -7.2276  -19.6863   21.4294 C.ar    1  UNL1       -0.0000
     13 C          -6.5378  -18.6558   22.2733 C.ar    1  UNL1       -0.0003
     14 C          -5.0415  -18.5521   22.2567 C.ar    1  UNL1       -0.0027
     15 C          -7.1778  -14.9866   24.2526 C.3     1  UNL1        0.0691
     16 C          -8.5857  -15.4088   24.5520 C.3     1  UNL1        0.0218
     17 C          -8.8601  -16.7877   25.0750 C.3     1  UNL1        0.0278
     18 C          -9.5512  -17.7958   24.2055 C.ar    1  UNL1       -0.0222
     19 C          -9.7581  -19.1967   24.7004 C.ar    1  UNL1       -0.0043
     20 C         -10.4493  -20.2048   23.8309 C.ar    1  UNL1       -0.0004
     21 C         -10.9336  -19.8121   22.4667 C.ar    1  UNL1        0.0038
     22 C         -10.7267  -18.4113   21.9718 C.ar    1  UNL1        0.0711
     23 C         -10.0355  -17.4031   22.8413 C.ar    1  UNL1       -0.0004
     24 C         -11.2110  -18.0186   20.6075 C.3     1  UNL1        0.4186
     25 F         -11.6953  -17.6259   19.2432 F       1  UNL1       -0.1659
     26 F         -12.5400  -17.6372   21.1891 F       1  UNL1       -0.1659
     27 F          -9.8819  -18.4000   20.0260 F       1  UNL1       -0.1659
@<TRIPOS>BOND
     1     4     3    1
     2     4     1    1
     3     1    15    1
     4    15    16    1
     5    16    17    1
     6    17    18    1
     7    18    19   ar
     8    19    20   ar
     9    20    21   ar
    10    21    22   ar
    11    22    24    1
    12    24    25    1
    13    24    26    1
    14    24    27    1
    15    22    23   ar
    16     4     5    1
    17     5     6   ar
    18     6     7   ar
    19     7     8   ar
    20     8     9   ar
    21     9    10   ar
    22    10    11   ar
    23    11    12   ar
    24    12    13   ar
    25    13    14   ar
    26    23    18   ar
    27    14     5   ar
    28    14     9   ar
    29     1     2    1
@<TRIPOS>MOLECULE
*****
 27 29 0 0 0
SMALL
GASTEIGER

@<TRIPOS>ATOM
      1 N          -4.9967  -15.6390   23.3511 N.3     1  UNL1       -0.2951
      2 H          -5.2344  -15.6070   22.3597 H       1  UNL1        0.1235
      3 C          -4.0000  -17.4416   24.9345 C.3     1  UNL1        0.0220
      4 C          -4.1651  -16.8702   23.5575 C.3     1  UNL1        0.0768
      5 C          -3.4986  -17.5301   22.3869 C.ar    1  UNL1       -0.0080
      6 C          -2.1779  -17.0207   21.8906 C.ar    1  UNL1       -0.0030
      7 C          -1.5115  -17.6805   20.7200 C.ar    1  UNL1       -0.0003
      8 C          -2.1657  -18.8497   20.0455 C.ar    1  UNL1       -0.0000
      9 C          -3.4864  -19.3591   20.5418 C.ar    1  UNL1       -0.0003
     10 C          -4.1406  -20.5284   19.8673 C.ar    1  UNL1       -0.0000
     11 C          -5.4613  -21.0377   20.3635 C.ar    1  UNL1       -0.0000
     12 C          -6.1278  -20.3779   21.5342 C.ar    1  UNL1       -0.0000
     13 C          -5.4736  -19.2087   22.2086 C.ar    1  UNL1       -0.0003
     14 C          -4.1529  -18.6993   21.7124 C.ar    1  UNL1       -0.0027
     15 C          -6.2790  -15.4642   24.1096 C.3     1  UNL1        0.0691
     16 C          -7.4391  -16.3765   23.8419 C.3     1  UNL1        0.0218
     17 C          -8.0223  -16.4633   22.4627 C.3     1  UNL1        0.0278
     18 C          -9.1557  -17.4059   22.1856 C.ar    1  UNL1       -0.0222
     19 C          -9.0122  -18.4615   21.1295 C.ar    1  UNL1       -0.0043
     20 C         -10.1456  -19.4041   20.8524 C.ar    1  UNL1       -0.0004
     21 C         -11.4225  -19.2913   21.6313 C.ar    1  UNL1        0.0038
     22 C         -11.5660  -18.2358   22.6874 C.ar    1  UNL1        0.0711
     23 C         -10.4326  -17.2931   22.9645 C.ar    1  UNL1       -0.0004
     24 C         -12.8429  -18.1230   23.4663 C.3     1  UNL1        0.4186
     25 F         -14.1198  -18.0101   24.2453 F       1  UNL1       -0.1659
     26 F         -13.5835  -17.7924   22.2045 F       1  UNL1       -0.1659
     27 F         -12.1024  -18.4535   24.7282 F       1  UNL1       -0.1659
@<TRIPOS>BOND
     1     4     3    1
     2     4     1    1
     3     1    15    1
     4    15    16    1
     5    16    17    1
     6    17    18    1
     7    18    19   ar
     8    19    20   ar
     9    20    21   ar
    10    21    22   ar
    11    22    24    1
    12    24    25    1
    13    24    26    1
    14    24    27    1
    15    22    23   ar
    16     4     5    1
    17     5     6   ar
    18     6     7   ar
    19     7     8   ar
    20     8     9   ar
    21     9    10   ar
    22    10    11   ar
    23    11    12   ar
    24    12    13   ar
    25    13    14   ar
    26    23    18   ar
    27    14     5   ar
    28    14     9   ar
    29     1     2    1
@<TRIPOS>MOLECULE
*****
 27 29 0 0 0
SMALL
GASTEIGER

@<TRIPOS>ATOM
      1 N          -4.9589  -15.7614   23.4667 N.3     1  UNL1       -0.2951
      2 H          -5.1567  -15.6256   22.4753 H       1  UNL1        0.1235
      3 C          -3.7715  -17.5599   24.9178 C.3     1  UNL1        0.0220
      4 C          -4.3512  -17.1259   23.6042 C.3     1  UNL1        0.0768
      5 C          -4.3231  -18.0564   22.4280 C.ar    1  UNL1       -0.0080
      6 C          -5.3941  -19.0941   22.2669 C.ar    1  UNL1       -0.0030
      7 C          -5.3660  -20.0246   21.0907 C.ar    1  UNL1       -0.0003
      8 C          -4.2670  -19.9173   20.0755 C.ar    1  UNL1       -0.0000
      9 C          -3.1959  -18.8794   20.2366 C.ar    1  UNL1       -0.0003
     10 C          -2.0969  -18.7721   19.2214 C.ar    1  UNL1       -0.0000
     11 C          -1.0259  -17.7343   19.3825 C.ar    1  UNL1       -0.0000
     12 C          -1.0540  -16.8039   20.5587 C.ar    1  UNL1       -0.0000
     13 C          -2.1530  -16.9112   21.5738 C.ar    1  UNL1       -0.0003
     14 C          -3.2240  -17.9490   21.4128 C.ar    1  UNL1       -0.0027
     15 C          -6.2172  -15.4226   24.2096 C.3     1  UNL1        0.0691
     16 C          -7.4670  -16.2165   23.9693 C.3     1  UNL1        0.0218
     17 C          -8.0010  -16.3712   22.5761 C.3     1  UNL1        0.0278
     18 C          -9.0906  -17.3634   22.2965 C.ar    1  UNL1       -0.0222
     19 C          -8.8612  -18.4718   21.3121 C.ar    1  UNL1       -0.0043
     20 C          -9.9508  -19.4640   21.0325 C.ar    1  UNL1       -0.0004
     21 C         -11.2699  -19.3478   21.7371 C.ar    1  UNL1        0.0038
     22 C         -11.4993  -18.2395   22.7214 C.ar    1  UNL1        0.0711
     23 C         -10.4097  -17.2473   23.0011 C.ar    1  UNL1       -0.0004
     24 C         -12.8184  -18.1234   23.4261 C.3     1  UNL1        0.4186
     25 F         -14.1375  -18.0072   24.1307 F       1  UNL1       -0.1659
     26 F         -12.1500  -18.4435   24.7302 F       1  UNL1       -0.1659
     27 F         -13.4869  -17.8032   22.1220 F       1  UNL1       -0.1659
@<TRIPOS>BOND
     1     4     3    1
     2     4     1    1
     3     1    15    1
     4    15    16    1
     5    16    17    1
     6    17    18    1
     7    18    19   ar
     8    19    20   ar
     9    20    21   ar
    10    21    22   ar
    11    22    24    1
    12    24    25    1
    13    24    26    1
    14    24    27    1
    15    22    23   ar
    16     4     5    1
    17     5     6   ar
    18     6     7   ar
    19     7     8   ar
    20     8     9   ar
    21     9    10   ar
    22    10    11   ar
    23    11    12   ar
    24    12    13   ar
    25    13    14   ar
    26    23    18   ar
    27    14     5   ar
    28    14     9   ar
    29     1     2    1
@<TRIPOS>MOLECULE
*****
 27 29 0 0 0
SMALL
GASTEIGER

@<TRIPOS>ATOM
      1 N          -5.1160  -15.6430   23.4056 N.3     1  UNL1       -0.2951
      2 H          -4.8713  -15.3122   22.4722 H       1  UNL1        0.1235
      3 C          -4.1560  -17.4053   25.0556 C.3     1  UNL1        0.0220
      4 C          -4.2890  -16.8680   23.6615 C.3     1  UNL1        0.0768
      5 C          -3.5950  -17.5557   22.5233 C.ar    1  UNL1       -0.0080
      6 C          -2.2285  -17.1074   22.0973 C.ar    1  UNL1       -0.0030
      7 C          -1.5345  -17.7951   20.9590 C.ar    1  UNL1       -0.0003
      8 C          -2.2072  -18.9310   20.2468 C.ar    1  UNL1       -0.0000
      9 C          -3.5738  -19.3793   20.6728 C.ar    1  UNL1       -0.0003
     10 C          -4.2464  -20.5151   19.9606 C.ar    1  UNL1       -0.0000
     11 C          -5.6130  -20.9634   20.3866 C.ar    1  UNL1       -0.0000
     12 C          -6.3069  -20.2757   21.5248 C.ar    1  UNL1       -0.0000
     13 C          -5.6343  -19.1398   22.2370 C.ar    1  UNL1       -0.0003
     14 C          -4.2677  -18.6916   21.8110 C.ar    1  UNL1       -0.0027
     15 C          -6.6129  -15.7243   23.4576 C.3     1  UNL1        0.0691
     16 C          -7.3478  -15.2508   24.6764 C.3     1  UNL1        0.0218
     17 C          -8.8470  -15.2877   24.7098 C.3     1  UNL1        0.0278
     18 C          -9.5823  -16.4471   24.1058 C.ar    1  UNL1       -0.0222
     19 C         -10.6489  -16.2061   23.0788 C.ar    1  UNL1       -0.0043
     20 C         -11.3842  -17.3655   22.4748 C.ar    1  UNL1       -0.0004
     21 C         -11.0531  -18.7661   22.8977 C.ar    1  UNL1        0.0038
     22 C          -9.9867  -19.0072   23.9246 C.ar    1  UNL1        0.0711
     23 C          -9.2513  -17.8477   24.5286 C.ar    1  UNL1       -0.0004
     24 C          -9.6556  -20.4077   24.3474 C.3     1  UNL1        0.4186
     25 F          -9.3245  -21.8083   24.7703 F       1  UNL1       -0.1659
     26 F          -9.0961  -20.6871   22.9840 F       1  UNL1       -0.1659
     27 F         -10.2151  -20.1283   25.7109 F       1  UNL1       -0.1659
@<TRIPOS>BOND
     1     4     3    1
     2     4     1    1
     3     1    15    1
     4    15    16    1
     5    16    17    1
     6    17    18    1
     7    18    19   ar
     8    19    20   ar
     9    20    21   ar
    10    21    22   ar
    11    22    24    1
    12    24    25    1
    13    24    26    1
    14    24    27    1
    15    22    23   ar
    16     4     5    1
    17     5     6   ar
    18     6     7   ar
    19     7     8   ar
    20     8     9   ar
    21     9    10   ar
    22    10    11   ar
    23    11    12   ar
    24    12    13   ar
    25    13    14   ar
    26    23    18   ar
    27    14     5   ar
    28    14     9   ar
    29     1     2    1
@<TRIPOS>MOLECULE
*****
 27 29 0 0 0
SMALL
GASTEIGER

@<TRIPOS>ATOM
      1 N          -5.7665  -15.5070   23.4203 N.3     1  UNL1       -0.2951
      2 H          -5.3938  -15.0882   22.5683 H       1  UNL1        0.1235
      3 C          -4.6520  -16.9752   25.2513 C.3     1  UNL1        0.0220
      4 C          -4.8274  -16.6111   23.8068 C.3     1  UNL1        0.0768
      5 C          -4.0637  -17.3508   22.7488 C.ar    1  UNL1       -0.0080
      6 C          -2.6562  -16.9494   22.4207 C.ar    1  UNL1       -0.0030
      7 C          -1.8925  -17.6892   21.3627 C.ar    1  UNL1       -0.0003
      8 C          -2.5363  -18.8304   20.6326 C.ar    1  UNL1       -0.0000
      9 C          -3.9439  -19.2319   20.9606 C.ar    1  UNL1       -0.0003
     10 C          -4.5878  -20.3731   20.2306 C.ar    1  UNL1       -0.0000
     11 C          -5.9953  -20.7746   20.5586 C.ar    1  UNL1       -0.0000
     12 C          -6.7590  -20.0348   21.6167 C.ar    1  UNL1       -0.0000
     13 C          -6.1151  -18.8936   22.3467 C.ar    1  UNL1       -0.0003
     14 C          -4.7076  -18.4921   22.0187 C.ar    1  UNL1       -0.0027
     15 C          -7.2120  -15.8095   23.1577 C.3     1  UNL1        0.0691
     16 C          -8.0389  -16.4894   24.2084 C.3     1  UNL1        0.0218
     17 C          -9.5345  -16.3808   24.1723 C.3     1  UNL1        0.0278
     18 C         -10.2855  -16.7752   22.9352 C.ar    1  UNL1       -0.0222
     19 C         -11.5003  -16.0013   22.5165 C.ar    1  UNL1       -0.0043
     20 C         -12.2513  -16.3957   21.2794 C.ar    1  UNL1       -0.0004
     21 C         -11.7874  -17.5640   20.4609 C.ar    1  UNL1        0.0038
     22 C         -10.5726  -18.3379   20.8795 C.ar    1  UNL1        0.0711
     23 C          -9.8216  -17.9435   22.1167 C.ar    1  UNL1       -0.0004
     24 C         -10.1087  -19.5062   20.0610 C.3     1  UNL1        0.4186
     25 F          -9.6448  -20.6745   19.2425 F       1  UNL1       -0.1659
     26 F          -9.2424  -18.5917   19.2466 F       1  UNL1       -0.1659
     27 F         -10.9749  -20.4207   20.8754 F       1  UNL1       -0.1659
@<TRIPOS>BOND
     1     4     3    1
     2     4     1    1
     3     1    15    1
     4    15    16    1
     5    16    17    1
     6    17    18    1
     7    18    19   ar
     8    19    20   ar
     9    20    21   ar
    10    21    22   ar
    11    22    24    1
    12    24    25    1
    13    24    26    1
    14    24    27    1
    15    22    23   ar
    16     4     5    1
    17     5     6   ar
    18     6     7   ar
    19     7     8   ar
    20     8     9   ar
    21     9    10   ar
    22    10    11   ar
    23    11    12   ar
    24    12    13   ar
    25    13    14   ar
    26    23    18   ar
    27    14     5   ar
    28    14     9   ar
    29     1     2    1
@<TRIPOS>MOLECULE
*****
 27 29 0 0 0
SMALL
GASTEIGER

@<TRIPOS>ATOM
      1 N          -6.7636  -18.9444   19.7331 N.3     1  UNL1       -0.2951
      2 H          -6.8028  -18.8139   18.7222 H       1  UNL1        0.1235
      3 C          -5.6672  -21.2443   20.2417 C.3     1  UNL1        0.0220
      4 C          -5.5414  -19.7667   20.0165 C.3     1  UNL1        0.0768
      5 C          -4.1934  -19.1113   20.0746 C.ar    1  UNL1       -0.0080
      6 C          -3.3352  -19.0510   18.8459 C.ar    1  UNL1       -0.0030
      7 C          -1.9872  -18.3956   18.9040 C.ar    1  UNL1       -0.0003
      8 C          -1.4974  -17.8004   20.1908 C.ar    1  UNL1       -0.0000
      9 C          -2.3557  -17.8607   21.4196 C.ar    1  UNL1       -0.0003
     10 C          -1.8659  -17.2656   22.7064 C.ar    1  UNL1       -0.0000
     11 C          -2.7242  -17.3258   23.9351 C.ar    1  UNL1       -0.0000
     12 C          -4.0721  -17.9813   23.8770 C.ar    1  UNL1       -0.0000
     13 C          -4.5619  -18.5764   22.5902 C.ar    1  UNL1       -0.0003
     14 C          -3.7037  -18.5161   21.3615 C.ar    1  UNL1       -0.0027
     15 C          -8.1146  -19.4378   20.1587 C.3     1  UNL1        0.0691
     16 C          -9.2117  -19.5868   19.1467 C.3     1  UNL1        0.0218
     17 C         -10.6434  -19.4228   19.5629 C.3     1  UNL1        0.0278
     18 C         -10.9931  -18.5167   20.7059 C.ar    1  UNL1       -0.0222
     19 C         -11.8211  -17.2894   20.4640 C.ar    1  UNL1       -0.0043
     20 C         -12.1707  -16.3833   21.6070 C.ar    1  UNL1       -0.0004
     21 C         -11.6925  -16.7042   22.9920 C.ar    1  UNL1        0.0038
     22 C         -10.8645  -17.9314   23.2340 C.ar    1  UNL1        0.0711
     23 C         -10.5148  -18.8376   22.0909 C.ar    1  UNL1       -0.0004
     24 C         -10.3863  -18.2523   24.6190 C.3     1  UNL1        0.4186
     25 F          -9.9080  -18.5733   26.0040 F       1  UNL1       -0.1659
     26 F          -9.4500  -17.0815   24.5670 F       1  UNL1       -0.1659
     27 F         -11.3225  -19.4231   24.6710 F       1  UNL1       -0.1659
@<TRIPOS>BOND
     1     4     3    1
     2     4     1    1
     3     1    15    1
     4    15    16    1
     5    16    17    1
     6    17    18    1
     7    18    19   ar
     8    19    20   ar
     9    20    21   ar
    10    21    22   ar
    11    22    24    1
    12    24    25    1
    13    24    26    1
    14    24    27    1
    15    22    23   ar
    16     4     5    1
    17     5     6   ar
    18     6     7   ar
    19     7     8   ar
    20     8     9   ar
    21     9    10   ar
    22    10    11   ar
    23    11    12   ar
    24    12    13   ar
    25    13    14   ar
    26    23    18   ar
    27    14     5   ar
    28    14     9   ar
    29     1     2    1
