@<TRIPOS>MOLECULE
*****
 23 26 0 0 0
SMALL
GASTEIGER

@<TRIPOS>ATOM
      1 O          -8.5042  -19.3467   20.3552 O.2     1  UNL1       -0.2448
      2 C          -8.8915  -18.0672   21.0354 C.2     1  UNL1        0.3428
      3 C         -10.3401  -17.7285   21.2273 C.2     1  UNL1        0.0963
      4 C         -11.2179  -17.0185   20.2397 C.2     1  UNL1        0.1049
      5 N         -12.5855  -16.8916   20.8425 N.2     1  UNL1       -0.2476
      6 C         -12.5530  -17.5231   22.2028 C.2     1  UNL1        0.0650
      7 C         -13.6077  -17.6939   23.2555 C.3     1  UNL1        0.0837
      8 C         -13.2747  -18.3820   24.5461 C.2     1  UNL1        0.0419
      9 CL        -14.3294  -18.5529   25.5989 Cl      1  UNL1       -0.0865
     10 C         -11.8869  -18.8993   24.7839 C.2     1  UNL1        0.0142
     11 C         -10.8322  -18.7284   23.7311 C.2     1  UNL1        0.0365
     12 BR         -9.4444  -19.2457   23.9689 Br      1  UNL1       -0.0489
     13 C         -11.1652  -18.0403   22.4406 C.2     1  UNL1        0.0279
     14 O          -7.8302  -17.1263   21.5237 O.3     1  UNL1       -0.4454
     15 C          -8.2138  -15.8973   22.2934 C.3     1  UNL1        0.2087
     16 C          -7.7775  -15.7390   23.7197 C.3     1  UNL1        0.0445
     17 C          -6.3239  -15.5608   24.0441 C.3     1  UNL1        0.0210
     18 C          -5.8878  -15.4025   25.4706 C.3     1  UNL1        0.0722
     19 N          -6.9052  -15.4224   26.5726 N.3     1  UNL1       -0.2727
     20 C          -8.3588  -15.6006   26.2482 C.3     1  UNL1        0.0722
     21 C          -8.7950  -15.7589   24.8218 C.3     1  UNL1        0.0210
     22 C          -7.1921  -15.5130   25.8062 C.3     1  UNL1        0.0722
     23 C          -7.5866  -15.6561   24.5164 C.3     1  UNL1        0.0210
@<TRIPOS>BOND
     1     1     2    2
     2     2    14    1
     3    14    15    1
     4    15    16    1
     5    16    17    1
     6    17    18    1
     7    18    19    1
     8    19    20    1
     9    20    21    1
    10    19    22    1
    11    22    23    1
    12     2     3    1
    13     3     4    2
    14     4     5    1
    15     5     6    2
    16     6     7    1
    17     7     8    1
    18     8     9    1
    19     8    10    2
    20    10    11    1
    21    11    12    1
    22    11    13    2
    23    21    16    1
    24    13     3    1
    25    23    16    1
    26    13     6    1
@<TRIPOS>MOLECULE
*****
 23 26 0 0 0
SMALL
GASTEIGER

@<TRIPOS>ATOM
      1 O          -8.8990  -20.0412   19.6418 O.2     1  UNL1       -0.2448
      2 C          -8.9980  -18.8011   20.4799 C.2     1  UNL1        0.3428
      3 C         -10.3421  -18.2166   20.7987 C.2     1  UNL1        0.0963
      4 C         -11.1522  -17.3279   19.9021 C.2     1  UNL1        0.1049
      5 N         -12.4229  -16.9803   20.6194 N.2     1  UNL1       -0.2476
      6 C         -12.3981  -17.6541   21.9593 C.2     1  UNL1        0.0650
      7 C         -13.3804  -17.6706   23.0928 C.3     1  UNL1        0.0837
      8 C         -13.0767  -18.4512   24.3372 C.2     1  UNL1        0.0419
      9 CL        -14.0590  -18.4677   25.4707 Cl      1  UNL1       -0.0865
     10 C         -11.7907  -19.2153   24.4480 C.2     1  UNL1        0.0142
     11 C         -10.8084  -19.1988   23.3145 C.2     1  UNL1        0.0365
     12 BR         -9.5223  -19.9629   23.4253 Br      1  UNL1       -0.0489
     13 C         -11.1121  -18.4182   22.0702 C.2     1  UNL1        0.0279
     14 O          -7.7528  -18.1456   20.9992 O.3     1  UNL1       -0.4454
     15 C          -6.8832  -18.8642   21.9879 C.3     1  UNL1        0.2087
     16 C          -5.5042  -19.3035   21.5936 C.3     1  UNL1        0.0445
     17 C          -5.3155  -20.2208   20.4219 C.3     1  UNL1        0.0210
     18 C          -3.9365  -20.6600   20.0277 C.3     1  UNL1        0.0722
     19 N          -2.7462  -20.1819   20.8052 N.3     1  UNL1       -0.2727
     20 C          -2.9349  -19.2646   21.9769 C.3     1  UNL1        0.0722
     21 C          -4.3139  -18.8254   22.3711 C.3     1  UNL1        0.0210
     22 C          -3.4823  -19.9142   21.0590 C.3     1  UNL1        0.0722
     23 C          -4.7292  -19.5170   21.4155 C.3     1  UNL1        0.0210
@<TRIPOS>BOND
     1     1     2    2
     2     2    14    1
     3    14    15    1
     4    15    16    1
     5    16    17    1
     6    17    18    1
     7    18    19    1
     8    19    20    1
     9    20    21    1
    10    19    22    1
    11    22    23    1
    12     2     3    1
    13     3     4    2
    14     4     5    1
    15     5     6    2
    16     6     7    1
    17     7     8    1
    18     8     9    1
    19     8    10    2
    20    10    11    1
    21    11    12    1
    22    11    13    2
    23    21    16    1
    24    13     3    1
    25    23    16    1
    26    13     6    1
@<TRIPOS>MOLECULE
*****
 23 26 0 0 0
SMALL
GASTEIGER

@<TRIPOS>ATOM
      1 O          -8.9652  -19.0258   19.1460 O.2     1  UNL1       -0.2448
      2 C          -8.1777  -18.9314   20.4192 C.2     1  UNL1        0.3428
      3 C          -8.8373  -19.2302   21.7329 C.2     1  UNL1        0.0963
      4 C          -8.2501  -20.0410   22.8500 C.2     1  UNL1        0.1049
      5 N          -9.2498  -20.0825   23.9675 N.2     1  UNL1       -0.2476
      6 C         -10.4547  -19.2974   23.5412 C.2     1  UNL1        0.0650
      7 C         -11.7510  -18.9941   24.2321 C.3     1  UNL1        0.0837
      8 C         -12.7925  -18.1640   23.5419 C.2     1  UNL1        0.0419
      9 CL        -14.0889  -17.8607   24.2328 Cl      1  UNL1       -0.0865
     10 C         -12.5376  -17.6372   22.1608 C.2     1  UNL1        0.0142
     11 C         -11.2411  -17.9406   21.4698 C.2     1  UNL1        0.0365
     12 BR        -10.9862  -17.4138   20.0887 Br      1  UNL1       -0.0489
     13 C         -10.1997  -18.7706   22.1600 C.2     1  UNL1        0.0279
     14 O          -6.7307  -18.5383   20.3787 O.3     1  UNL1       -0.4454
     15 C          -5.6799  -19.5725   20.1020 C.3     1  UNL1        0.2087
     16 C          -4.2311  -19.2432   20.3076 C.3     1  UNL1        0.0445
     17 C          -3.4608  -18.5418   19.2284 C.3     1  UNL1        0.0210
     18 C          -2.0119  -18.2126   19.4342 C.3     1  UNL1        0.0722
     19 N          -1.3333  -18.5848   20.7192 N.3     1  UNL1       -0.2727
     20 C          -2.1037  -19.2861   21.7984 C.3     1  UNL1        0.0722
     21 C          -3.5525  -19.6154   21.5926 C.3     1  UNL1        0.0210
     22 C          -2.1289  -18.7859   20.6523 C.3     1  UNL1        0.0722
     23 C          -3.4390  -19.0837   20.4663 C.3     1  UNL1        0.0210
@<TRIPOS>BOND
     1     1     2    2
     2     2    14    1
     3    14    15    1
     4    15    16    1
     5    16    17    1
     6    17    18    1
     7    18    19    1
     8    19    20    1
     9    20    21    1
    10    19    22    1
    11    22    23    1
    12     2     3    1
    13     3     4    2
    14     4     5    1
    15     5     6    2
    16     6     7    1
    17     7     8    1
    18     8     9    1
    19     8    10    2
    20    10    11    1
    21    11    12    1
    22    11    13    2
    23    21    16    1
    24    13     3    1
    25    23    16    1
    26    13     6    1
@<TRIPOS>MOLECULE
*****
 23 26 0 0 0
SMALL
GASTEIGER

@<TRIPOS>ATOM
      1 O          -9.6959  -20.7420   24.5566 O.2     1  UNL1       -0.2448
      2 C         -10.1130  -19.3453   24.9107 C.2     1  UNL1        0.3428
      3 C         -11.2637  -18.7020   24.1951 C.2     1  UNL1        0.0963
      4 C         -12.6889  -18.6763   24.6620 C.2     1  UNL1        0.1049
      5 N         -13.4972  -17.9299   23.6424 N.2     1  UNL1       -0.2476
      6 C         -12.5716  -17.4943   22.5455 C.2     1  UNL1        0.0650
      7 C         -12.8073  -16.7247   21.2797 C.3     1  UNL1        0.0837
      8 C         -11.6626  -16.4323   20.3554 C.2     1  UNL1        0.0419
      9 CL        -11.8983  -15.6628   19.0897 Cl      1  UNL1       -0.0865
     10 C         -10.2821  -16.9095   20.6970 C.2     1  UNL1        0.0142
     11 C         -10.0464  -17.6791   21.9629 C.2     1  UNL1        0.0365
     12 BR         -8.6660  -18.1563   22.3044 Br      1  UNL1       -0.0489
     13 C         -11.1911  -17.9714   22.8870 C.2     1  UNL1        0.0279
     14 O          -9.3793  -18.5919   25.9803 O.3     1  UNL1       -0.4454
     15 C          -9.4080  -17.0922   25.9956 C.3     1  UNL1        0.2087
     16 C          -8.1295  -16.3164   25.8795 C.3     1  UNL1        0.0445
     17 C          -7.6085  -15.9269   24.5279 C.3     1  UNL1        0.0210
     18 C          -6.3300  -15.1511   24.4120 C.3     1  UNL1        0.0722
     19 N          -5.5724  -14.7648   25.6477 N.3     1  UNL1       -0.2727
     20 C          -6.0934  -15.1543   26.9993 C.3     1  UNL1        0.0722
     21 C          -7.3719  -15.9301   27.1152 C.3     1  UNL1        0.0210
     22 C          -6.2683  -15.1899   25.7613 C.3     1  UNL1        0.0722
     23 C          -7.4243  -15.8914   25.8663 C.3     1  UNL1        0.0210
@<TRIPOS>BOND
     1     1     2    2
     2     2    14    1
     3    14    15    1
     4    15    16    1
     5    16    17    1
     6    17    18    1
     7    18    19    1
     8    19    20    1
     9    20    21    1
    10    19    22    1
    11    22    23    1
    12     2     3    1
    13     3     4    2
    14     4     5    1
    15     5     6    2
    16     6     7    1
    17     7     8    1
    18     8     9    1
    19     8    10    2
    20    10    11    1
    21    11    12    1
    22    11    13    2
    23    21    16    1
    24    13     3    1
    25    23    16    1
    26    13     6    1
@<TRIPOS>MOLECULE
*****
 23 26 0 0 0
SMALL
GASTEIGER

@<TRIPOS>ATOM
      1 O          -6.4789  -20.4459   21.8004 O.2     1  UNL1       -0.2448
      2 C          -6.8448  -19.5105   20.6865 C.2     1  UNL1        0.3428
      3 C          -8.2875  -19.2567   20.3635 C.2     1  UNL1        0.0963
      4 C          -9.0705  -19.9023   19.2589 C.2     1  UNL1        0.1049
      5 N         -10.4673  -19.3574   19.3012 N.2     1  UNL1       -0.2476
      6 C         -10.5477  -18.3750   20.4319 C.2     1  UNL1        0.0650
      7 C         -11.6735  -17.5292   20.9485 C.3     1  UNL1        0.0837
      8 C         -11.4522  -16.6210   22.1217 C.2     1  UNL1        0.0419
      9 CL        -12.5780  -15.7751   22.6383 Cl      1  UNL1       -0.0865
     10 C         -10.1049  -16.5588   22.7783 C.2     1  UNL1        0.0142
     11 C          -8.9791  -17.4047   22.2616 C.2     1  UNL1        0.0365
     12 BR         -7.6318  -17.3425   22.9182 Br      1  UNL1       -0.0489
     13 C          -9.2005  -18.3128   21.0885 C.2     1  UNL1        0.0279
     14 O          -5.7680  -18.8287   19.8954 O.3     1  UNL1       -0.4454
     15 C          -4.3898  -19.4182   19.8412 C.3     1  UNL1        0.2087
     16 C          -3.1907  -18.5428   20.0548 C.3     1  UNL1        0.0445
     17 C          -2.1476  -18.4249   18.9833 C.3     1  UNL1        0.0210
     18 C          -0.9485  -17.5494   19.1970 C.3     1  UNL1        0.0722
     19 N          -0.7925  -16.7918   20.4822 N.3     1  UNL1       -0.2727
     20 C          -1.8355  -16.9097   21.5537 C.3     1  UNL1        0.0722
     21 C          -3.0346  -17.7852   21.3400 C.3     1  UNL1        0.0210
     22 C          -1.4666  -17.2591   20.4108 C.3     1  UNL1        0.0722
     23 C          -2.5509  -18.0507   20.2177 C.3     1  UNL1        0.0210
@<TRIPOS>BOND
     1     1     2    2
     2     2    14    1
     3    14    15    1
     4    15    16    1
     5    16    17    1
     6    17    18    1
     7    18    19    1
     8    19    20    1
     9    20    21    1
    10    19    22    1
    11    22    23    1
    12     2     3    1
    13     3     4    2
    14     4     5    1
    15     5     6    2
    16     6     7    1
    17     7     8    1
    18     8     9    1
    19     8    10    2
    20    10    11    1
    21    11    12    1
    22    11    13    2
    23    21    16    1
    24    13     3    1
    25    23    16    1
    26    13     6    1
@<TRIPOS>MOLECULE
*****
 23 26 0 0 0
SMALL
GASTEIGER

@<TRIPOS>ATOM
      1 O          -9.6026  -18.6246   24.8064 O.2     1  UNL1       -0.2448
      2 C          -9.2691  -17.7230   23.6550 C.2     1  UNL1        0.3428
      3 C          -8.3600  -18.2052   22.5637 C.2     1  UNL1        0.0963
      4 C          -6.8652  -18.0824   22.5429 C.2     1  UNL1        0.1049
      5 N          -6.3674  -18.6961   21.2679 N.2     1  UNL1       -0.2476
      6 C          -7.5546  -19.1982   20.5008 C.2     1  UNL1        0.0650
      7 C          -7.6734  -19.8925   19.1765 C.3     1  UNL1        0.0837
      8 C          -9.0237  -20.2834   18.6530 C.2     1  UNL1        0.0419
      9 CL         -9.1425  -20.9777   17.3287 Cl      1  UNL1       -0.0865
     10 C         -10.2552  -19.9799   19.4538 C.2     1  UNL1        0.0142
     11 C         -10.1364  -19.2856   20.7782 C.2     1  UNL1        0.0365
     12 BR        -11.3678  -18.9822   21.5791 Br      1  UNL1       -0.0489
     13 C          -8.7861  -18.8948   21.3016 C.2     1  UNL1        0.0279
     14 O          -9.8447  -16.3391   23.5950 O.3     1  UNL1       -0.4454
     15 C          -9.4045  -15.3001   24.5832 C.3     1  UNL1        0.2087
     16 C          -8.0538  -15.4025   25.2276 C.3     1  UNL1        0.0445
     17 C          -6.8172  -15.1225   24.4261 C.3     1  UNL1        0.0210
     18 C          -5.4666  -15.2249   25.0706 C.3     1  UNL1        0.0722
     19 N          -5.3527  -15.6073   26.5166 N.3     1  UNL1       -0.2727
     20 C          -6.5893  -15.8873   27.3180 C.3     1  UNL1        0.0722
     21 C          -7.9399  -15.7849   26.6736 C.3     1  UNL1        0.0210
     22 C          -6.1144  -15.5640   26.2071 C.3     1  UNL1        0.0722
     23 C          -7.3357  -15.4714   25.6244 C.3     1  UNL1        0.0210
@<TRIPOS>BOND
     1     1     2    2
     2     2    14    1
     3    14    15    1
     4    15    16    1
     5    16    17    1
     6    17    18    1
     7    18    19    1
     8    19    20    1
     9    20    21    1
    10    19    22    1
    11    22    23    1
    12     2     3    1
    13     3     4    2
    14     4     5    1
    15     5     6    2
    16     6     7    1
    17     7     8    1
    18     8     9    1
    19     8    10    2
    20    10    11    1
    21    11    12    1
    22    11    13    2
    23    21    16    1
    24    13     3    1
    25    23    16    1
    26    13     6    1
@<TRIPOS>MOLECULE
*****
 23 26 0 0 0
SMALL
GASTEIGER

@<TRIPOS>ATOM
      1 O          -7.1425  -19.9022   21.5373 O.2     1  UNL1       -0.2448
      2 C          -7.1179  -18.5128   22.1022 C.2     1  UNL1        0.3428
      3 C          -8.3459  -17.6541   22.0353 C.2     1  UNL1        0.0963
      4 C          -8.4558  -16.3245   21.3495 C.2     1  UNL1        0.1049
      5 N          -9.8575  -15.8229   21.5329 N.2     1  UNL1       -0.2476
      6 C         -10.6139  -16.8424   22.3320 C.2     1  UNL1        0.0650
      7 C         -12.0326  -16.8864   22.8169 C.3     1  UNL1        0.0837
      8 C         -12.5172  -18.0622   23.6125 C.2     1  UNL1        0.0419
      9 CL        -13.9359  -18.1062   24.0974 Cl      1  UNL1       -0.0865
     10 C         -11.5830  -19.1939   23.9230 C.2     1  UNL1        0.0142
     11 C         -10.1642  -19.1499   23.4380 C.2     1  UNL1        0.0365
     12 BR         -9.2300  -20.2816   23.7485 Br      1  UNL1       -0.0489
     13 C          -9.6797  -17.9741   22.6425 C.2     1  UNL1        0.0279
     14 O          -5.8652  -17.9822   22.7339 O.3     1  UNL1       -0.4454
     15 C          -4.5863  -18.7595   22.6319 C.3     1  UNL1        0.2087
     16 C          -3.5688  -18.3962   21.5915 C.3     1  UNL1        0.0445
     17 C          -3.6240  -19.0320   20.2341 C.3     1  UNL1        0.0210
     18 C          -2.6064  -18.6686   19.1937 C.3     1  UNL1        0.0722
     19 N          -1.5335  -17.6694   19.5107 N.3     1  UNL1       -0.2727
     20 C          -1.4783  -17.0336   20.8682 C.3     1  UNL1        0.0722
     21 C          -2.4959  -17.3970   21.9086 C.3     1  UNL1        0.0210
     22 C          -2.0692  -17.8368   20.1132 C.3     1  UNL1        0.0722
     23 C          -2.9893  -18.1653   21.0540 C.3     1  UNL1        0.0210
@<TRIPOS>BOND
     1     1     2    2
     2     2    14    1
     3    14    15    1
     4    15    16    1
     5    16    17    1
     6    17    18    1
     7    18    19    1
     8    19    20    1
     9    20    21    1
    10    19    22    1
    11    22    23    1
    12     2     3    1
    13     3     4    2
    14     4     5    1
    15     5     6    2
    16     6     7    1
    17     7     8    1
    18     8     9    1
    19     8    10    2
    20    10    11    1
    21    11    12    1
    22    11    13    2
    23    21    16    1
    24    13     3    1
    25    23    16    1
    26    13     6    1
@<TRIPOS>MOLECULE
*****
 23 26 0 0 0
SMALL
GASTEIGER

@<TRIPOS>ATOM
      1 O          -8.6079  -19.7801   19.6703 O.2     1  UNL1       -0.2448
      2 C          -8.2468  -19.0995   20.9573 C.2     1  UNL1        0.3428
      3 C          -9.0002  -19.4224   22.2136 C.2     1  UNL1        0.0963
      4 C          -8.5220  -20.3086   23.3253 C.2     1  UNL1        0.1049
      5 N          -9.5903  -20.3496   24.3774 N.2     1  UNL1       -0.2476
      6 C         -10.7288  -19.4888   23.9160 C.2     1  UNL1        0.0650
      7 C         -12.0503  -19.1527   24.5408 C.3     1  UNL1        0.0837
      8 C         -13.0073  -18.2435   23.8282 C.2     1  UNL1        0.0419
      9 CL        -14.3289  -17.9075   24.4530 Cl      1  UNL1       -0.0865
     10 C         -12.6426  -17.6704   22.4909 C.2     1  UNL1        0.0142
     11 C         -11.3209  -18.0065   21.8661 C.2     1  UNL1        0.0365
     12 BR        -10.9562  -17.4334   20.5287 Br      1  UNL1       -0.0489
     13 C         -10.3640  -18.9157   22.5786 C.2     1  UNL1        0.0279
     14 O          -7.1324  -18.0960   20.9881 O.3     1  UNL1       -0.4454
     15 C          -6.2089  -18.0364   22.1687 C.3     1  UNL1        0.2087
     16 C          -6.3326  -16.9193   23.1619 C.3     1  UNL1        0.0445
     17 C          -5.1173  -16.4232   23.8880 C.3     1  UNL1        0.0210
     18 C          -5.2410  -15.3061   24.8812 C.3     1  UNL1        0.0722
     19 N          -6.5800  -14.6849   25.1484 N.3     1  UNL1       -0.2727
     20 C          -7.7952  -15.1809   24.4224 C.3     1  UNL1        0.0722
     21 C          -7.6715  -16.2981   23.4292 C.3     1  UNL1        0.0210
     22 C          -6.5617  -15.2945   24.5954 C.3     1  UNL1        0.0722
     23 C          -6.4500  -16.3047   23.6972 C.3     1  UNL1        0.0210
@<TRIPOS>BOND
     1     1     2    2
     2     2    14    1
     3    14    15    1
     4    15    16    1
     5    16    17    1
     6    17    18    1
     7    18    19    1
     8    19    20    1
     9    20    21    1
    10    19    22    1
    11    22    23    1
    12     2     3    1
    13     3     4    2
    14     4     5    1
    15     5     6    2
    16     6     7    1
    17     7     8    1
    18     8     9    1
    19     8    10    2
    20    10    11    1
    21    11    12    1
    22    11    13    2
    23    21    16    1
    24    13     3    1
    25    23    16    1
    26    13     6    1
@<TRIPOS>MOLECULE
*****
 23 26 0 0 0
SMALL
GASTEIGER

@<TRIPOS>ATOM
      1 O          -6.3606  -20.9910   22.3822 O.2     1  UNL1       -0.2448
      2 C          -6.3451  -19.6380   21.7348 C.2     1  UNL1        0.3428
      3 C          -5.2821  -18.6443   22.0991 C.2     1  UNL1        0.0963
      4 C          -5.3787  -17.6048   23.1761 C.2     1  UNL1        0.1049
      5 N          -4.0922  -16.8338   23.1928 N.2     1  UNL1       -0.2476
      6 C          -3.2004  -17.3968   22.1262 C.2     1  UNL1        0.0650
      7 C          -1.8137  -17.0352   21.6831 C.3     1  UNL1        0.0837
      8 C          -1.1624  -17.7925   20.5640 C.2     1  UNL1        0.0419
      9 CL          0.2242  -17.4309   20.1210 Cl      1  UNL1       -0.0865
     10 C          -1.8979  -18.9115   19.8880 C.2     1  UNL1        0.0142
     11 C          -3.2846  -19.2732   20.3311 C.2     1  UNL1        0.0365
     12 BR         -4.0201  -20.3921   19.6551 Br      1  UNL1       -0.0489
     13 C          -3.9358  -18.5158   21.4502 C.2     1  UNL1        0.0279
     14 O          -7.3927  -19.2786   20.7232 O.3     1  UNL1       -0.4454
     15 C          -8.8379  -19.2354   21.1228 C.3     1  UNL1        0.2087
     16 C          -9.2127  -19.0183   22.5588 C.3     1  UNL1        0.0445
     17 C          -9.1058  -17.6496   23.1632 C.3     1  UNL1        0.0210
     18 C          -9.4807  -17.4325   24.5993 C.3     1  UNL1        0.0722
     19 N          -9.9625  -18.5841   25.4310 N.3     1  UNL1       -0.2727
     20 C         -10.0695  -19.9528   24.8266 C.3     1  UNL1        0.0722
     21 C          -9.6946  -20.1699   23.3905 C.3     1  UNL1        0.0210
     22 C          -9.7686  -18.7519   24.6486 C.3     1  UNL1        0.0722
     23 C          -9.4296  -18.9483   23.3501 C.3     1  UNL1        0.0210
@<TRIPOS>BOND
     1     1     2    2
     2     2    14    1
     3    14    15    1
     4    15    16    1
     5    16    17    1
     6    17    18    1
     7    18    19    1
     8    19    20    1
     9    20    21    1
    10    19    22    1
    11    22    23    1
    12     2     3    1
    13     3     4    2
    14     4     5    1
    15     5     6    2
    16     6     7    1
    17     7     8    1
    18     8     9    1
    19     8    10    2
    20    10    11    1
    21    11    12    1
    22    11    13    2
    23    21    16    1
    24    13     3    1
    25    23    16    1
    26    13     6    1
