@<TRIPOS>MOLECULE
*****
 30 32 0 0 0
SMALL
GASTEIGER

@<TRIPOS>ATOM
      1 C          -7.4981  -18.9289   20.2270 C.ar    1  UNL1        0.0505
      2 C          -8.0884  -19.6011   19.0230 C.ar    1  UNL1        0.0170
      3 C          -9.4974  -20.1137   19.0656 C.ar    1  UNL1        0.0307
      4 C         -10.3161  -19.9541   20.3122 C.ar    1  UNL1        0.1402
      5 F         -11.7252  -20.4667   20.3549 F       1  UNL1       -0.2044
      6 C          -9.7259  -19.2819   21.5162 C.ar    1  UNL1        0.0555
      7 C          -8.3168  -18.7692   21.4736 C.ar    1  UNL1        0.0168
      8 C         -10.5447  -19.1222   22.7629 C.3     1  UNL1        0.2513
      9 C          -9.4792  -20.0494   23.2680 C.3     1  UNL1        0.0638
     10 N         -11.3258  -18.2505   21.8248 N.2     1  UNL1       -0.0663
     11 C         -12.5557  -17.5412   22.3088 C.2     1  UNL1        0.3195
     12 N         -13.3368  -16.6695   21.3707 N.pl3   1  UNL1       -0.2480
     13 C         -13.0044  -17.7036   23.7308 C.3     1  UNL1        0.2611
     14 O         -12.2233  -18.5753   24.6689 O.3     1  UNL1       -0.3108
     15 C         -10.9934  -19.2846   24.1850 C.3     1  UNL1        0.3281
     16 F         -10.2123  -20.1563   25.1231 F       1  UNL1       -0.1989
     17 H         -13.0423  -16.5629   20.4373 H       1  UNL1        0.2882
     18 H         -14.1440  -16.2039   21.6883 H       1  UNL1        0.2882
     19 C          -4.9390  -19.3757   20.2669 C.2     1  UNL1        0.2669
     20 O          -5.1981  -20.8479   20.3922 O.2     1  UNL1       -0.2682
     21 N          -6.0890  -18.4162   20.1843 N.am    1  UNL1       -0.2792
     22 H          -5.9190  -17.4500   20.1021 H       1  UNL1        0.1552
     23 C          -3.5233  -18.6657   22.8148 C.3     1  UNL1        0.0328
     24 C          -2.8221  -18.5081   21.4982 C.ar    1  UNL1        0.0012
     25 C          -1.4131  -17.9955   21.4554 C.ar    1  UNL1        0.0103
     26 C          -0.7119  -17.8379   20.1388 C.ar    1  UNL1        0.0765
     27 CL          0.6972  -17.3253   20.0961 Cl      1  UNL1       -0.0806
     28 C          -1.4197  -18.1929   18.8649 C.ar    1  UNL1        0.1103
     29 N          -2.8288  -18.7055   18.9076 N.ar    1  UNL1       -0.2387
     30 C          -3.5299  -18.8631   20.2242 C.ar    1  UNL1        0.1308
@<TRIPOS>BOND
     1    23    24    1
     2    24    25   ar
     3    25    26   ar
     4    26    27    1
     5    26    28   ar
     6    28    29   ar
     7    29    30   ar
     8    30    19    1
     9    19    20    2
    10    19    21   am
    11    21     1    1
    12     1     2   ar
    13     2     3   ar
    14     3     4   ar
    15     4     5    1
    16     4     6   ar
    17     6     8    1
    18     8     9    1
    19     8    10    1
    20    10    11    2
    21    11    12    1
    22    11    13    1
    23    13    14    1
    24    14    15    1
    25    15    16    1
    26     6     7   ar
    27    30    24   ar
    28     7     1   ar
    29    15     8    1
    30    21    22    1
    31    12    17    1
    32    12    18    1
@<TRIPOS>MOLECULE
*****
 30 32 0 0 0
SMALL
GASTEIGER

@<TRIPOS>ATOM
      1 C          -7.6122  -18.8006   20.0782 C.ar    1  UNL1        0.0505
      2 C          -8.1022  -19.7202   18.9992 C.ar    1  UNL1        0.0170
      3 C          -9.5313  -20.1755   18.9936 C.ar    1  UNL1        0.0307
      4 C         -10.4706  -19.7113   20.0670 C.ar    1  UNL1        0.1402
      5 F         -11.8998  -20.1666   20.0614 F       1  UNL1       -0.2044
      6 C          -9.9806  -18.7917   21.1460 C.ar    1  UNL1        0.0555
      7 C          -8.5515  -18.3363   21.1516 C.ar    1  UNL1        0.0168
      8 C         -10.9200  -18.3274   22.2194 C.3     1  UNL1        0.2513
      9 C         -11.2446  -17.3353   21.1423 C.3     1  UNL1        0.0638
     10 N         -10.2691  -19.4808   22.9238 N.2     1  UNL1       -0.0663
     11 C         -10.6702  -19.8254   24.3274 C.2     1  UNL1        0.3195
     12 N         -10.0193  -20.9788   25.0318 N.pl3   1  UNL1       -0.2480
     13 C         -11.7223  -19.0166   25.0268 C.3     1  UNL1        0.2611
     14 O         -12.3732  -17.8633   24.3224 O.3     1  UNL1       -0.3108
     15 C         -11.9720  -17.5187   22.9188 C.3     1  UNL1        0.3281
     16 F         -12.6229  -16.3653   22.2144 F       1  UNL1       -0.1989
     17 H          -9.3288  -21.5096   24.5728 H       1  UNL1        0.2882
     18 H         -10.2826  -21.2050   25.9531 H       1  UNL1        0.2882
     19 C          -5.0772  -19.3473   20.2356 C.2     1  UNL1        0.2669
     20 O          -5.4006  -20.8047   20.3819 O.2     1  UNL1       -0.2682
     21 N          -6.1830  -18.3452   20.0838 N.am    1  UNL1       -0.2792
     22 H          -5.9707  -17.3887   19.9878 H       1  UNL1        0.1552
     23 C          -3.6968  -18.7703   22.8360 C.3     1  UNL1        0.0328
     24 C          -2.9578  -18.6034   21.5413 C.ar    1  UNL1        0.0012
     25 C          -1.5286  -18.1481   21.5469 C.ar    1  UNL1        0.0103
     26 C          -0.7896  -17.9813   20.2523 C.ar    1  UNL1        0.0765
     27 CL          0.6397  -17.5259   20.2578 Cl      1  UNL1       -0.0806
     28 C          -1.4797  -18.2697   18.9521 C.ar    1  UNL1        0.1103
     29 N          -2.9089  -18.7251   18.9466 N.ar    1  UNL1       -0.2387
     30 C          -3.6479  -18.8919   20.2412 C.ar    1  UNL1        0.1308
@<TRIPOS>BOND
     1    23    24    1
     2    24    25   ar
     3    25    26   ar
     4    26    27    1
     5    26    28   ar
     6    28    29   ar
     7    29    30   ar
     8    30    19    1
     9    19    20    2
    10    19    21   am
    11    21     1    1
    12     1     2   ar
    13     2     3   ar
    14     3     4   ar
    15     4     5    1
    16     4     6   ar
    17     6     8    1
    18     8     9    1
    19     8    10    1
    20    10    11    2
    21    11    12    1
    22    11    13    1
    23    13    14    1
    24    14    15    1
    25    15    16    1
    26     6     7   ar
    27    30    24   ar
    28     7     1   ar
    29    15     8    1
    30    21    22    1
    31    12    17    1
    32    12    18    1
@<TRIPOS>MOLECULE
*****
 30 32 0 0 0
SMALL
GASTEIGER

@<TRIPOS>ATOM
      1 C          -6.8755  -20.0067   21.4570 C.ar    1  UNL1        0.0505
      2 C          -6.5968  -21.0892   20.4567 C.ar    1  UNL1        0.0170
      3 C          -5.2249  -21.2304   19.8670 C.ar    1  UNL1        0.0307
      4 C          -4.1316  -20.2892   20.2776 C.ar    1  UNL1        0.1402
      5 F          -2.7596  -20.4303   19.6878 F       1  UNL1       -0.2044
      6 C          -4.4102  -19.2067   21.2779 C.ar    1  UNL1        0.0555
      7 C          -5.7821  -19.0655   21.8676 C.ar    1  UNL1        0.0168
      8 C          -3.3168  -18.2654   21.6884 C.3     1  UNL1        0.2513
      9 C          -3.8322  -18.6702   23.0376 C.3     1  UNL1        0.0638
     10 N          -3.1811  -18.1874   20.1966 N.2     1  UNL1       -0.0663
     11 C          -2.1311  -17.3088   19.5839 C.2     1  UNL1        0.3195
     12 N          -1.9955  -17.2308   18.0920 N.pl3   1  UNL1       -0.2480
     13 C          -1.2167  -16.5081   20.4630 C.3     1  UNL1        0.2611
     14 O          -1.3524  -16.5861   21.9548 O.3     1  UNL1       -0.3108
     15 C          -2.4024  -17.4647   22.5675 C.3     1  UNL1        0.3281
     16 F          -2.5381  -17.5427   24.0594 F       1  UNL1       -0.1989
     17 H          -2.5956  -17.7563   17.5150 H       1  UNL1        0.2882
     18 H          -1.3063  -16.6541   17.6899 H       1  UNL1        0.2882
     19 C          -8.9868  -18.5663   21.9234 C.2     1  UNL1        0.2669
     20 O          -8.3542  -17.4082   21.2103 O.2     1  UNL1       -0.2682
     21 N          -8.2475  -19.8656   22.0468 N.am    1  UNL1       -0.2792
     22 H          -8.6627  -20.6257   22.5148 H       1  UNL1        0.1552
     23 C         -11.2943  -17.7695   20.1797 C.3     1  UNL1        0.0328
     24 C         -11.5125  -18.0267   21.6413 C.ar    1  UNL1        0.0012
     25 C         -12.8845  -17.8856   22.2311 C.ar    1  UNL1        0.0103
     26 C         -13.1027  -18.1428   23.6927 C.ar    1  UNL1        0.0765
     27 CL        -14.4747  -18.0016   24.2824 Cl      1  UNL1       -0.0806
     28 C         -11.9489  -18.5412   24.5645 C.ar    1  UNL1        0.1103
     29 N         -10.5770  -18.6824   23.9747 N.ar    1  UNL1       -0.2387
     30 C         -10.3588  -18.4251   22.5132 C.ar    1  UNL1        0.1308
@<TRIPOS>BOND
     1    23    24    1
     2    24    25   ar
     3    25    26   ar
     4    26    27    1
     5    26    28   ar
     6    28    29   ar
     7    29    30   ar
     8    30    19    1
     9    19    20    2
    10    19    21   am
    11    21     1    1
    12     1     2   ar
    13     2     3   ar
    14     3     4   ar
    15     4     5    1
    16     4     6   ar
    17     6     8    1
    18     8     9    1
    19     8    10    1
    20    10    11    2
    21    11    12    1
    22    11    13    1
    23    13    14    1
    24    14    15    1
    25    15    16    1
    26     6     7   ar
    27    30    24   ar
    28     7     1   ar
    29    15     8    1
    30    21    22    1
    31    12    17    1
    32    12    18    1
@<TRIPOS>MOLECULE
*****
 30 32 0 0 0
SMALL
GASTEIGER

@<TRIPOS>ATOM
      1 C          -7.5971  -18.9816   20.1969 C.ar    1  UNL1        0.0505
      2 C          -8.3446  -19.5155   19.0111 C.ar    1  UNL1        0.0170
      3 C          -9.7584  -19.9913   19.1679 C.ar    1  UNL1        0.0307
      4 C         -10.4247  -19.9331   20.5105 C.ar    1  UNL1        0.1402
      5 F         -11.8387  -20.4089   20.6674 F       1  UNL1       -0.2044
      6 C          -9.6772  -19.3992   21.6963 C.ar    1  UNL1        0.0555
      7 C          -8.2634  -18.9234   21.5395 C.ar    1  UNL1        0.0168
      8 C         -10.3436  -19.3410   23.0390 C.3     1  UNL1        0.2513
      9 C          -9.2746  -20.3543   23.3224 C.3     1  UNL1        0.0638
     10 N         -11.1813  -18.3480   22.2891 N.2     1  UNL1       -0.0663
     11 C         -12.3140  -17.6486   22.9804 C.2     1  UNL1        0.3195
     12 N         -13.1516  -16.6555   22.2306 N.pl3   1  UNL1       -0.2480
     13 C         -12.6091  -17.9424   24.4214 C.3     1  UNL1        0.2611
     14 O         -11.7714  -18.9354   25.1712 O.3     1  UNL1       -0.3108
     15 C         -10.6387  -19.6348   24.4800 C.3     1  UNL1        0.3281
     16 F          -9.8011  -20.6279   25.2298 F       1  UNL1       -0.1989
     17 H         -12.9579  -16.4627   21.2848 H       1  UNL1        0.2882
     18 H         -13.8951  -16.1965   22.6843 H       1  UNL1        0.2882
     19 C          -5.1212  -18.9857   20.9844 C.2     1  UNL1        0.2669
     20 O          -5.4731  -19.9415   22.0857 O.2     1  UNL1       -0.2682
     21 N          -6.1831  -18.5058   20.0401 N.am    1  UNL1       -0.2792
     22 H          -5.9522  -17.8785   19.3173 H       1  UNL1        0.1552
     23 C          -3.2186  -20.4919   19.2205 C.3     1  UNL1        0.0328
     24 C          -2.7560  -19.2630   19.9456 C.ar    1  UNL1        0.0012
     25 C          -1.3422  -18.7872   19.7888 C.ar    1  UNL1        0.0103
     26 C          -0.8796  -17.5583   20.5139 C.ar    1  UNL1        0.0765
     27 CL          0.5343  -17.0825   20.3571 Cl      1  UNL1       -0.0806
     28 C          -1.8309  -16.8052   21.3959 C.ar    1  UNL1        0.1103
     29 N          -3.2447  -17.2810   21.5527 N.ar    1  UNL1       -0.2387
     30 C          -3.7073  -18.5099   20.8276 C.ar    1  UNL1        0.1308
@<TRIPOS>BOND
     1    23    24    1
     2    24    25   ar
     3    25    26   ar
     4    26    27    1
     5    26    28   ar
     6    28    29   ar
     7    29    30   ar
     8    30    19    1
     9    19    20    2
    10    19    21   am
    11    21     1    1
    12     1     2   ar
    13     2     3   ar
    14     3     4   ar
    15     4     5    1
    16     4     6   ar
    17     6     8    1
    18     8     9    1
    19     8    10    1
    20    10    11    2
    21    11    12    1
    22    11    13    1
    23    13    14    1
    24    14    15    1
    25    15    16    1
    26     6     7   ar
    27    30    24   ar
    28     7     1   ar
    29    15     8    1
    30    21    22    1
    31    12    17    1
    32    12    18    1
@<TRIPOS>MOLECULE
*****
 30 32 0 0 0
SMALL
GASTEIGER

@<TRIPOS>ATOM
      1 C           1.7149    0.0303   20.2125 C.ar    1  UNL1        0.0505
      2 C           1.8147    0.7152   18.8818 C.ar    1  UNL1        0.0170
      3 C           2.7910    0.2215   17.8555 C.ar    1  UNL1        0.0307
      4 C           3.6673   -0.9572   18.1601 C.ar    1  UNL1        0.1402
      5 F           4.6436   -1.4510   17.1338 F       1  UNL1       -0.2044
      6 C           3.5674   -1.6421   19.4908 C.ar    1  UNL1        0.0555
      7 C           2.5912   -1.1484   20.5170 C.ar    1  UNL1        0.0168
      8 C           4.4438   -2.8208   19.7953 C.3     1  UNL1        0.2513
      9 C           3.2544   -3.5244   19.2121 C.3     1  UNL1        0.0638
     10 N           5.3289   -1.7078   20.2728 N.2     1  UNL1       -0.0663
     11 C           6.6773   -2.0179   20.8521 C.2     1  UNL1        0.3195
     12 N           7.5624   -0.9049   21.3296 N.pl3   1  UNL1       -0.2480
     13 C           7.1406   -3.4409   20.9541 C.3     1  UNL1        0.2611
     14 O           6.2555   -4.5539   20.4767 O.3     1  UNL1       -0.3108
     15 C           4.9071   -4.2438   19.8973 C.3     1  UNL1        0.3281
     16 F           4.0220   -5.3568   19.4198 F       1  UNL1       -0.1989
     17 H           7.2583    0.0291   21.2627 H       1  UNL1        0.2882
     18 H           8.4474   -1.1084   21.7099 H       1  UNL1        0.2882
     19 C           1.0765    1.7174   22.0824 C.2     1  UNL1        0.2669
     20 O           2.3908    2.4169   21.8998 O.2     1  UNL1       -0.2682
     21 N           0.7386    0.5241   21.2388 N.am    1  UNL1       -0.2792
     22 H          -0.1240    0.0649   21.3586 H       1  UNL1        0.1552
     23 C           1.3453    0.8580   24.9441 C.3     1  UNL1        0.0328
     24 C           0.2346    1.7815   24.5395 C.ar    1  UNL1        0.0012
     25 C          -0.7416    2.2753   25.5656 C.ar    1  UNL1        0.0103
     26 C          -1.8523    3.1987   25.1610 C.ar    1  UNL1        0.0765
     27 CL         -2.8285    3.6925   26.1872 Cl      1  UNL1       -0.0806
     28 C          -1.9866    3.6284   23.7301 C.ar    1  UNL1        0.1103
     29 N          -1.0104    3.1346   22.7040 N.ar    1  UNL1       -0.2387
     30 C           0.1003    2.2111   23.1087 C.ar    1  UNL1        0.1308
@<TRIPOS>BOND
     1    23    24    1
     2    24    25   ar
     3    25    26   ar
     4    26    27    1
     5    26    28   ar
     6    28    29   ar
     7    29    30   ar
     8    30    19    1
     9    19    20    2
    10    19    21   am
    11    21     1    1
    12     1     2   ar
    13     2     3   ar
    14     3     4   ar
    15     4     5    1
    16     4     6   ar
    17     6     8    1
    18     8     9    1
    19     8    10    1
    20    10    11    2
    21    11    12    1
    22    11    13    1
    23    13    14    1
    24    14    15    1
    25    15    16    1
    26     6     7   ar
    27    30    24   ar
    28     7     1   ar
    29    15     8    1
    30    21    22    1
    31    12    17    1
    32    12    18    1
@<TRIPOS>MOLECULE
*****
 30 32 0 0 0
SMALL
GASTEIGER

@<TRIPOS>ATOM
      1 C          -6.3879  -19.0520   21.7886 C.ar    1  UNL1        0.0505
      2 C          -6.6393  -20.4570   22.2499 C.ar    1  UNL1        0.0170
      3 C          -7.9563  -20.8183   22.8703 C.ar    1  UNL1        0.0307
      4 C          -9.0219  -19.7746   23.0293 C.ar    1  UNL1        0.1402
      5 F         -10.3390  -20.1359   23.6497 F       1  UNL1       -0.2044
      6 C          -8.7704  -18.3696   22.5680 C.ar    1  UNL1        0.0555
      7 C          -7.4534  -18.0083   21.9476 C.ar    1  UNL1        0.0168
      8 C          -9.8360  -17.3259   22.7270 C.3     1  UNL1        0.2513
      9 C          -9.0784  -17.1215   24.0053 C.3     1  UNL1        0.0638
     10 N         -10.2236  -17.8928   21.3934 N.2     1  UNL1       -0.0663
     11 C         -11.4136  -17.3451   20.6629 C.2     1  UNL1        0.3195
     12 N         -11.8013  -17.9120   19.3293 N.pl3   1  UNL1       -0.2480
     13 C         -12.2161  -16.2304   21.2659 C.3     1  UNL1        0.2611
     14 O         -11.8285  -15.6635   22.5995 O.3     1  UNL1       -0.3108
     15 C         -10.6385  -16.2113   23.3300 C.3     1  UNL1        0.3281
     16 F         -10.2509  -15.6444   24.6636 F       1  UNL1       -0.1989
     17 H         -11.2746  -18.6436   18.9335 H       1  UNL1        0.2882
     18 H         -12.5823  -17.5525   18.8498 H       1  UNL1        0.2882
     19 C          -3.8623  -18.4941   22.0347 C.2     1  UNL1        0.2669
     20 O          -3.9709  -18.6587   23.5217 O.2     1  UNL1       -0.2682
     21 N          -5.0707  -18.6907   21.1682 N.am    1  UNL1       -0.2792
     22 H          -4.9995  -18.5827   20.1922 H       1  UNL1        0.1552
     23 C          -2.8615  -15.6695   22.1774 C.3     1  UNL1        0.0328
     24 C          -2.0448  -16.7206   21.4857 C.ar    1  UNL1        0.0012
     25 C          -0.7278  -16.3594   20.8653 C.ar    1  UNL1        0.0103
     26 C           0.0888  -17.4104   20.1736 C.ar    1  UNL1        0.0765
     27 CL          1.4059  -17.0491   19.5532 Cl      1  UNL1       -0.0806
     28 C          -0.4116  -18.8226   20.1023 C.ar    1  UNL1        0.1103
     29 N          -1.7286  -19.1838   20.7227 N.ar    1  UNL1       -0.2387
     30 C          -2.5452  -18.1328   21.4144 C.ar    1  UNL1        0.1308
@<TRIPOS>BOND
     1    23    24    1
     2    24    25   ar
     3    25    26   ar
     4    26    27    1
     5    26    28   ar
     6    28    29   ar
     7    29    30   ar
     8    30    19    1
     9    19    20    2
    10    19    21   am
    11    21     1    1
    12     1     2   ar
    13     2     3   ar
    14     3     4   ar
    15     4     5    1
    16     4     6   ar
    17     6     8    1
    18     8     9    1
    19     8    10    1
    20    10    11    2
    21    11    12    1
    22    11    13    1
    23    13    14    1
    24    14    15    1
    25    15    16    1
    26     6     7   ar
    27    30    24   ar
    28     7     1   ar
    29    15     8    1
    30    21    22    1
    31    12    17    1
    32    12    18    1
@<TRIPOS>MOLECULE
*****
 30 32 0 0 0
SMALL
GASTEIGER

@<TRIPOS>ATOM
      1 C          -6.7269  -19.4432   21.5754 C.ar    1  UNL1        0.0505
      2 C          -6.9435  -20.4056   22.7054 C.ar    1  UNL1        0.0170
      3 C          -8.3328  -20.6839   23.1976 C.ar    1  UNL1        0.0307
      4 C          -9.5055  -19.9999   22.5598 C.ar    1  UNL1        0.1402
      5 F         -10.8949  -20.2782   23.0521 F       1  UNL1       -0.2044
      6 C          -9.2889  -19.0375   21.4299 C.ar    1  UNL1        0.0555
      7 C          -7.8996  -18.7591   20.9376 C.ar    1  UNL1        0.0168
      8 C         -10.4617  -18.3534   20.7921 C.3     1  UNL1        0.2513
      9 C         -10.1855  -19.4098   19.7637 C.3     1  UNL1        0.0638
     10 N         -10.3306  -17.5345   22.0420 N.2     1  UNL1       -0.0663
     11 C         -11.2763  -16.3985   22.2971 C.2     1  UNL1        0.3195
     12 N         -11.1451  -15.5796   23.5470 N.pl3   1  UNL1       -0.2480
     13 C         -12.3531  -16.0813   21.3022 C.3     1  UNL1        0.2611
     14 O         -12.4842  -16.9002   20.0523 O.3     1  UNL1       -0.3108
     15 C         -11.5385  -18.0362   19.7972 C.3     1  UNL1        0.3281
     16 F         -11.6697  -18.8551   18.5473 F       1  UNL1       -0.1989
     17 H         -10.4384  -15.7878   24.2000 H       1  UNL1        0.2882
     18 H         -11.7659  -14.8340   23.7144 H       1  UNL1        0.2882
     19 C          -4.4584  -18.2013   21.8238 C.2     1  UNL1        0.2669
     20 O          -4.9686  -17.5159   23.0567 O.2     1  UNL1       -0.2682
     21 N          -5.3375  -19.1649   21.0832 N.am    1  UNL1       -0.2792
     22 H          -5.0026  -19.6147   20.2740 H       1  UNL1        0.1552
     23 C          -2.8892  -20.3635   20.4591 C.3     1  UNL1        0.0328
     24 C          -2.2845  -19.0040   20.6492 C.ar    1  UNL1        0.0012
     25 C          -0.8952  -18.7257   20.1571 C.ar    1  UNL1        0.0103
     26 C          -0.2904  -17.3662   20.3472 C.ar    1  UNL1        0.0765
     27 CL          1.0990  -17.0879   19.8550 Cl      1  UNL1       -0.0806
     28 C          -1.0750  -16.2851   21.0296 C.ar    1  UNL1        0.1103
     29 N          -2.4643  -16.5635   21.5218 N.ar    1  UNL1       -0.2387
     30 C          -3.0690  -17.9229   21.3316 C.ar    1  UNL1        0.1308
@<TRIPOS>BOND
     1    23    24    1
     2    24    25   ar
     3    25    26   ar
     4    26    27    1
     5    26    28   ar
     6    28    29   ar
     7    29    30   ar
     8    30    19    1
     9    19    20    2
    10    19    21   am
    11    21     1    1
    12     1     2   ar
    13     2     3   ar
    14     3     4   ar
    15     4     5    1
    16     4     6   ar
    17     6     8    1
    18     8     9    1
    19     8    10    1
    20    10    11    2
    21    11    12    1
    22    11    13    1
    23    13    14    1
    24    14    15    1
    25    15    16    1
    26     6     7   ar
    27    30    24   ar
    28     7     1   ar
    29    15     8    1
    30    21    22    1
    31    12    17    1
    32    12    18    1
@<TRIPOS>MOLECULE
*****
 30 32 0 0 0
SMALL
GASTEIGER

@<TRIPOS>ATOM
      1 C          -6.7417  -19.9909   21.3317 C.ar    1  UNL1        0.0505
      2 C          -6.5775  -21.3294   20.6747 C.ar    1  UNL1        0.0170
      3 C          -5.3175  -21.6478   19.9258 C.ar    1  UNL1        0.0307
      4 C          -4.2216  -20.6278   19.8339 C.ar    1  UNL1        0.1402
      5 F          -2.9615  -20.9462   19.0850 F       1  UNL1       -0.2044
      6 C          -4.3857  -19.2893   20.4909 C.ar    1  UNL1        0.0555
      7 C          -5.6458  -18.9709   21.2398 C.ar    1  UNL1        0.0168
      8 C          -3.2898  -18.2693   20.3989 C.3     1  UNL1        0.2513
      9 C          -3.1723  -18.9007   19.0434 C.3     1  UNL1        0.0638
     10 N          -3.7879  -17.9920   21.7864 N.2     1  UNL1       -0.0663
     11 C          -3.1493  -16.9141   22.6111 C.2     1  UNL1        0.3195
     12 N          -3.6475  -16.6369   23.9986 N.pl3   1  UNL1       -0.2480
     13 C          -2.0126  -16.1134   22.0484 C.3     1  UNL1        0.2611
     14 O          -1.5144  -16.3906   20.6609 O.3     1  UNL1       -0.3108
     15 C          -2.1530  -17.4685   19.8362 C.3     1  UNL1        0.3281
     16 F          -1.6549  -17.7457   18.4487 F       1  UNL1       -0.1989
     17 H          -4.3936  -17.1624   24.3679 H       1  UNL1        0.2882
     18 H          -3.2283  -15.9294   24.5399 H       1  UNL1        0.2882
     19 C          -9.1774  -19.0873   21.3559 C.2     1  UNL1        0.2669
     20 O          -9.0930  -18.8204   19.8822 O.2     1  UNL1       -0.2682
     21 N          -8.0018  -19.6726   22.0806 N.am    1  UNL1       -0.2792
     22 H          -8.0572  -19.8477   23.0478 H       1  UNL1        0.1552
     23 C         -11.4167  -17.6423   19.9784 C.3     1  UNL1        0.0328
     24 C         -11.5571  -18.0464   21.4161 C.ar    1  UNL1        0.0012
     25 C         -12.8172  -17.7281   22.1650 C.ar    1  UNL1        0.0103
     26 C         -12.9576  -18.1322   23.6027 C.ar    1  UNL1        0.0765
     27 CL        -14.2177  -17.8138   24.3516 Cl      1  UNL1       -0.0806
     28 C         -11.8380  -18.8547   24.2914 C.ar    1  UNL1        0.1103
     29 N         -10.5780  -19.1731   23.5425 N.ar    1  UNL1       -0.2387
     30 C         -10.4375  -18.7689   22.1048 C.ar    1  UNL1        0.1308
@<TRIPOS>BOND
     1    23    24    1
     2    24    25   ar
     3    25    26   ar
     4    26    27    1
     5    26    28   ar
     6    28    29   ar
     7    29    30   ar
     8    30    19    1
     9    19    20    2
    10    19    21   am
    11    21     1    1
    12     1     2   ar
    13     2     3   ar
    14     3     4   ar
    15     4     5    1
    16     4     6   ar
    17     6     8    1
    18     8     9    1
    19     8    10    1
    20    10    11    2
    21    11    12    1
    22    11    13    1
    23    13    14    1
    24    14    15    1
    25    15    16    1
    26     6     7   ar
    27    30    24   ar
    28     7     1   ar
    29    15     8    1
    30    21    22    1
    31    12    17    1
    32    12    18    1
@<TRIPOS>MOLECULE
*****
 30 32 0 0 0
SMALL
GASTEIGER

@<TRIPOS>ATOM
      1 C           2.1312    0.8177   18.7966 C.ar    1  UNL1        0.0505
      2 C           3.2586    1.6310   18.2331 C.ar    1  UNL1        0.0170
      3 C           4.6605    1.0992   18.2739 C.ar    1  UNL1        0.0307
      4 C           4.9350   -0.2459   18.8782 C.ar    1  UNL1        0.1402
      5 F           6.3370   -0.7779   18.9190 F       1  UNL1       -0.2044
      6 C           3.8076   -1.0592   19.4417 C.ar    1  UNL1        0.0555
      7 C           2.4057   -0.5274   19.4009 C.ar    1  UNL1        0.0168
      8 C           4.0822   -2.4044   20.0460 C.3     1  UNL1        0.2513
      9 C           3.9129   -2.7947   18.6076 C.3     1  UNL1        0.0638
     10 N           4.1562   -1.5469   21.2745 N.2     1  UNL1       -0.0663
     11 C           4.4459   -2.1701   22.6078 C.2     1  UNL1        0.3195
     12 N           4.5199   -1.3126   23.8363 N.pl3   1  UNL1       -0.2480
     13 C           4.6617   -3.6508   22.7126 C.3     1  UNL1        0.2611
     14 O           4.5877   -4.5083   21.4840 O.3     1  UNL1       -0.3108
     15 C           4.2980   -3.8851   20.1508 C.3     1  UNL1        0.3281
     16 F           4.2240   -4.7426   18.9222 F       1  UNL1       -0.1989
     17 H           4.3783   -0.3408   23.7676 H       1  UNL1        0.2882
     18 H           4.7101   -1.7217   24.7114 H       1  UNL1        0.2882
     19 C           0.3464    2.5214   19.6104 C.2     1  UNL1        0.2669
     20 O           1.3655    3.1612   20.5060 O.2     1  UNL1       -0.2682
     21 N           0.7292    1.3497   18.7558 N.am    1  UNL1       -0.2792
     22 H           0.0603    0.9297   18.1680 H       1  UNL1        0.1552
     23 C          -0.5068    4.3314   17.3753 C.3     1  UNL1        0.0328
     24 C          -1.4821    3.9583   18.4521 C.ar    1  UNL1        0.0012
     25 C          -2.8841    4.4901   18.4113 C.ar    1  UNL1        0.0103
     26 C          -3.8594    4.1170   19.4881 C.ar    1  UNL1        0.0765
     27 CL         -5.2614    4.6489   19.4473 Cl      1  UNL1       -0.0806
     28 C          -3.4328    3.2120   20.6057 C.ar    1  UNL1        0.1103
     29 N          -2.0309    2.6802   20.6464 N.ar    1  UNL1       -0.2387
     30 C          -1.0556    3.0533   19.5696 C.ar    1  UNL1        0.1308
@<TRIPOS>BOND
     1    23    24    1
     2    24    25   ar
     3    25    26   ar
     4    26    27    1
     5    26    28   ar
     6    28    29   ar
     7    29    30   ar
     8    30    19    1
     9    19    20    2
    10    19    21   am
    11    21     1    1
    12     1     2   ar
    13     2     3   ar
    14     3     4   ar
    15     4     5    1
    16     4     6   ar
    17     6     8    1
    18     8     9    1
    19     8    10    1
    20    10    11    2
    21    11    12    1
    22    11    13    1
    23    13    14    1
    24    14    15    1
    25    15    16    1
    26     6     7   ar
    27    30    24   ar
    28     7     1   ar
    29    15     8    1
    30    21    22    1
    31    12    17    1
    32    12    18    1
