@<TRIPOS>MOLECULE
*****
 23 25 0 0 0
SMALL
GASTEIGER

@<TRIPOS>ATOM
      1 C          -8.6360  -17.0202   22.5849 C.ar    1  UNL1       -0.0143
      2 C          -8.0084  -18.3287   22.2059 C.ar    1  UNL1        0.0051
      3 S          -9.1048  -19.2676   21.7976 S.2     1  UNL1       -0.0915
      4 C         -10.4099  -18.5392   21.9244 C.ar    1  UNL1        0.0288
      5 C         -11.8247  -18.9613   21.6596 C.ar    1  UNL1        0.0065
      6 C         -12.9498  -17.9944   21.8815 C.ar    1  UNL1        0.0005
      7 C         -12.6601  -16.6054   22.3680 C.ar    1  UNL1        0.0000
      8 C         -11.2453  -16.1833   22.6328 C.ar    1  UNL1        0.0002
      9 C         -10.1202  -17.1502   22.4110 C.ar    1  UNL1        0.0025
     10 C          -7.5555  -14.7118   22.0806 C.3     1  UNL1        0.0111
     11 C          -7.9074  -15.7963   23.0554 C.3     1  UNL1        0.0635
     12 C          -7.5305  -15.6569   24.5005 C.ar    1  UNL1        0.0732
     13 N          -8.5992  -15.5284   25.5453 N.ar    1  UNL1       -0.2470
     14 C          -8.2225  -15.3889   26.9905 C.ar    1  UNL1        0.0985
     15 C          -6.7769  -15.3780   27.3909 C.ar    1  UNL1        0.0215
     16 C          -5.7083  -15.5065   26.3462 C.ar    1  UNL1        0.0142
     17 C          -6.0850  -15.6459   24.9010 C.ar    1  UNL1        0.0715
     18 CL         -5.0163  -15.7744   23.8564 Cl      1  UNL1       -0.0810
     19 C          -6.5420  -18.6433   22.2307 C.3     1  UNL1        0.0499
     20 C          -5.8394  -19.0439   20.9674 C.3     1  UNL1        0.0774
     21 N          -4.3581  -18.8463   20.8381 N.3     1  UNL1       -0.2700
     22 C          -3.7176  -18.8417   19.4816 C.3     1  UNL1        0.0897
     23 C          -3.5172  -18.6533   22.0651 C.3     1  UNL1        0.0897
@<TRIPOS>BOND
     1    11    10    1
     2    11    12    1
     3    12    13   ar
     4    13    14   ar
     5    14    15   ar
     6    15    16   ar
     7    16    17   ar
     8    17    18    1
     9    11     1    1
    10     1     2   ar
    11     2    19    1
    12    19    20    1
    13    20    21    1
    14    21    22    1
    15    21    23    1
    16     2     3   ar
    17     3     4   ar
    18     4     5   ar
    19     5     6   ar
    20     6     7   ar
    21     7     8   ar
    22     8     9   ar
    23    17    12   ar
    24     9     1   ar
    25     9     4   ar
@<TRIPOS>MOLECULE
*****
 23 25 0 0 0
SMALL
GASTEIGER

@<TRIPOS>ATOM
      1 C          -6.6522  -17.8433   22.6593 C.ar    1  UNL1       -0.0143
      2 C          -7.2862  -19.1153   22.1797 C.ar    1  UNL1        0.0051
      3 S          -6.1896  -20.0595   21.7846 S.2     1  UNL1       -0.0915
      4 C          -4.8779  -19.3710   22.0200 C.ar    1  UNL1        0.0288
      5 C          -3.4601  -19.8143   21.8119 C.ar    1  UNL1        0.0065
      6 C          -2.3282  -18.8880   22.1444 C.ar    1  UNL1        0.0005
      7 C          -2.6141  -17.5183   22.6850 C.ar    1  UNL1        0.0000
      8 C          -4.0319  -17.0749   22.8931 C.ar    1  UNL1        0.0002
      9 C          -5.1638  -18.0013   22.5606 C.ar    1  UNL1        0.0025
     10 C          -8.1830  -15.7959   22.1955 C.3     1  UNL1        0.0111
     11 C          -7.3789  -16.6268   23.1512 C.3     1  UNL1        0.0635
     12 C          -7.3016  -16.2411   24.5986 C.ar    1  UNL1        0.0732
     13 N          -6.1224  -15.4653   25.1062 N.ar    1  UNL1       -0.2470
     14 C          -6.0450  -15.0795   26.5536 C.ar    1  UNL1        0.0985
     15 C          -7.1470  -15.4696   27.4936 C.ar    1  UNL1        0.0215
     16 C          -8.3262  -16.2453   26.9861 C.ar    1  UNL1        0.0142
     17 C          -8.4036  -16.6311   25.5387 C.ar    1  UNL1        0.0715
     18 CL         -9.5828  -17.4069   25.0312 Cl      1  UNL1       -0.0810
     19 C          -8.7583  -19.3942   22.1079 C.3     1  UNL1        0.0499
     20 C          -9.5323  -19.0253   20.8771 C.3     1  UNL1        0.0774
     21 N         -10.8262  -18.2767   21.0011 N.3     1  UNL1       -0.2700
     22 C         -11.2565  -17.3375   19.9135 C.3     1  UNL1        0.0897
     23 C         -11.6898  -18.4673   22.2127 C.3     1  UNL1        0.0897
@<TRIPOS>BOND
     1    11    10    1
     2    11    12    1
     3    12    13   ar
     4    13    14   ar
     5    14    15   ar
     6    15    16   ar
     7    16    17   ar
     8    17    18    1
     9    11     1    1
    10     1     2   ar
    11     2    19    1
    12    19    20    1
    13    20    21    1
    14    21    22    1
    15    21    23    1
    16     2     3   ar
    17     3     4   ar
    18     4     5   ar
    19     5     6   ar
    20     6     7   ar
    21     7     8   ar
    22     8     9   ar
    23    17    12   ar
    24     9     1   ar
    25     9     4   ar
@<TRIPOS>MOLECULE
*****
 23 25 0 0 0
SMALL
GASTEIGER

@<TRIPOS>ATOM
      1 C          -7.3833  -18.5169   21.8279 C.ar    1  UNL1       -0.0143
      2 C          -7.0307  -17.4685   22.8411 C.ar    1  UNL1        0.0051
      3 S          -5.5418  -17.4811   23.0221 S.2     1  UNL1       -0.0915
      4 C          -4.9741  -18.5372   22.1208 C.ar    1  UNL1        0.0288
      5 C          -3.5679  -18.9987   21.8768 C.ar    1  UNL1        0.0065
      6 C          -3.2999  -20.1003   20.8947 C.ar    1  UNL1        0.0005
      7 C          -4.4381  -20.7404   20.1566 C.ar    1  UNL1        0.0000
      8 C          -5.8443  -20.2790   20.4006 C.ar    1  UNL1        0.0002
      9 C          -6.1123  -19.1774   21.3827 C.ar    1  UNL1        0.0025
     10 C          -8.9707  -19.3414   19.9436 C.3     1  UNL1        0.0111
     11 C          -8.7645  -18.8468   21.3447 C.3     1  UNL1        0.0635
     12 C          -9.9395  -18.6822   22.2623 C.ar    1  UNL1        0.0732
     13 N         -10.9791  -17.6411   21.9704 N.ar    1  UNL1       -0.2470
     14 C         -12.1542  -17.4764   22.8881 C.ar    1  UNL1        0.0985
     15 C         -12.2896  -18.3530   24.0978 C.ar    1  UNL1        0.0215
     16 C         -11.2500  -19.3941   24.3897 C.ar    1  UNL1        0.0142
     17 C         -10.0749  -19.5587   23.4721 C.ar    1  UNL1        0.0715
     18 CL         -9.0354  -20.5999   23.7641 Cl      1  UNL1       -0.0810
     19 C          -7.9974  -16.5661   23.5490 C.3     1  UNL1        0.0499
     20 C          -7.4972  -15.3505   24.2716 C.3     1  UNL1        0.0774
     21 N          -7.1205  -15.4415   25.7207 N.3     1  UNL1       -0.2700
     22 C          -8.1761  -15.6969   26.7555 C.3     1  UNL1        0.0897
     23 C          -5.6883  -15.2769   26.1351 C.3     1  UNL1        0.0897
@<TRIPOS>BOND
     1    11    10    1
     2    11    12    1
     3    12    13   ar
     4    13    14   ar
     5    14    15   ar
     6    15    16   ar
     7    16    17   ar
     8    17    18    1
     9    11     1    1
    10     1     2   ar
    11     2    19    1
    12    19    20    1
    13    20    21    1
    14    21    22    1
    15    21    23    1
    16     2     3   ar
    17     3     4   ar
    18     4     5   ar
    19     5     6   ar
    20     6     7   ar
    21     7     8   ar
    22     8     9   ar
    23    17    12   ar
    24     9     1   ar
    25     9     4   ar
@<TRIPOS>MOLECULE
*****
 23 25 0 0 0
SMALL
GASTEIGER

@<TRIPOS>ATOM
      1 C          -7.9206  -17.3769   22.2228 C.ar    1  UNL1       -0.0143
      2 C          -9.1524  -17.9831   21.6187 C.ar    1  UNL1        0.0051
      3 S          -8.7746  -19.3093   21.0284 S.2     1  UNL1       -0.0915
      4 C          -7.3093  -19.5227   21.2678 C.ar    1  UNL1        0.0288
      5 C          -6.3875  -20.6503   20.9090 C.ar    1  UNL1        0.0065
      6 C          -4.9378  -20.5835   21.2883 C.ar    1  UNL1        0.0005
      7 C          -4.4100  -19.3892   22.0265 C.ar    1  UNL1        0.0000
      8 C          -5.3318  -18.2616   22.3854 C.ar    1  UNL1        0.0002
      9 C          -6.7814  -18.3284   22.0060 C.ar    1  UNL1        0.0025
     10 C          -8.0555  -14.7833   22.1496 C.3     1  UNL1        0.0111
     11 C          -7.8416  -16.0517   22.9213 C.3     1  UNL1        0.0635
     12 C          -7.5488  -15.9949   24.3912 C.ar    1  UNL1        0.0732
     13 N          -8.6145  -16.3573   25.3828 N.ar    1  UNL1       -0.2470
     14 C          -8.3217  -16.3005   26.8529 C.ar    1  UNL1        0.0985
     15 C          -6.9633  -15.8813   27.3314 C.ar    1  UNL1        0.0215
     16 C          -5.8977  -15.5189   26.3399 C.ar    1  UNL1        0.0142
     17 C          -6.1904  -15.5757   24.8698 C.ar    1  UNL1        0.0715
     18 CL         -5.1247  -15.2134   23.8783 Cl      1  UNL1       -0.0810
     19 C         -10.5216  -17.3706   21.6068 C.3     1  UNL1        0.0499
     20 C         -11.1817  -16.9846   22.8972 C.3     1  UNL1        0.0774
     21 N         -11.9561  -18.0047   23.6781 N.3     1  UNL1       -0.2700
     22 C         -11.2306  -19.0462   24.4775 C.3     1  UNL1        0.0897
     23 C         -13.4558  -17.9832   23.6596 C.3     1  UNL1        0.0897
@<TRIPOS>BOND
     1    11    10    1
     2    11    12    1
     3    12    13   ar
     4    13    14   ar
     5    14    15   ar
     6    15    16   ar
     7    16    17   ar
     8    17    18    1
     9    11     1    1
    10     1     2   ar
    11     2    19    1
    12    19    20    1
    13    20    21    1
    14    21    22    1
    15    21    23    1
    16     2     3   ar
    17     3     4   ar
    18     4     5   ar
    19     5     6   ar
    20     6     7   ar
    21     7     8   ar
    22     8     9   ar
    23    17    12   ar
    24     9     1   ar
    25     9     4   ar
@<TRIPOS>MOLECULE
*****
 23 25 0 0 0
SMALL
GASTEIGER

@<TRIPOS>ATOM
      1 C          -6.1247  -18.5191   22.3049 C.ar    1  UNL1       -0.0143
      2 C          -4.6423  -18.5321   22.5332 C.ar    1  UNL1        0.0051
      3 S          -4.2969  -17.3594   23.4023 S.2     1  UNL1       -0.0915
      4 C          -5.5658  -16.6215   23.7111 C.ar    1  UNL1        0.0288
      5 C          -5.8386  -15.3897   24.5222 C.ar    1  UNL1        0.0065
      6 C          -7.2410  -14.8745   24.6552 C.ar    1  UNL1        0.0005
      7 C          -8.3707  -15.5913   23.9770 C.ar    1  UNL1        0.0000
      8 C          -8.0980  -16.8232   23.1658 C.ar    1  UNL1        0.0002
      9 C          -6.6955  -17.3383   23.0329 C.ar    1  UNL1        0.0025
     10 C          -6.1964  -20.6760   20.8582 C.3     1  UNL1        0.0111
     11 C          -6.9003  -19.5125   21.4915 C.3     1  UNL1        0.0635
     12 C          -8.3796  -19.3426   21.3113 C.ar    1  UNL1        0.0732
     13 N          -8.9130  -18.6699   20.0811 N.ar    1  UNL1       -0.2470
     14 C         -10.3924  -18.4999   19.9008 C.ar    1  UNL1        0.0985
     15 C         -11.3385  -19.0026   20.9508 C.ar    1  UNL1        0.0215
     16 C         -10.8052  -19.6752   22.1808 C.ar    1  UNL1        0.0142
     17 C          -9.3258  -19.8452   22.3611 C.ar    1  UNL1        0.0715
     18 CL         -8.7926  -20.5178   23.5912 Cl      1  UNL1       -0.0810
     19 C          -3.6751  -19.5408   21.9881 C.3     1  UNL1        0.0499
     20 C          -2.2817  -19.1226   21.6226 C.3     1  UNL1        0.0774
     21 N          -2.0629  -18.1098   20.5380 N.3     1  UNL1       -0.2700
     22 C          -1.5563  -16.7403   20.8817 C.3     1  UNL1        0.0897
     23 C          -2.3506  -18.4664   19.1097 C.3     1  UNL1        0.0897
@<TRIPOS>BOND
     1    11    10    1
     2    11    12    1
     3    12    13   ar
     4    13    14   ar
     5    14    15   ar
     6    15    16   ar
     7    16    17   ar
     8    17    18    1
     9    11     1    1
    10     1     2   ar
    11     2    19    1
    12    19    20    1
    13    20    21    1
    14    21    22    1
    15    21    23    1
    16     2     3   ar
    17     3     4   ar
    18     4     5   ar
    19     5     6   ar
    20     6     7   ar
    21     7     8   ar
    22     8     9   ar
    23    17    12   ar
    24     9     1   ar
    25     9     4   ar
@<TRIPOS>MOLECULE
*****
 23 25 0 0 0
SMALL
GASTEIGER

@<TRIPOS>ATOM
      1 C          -8.2357  -17.3360   23.9235 C.ar    1  UNL1       -0.0143
      2 C          -7.0674  -17.2462   22.9870 C.ar    1  UNL1        0.0051
      3 S          -6.0180  -16.3930   23.6356 S.2     1  UNL1       -0.0915
      4 C          -6.5377  -15.9555   24.9730 C.ar    1  UNL1        0.0288
      5 C          -5.9399  -15.1017   26.0517 C.ar    1  UNL1        0.0065
      6 C          -6.7128  -14.8306   27.3083 C.ar    1  UNL1        0.0005
      7 C          -8.0834  -15.4134   27.4862 C.ar    1  UNL1        0.0000
      8 C          -8.6812  -16.2672   26.4075 C.ar    1  UNL1        0.0002
      9 C          -7.9083  -16.5382   25.1509 C.ar    1  UNL1        0.0025
     10 C          -9.7758  -19.3708   24.4112 C.3     1  UNL1        0.0111
     11 C          -9.5081  -18.0909   23.6761 C.3     1  UNL1        0.0635
     12 C         -10.5126  -17.5661   22.6936 C.ar    1  UNL1        0.0732
     13 N         -11.3225  -16.3482   23.0271 N.ar    1  UNL1       -0.2470
     14 C         -12.3271  -15.8234   22.0447 C.ar    1  UNL1        0.0985
     15 C         -12.5220  -16.5164   20.7287 C.ar    1  UNL1        0.0215
     16 C         -11.7122  -17.7341   20.3952 C.ar    1  UNL1        0.0142
     17 C         -10.7076  -18.2590   21.3776 C.ar    1  UNL1        0.0715
     18 CL         -9.8978  -19.4768   21.0440 Cl      1  UNL1       -0.0810
     19 C          -6.9663  -17.8957   21.6387 C.3     1  UNL1        0.0499
     20 C          -6.1177  -19.1191   21.4572 C.3     1  UNL1        0.0774
     21 N          -4.6773  -18.9809   21.0619 N.3     1  UNL1       -0.2700
     22 C          -3.6120  -18.9268   22.1166 C.3     1  UNL1        0.0897
     23 C          -4.3023  -18.8969   19.6120 C.3     1  UNL1        0.0897
@<TRIPOS>BOND
     1    11    10    1
     2    11    12    1
     3    12    13   ar
     4    13    14   ar
     5    14    15   ar
     6    15    16   ar
     7    16    17   ar
     8    17    18    1
     9    11     1    1
    10     1     2   ar
    11     2    19    1
    12    19    20    1
    13    20    21    1
    14    21    22    1
    15    21    23    1
    16     2     3   ar
    17     3     4   ar
    18     4     5   ar
    19     5     6   ar
    20     6     7   ar
    21     7     8   ar
    22     8     9   ar
    23    17    12   ar
    24     9     1   ar
    25     9     4   ar
@<TRIPOS>MOLECULE
*****
 23 25 0 0 0
SMALL
GASTEIGER

@<TRIPOS>ATOM
      1 C          -7.4608  -17.7852   22.9912 C.ar    1  UNL1       -0.0143
      2 C          -7.4084  -16.4361   23.6448 C.ar    1  UNL1        0.0051
      3 S          -5.9699  -16.0215   23.7374 S.2     1  UNL1       -0.0915
      4 C          -5.1331  -17.1143   23.1410 C.ar    1  UNL1        0.0288
      5 C          -3.6512  -17.2576   22.9584 C.ar    1  UNL1        0.0065
      6 C          -3.0908  -18.4910   22.3145 C.ar    1  UNL1        0.0005
      7 C          -4.0123  -19.5810   21.8533 C.ar    1  UNL1        0.0000
      8 C          -5.4941  -19.4377   22.0360 C.ar    1  UNL1        0.0002
      9 C          -6.0546  -18.2043   22.6798 C.ar    1  UNL1        0.0025
     10 C          -8.7271  -20.0536   22.9590 C.3     1  UNL1        0.0111
     11 C          -8.7015  -18.5763   22.7000 C.3     1  UNL1        0.0635
     12 C          -9.9166  -17.8903   22.1500 C.ar    1  UNL1        0.0732
     13 N          -9.8921  -17.3188   20.7632 N.ar    1  UNL1       -0.2470
     14 C         -11.1072  -16.6327   20.2131 C.ar    1  UNL1        0.0985
     15 C         -12.3470  -16.5181   21.0497 C.ar    1  UNL1        0.0215
     16 C         -12.3716  -17.0895   22.4363 C.ar    1  UNL1        0.0142
     17 C         -11.1564  -17.7756   22.9865 C.ar    1  UNL1        0.0715
     18 CL        -11.1811  -18.3470   24.3732 Cl      1  UNL1       -0.0810
     19 C          -8.5876  -15.6413   24.1221 C.3     1  UNL1        0.0499
     20 C          -8.6381  -15.1515   25.5389 C.3     1  UNL1        0.0774
     21 N          -8.1289  -16.0197   26.6511 N.3     1  UNL1       -0.2700
     22 C          -8.8557  -17.2819   27.0101 C.3     1  UNL1        0.0897
     23 C          -6.8931  -15.6257   27.4044 C.3     1  UNL1        0.0897
@<TRIPOS>BOND
     1    11    10    1
     2    11    12    1
     3    12    13   ar
     4    13    14   ar
     5    14    15   ar
     6    15    16   ar
     7    16    17   ar
     8    17    18    1
     9    11     1    1
    10     1     2   ar
    11     2    19    1
    12    19    20    1
    13    20    21    1
    14    21    22    1
    15    21    23    1
    16     2     3   ar
    17     3     4   ar
    18     4     5   ar
    19     5     6   ar
    20     6     7   ar
    21     7     8   ar
    22     8     9   ar
    23    17    12   ar
    24     9     1   ar
    25     9     4   ar
@<TRIPOS>MOLECULE
*****
 23 25 0 0 0
SMALL
GASTEIGER

@<TRIPOS>ATOM
      1 C          -7.3919  -18.2709   22.1625 C.ar    1  UNL1       -0.0143
      2 C          -6.0391  -18.9012   22.0120 C.ar    1  UNL1        0.0051
      3 S          -5.0631  -18.1035   22.8251 S.2     1  UNL1       -0.0915
      4 C          -5.8127  -16.9802   23.4781 C.ar    1  UNL1        0.0288
      5 C          -5.3707  -15.8766   24.3927 C.ar    1  UNL1        0.0065
      6 C          -6.3679  -14.8764   24.8978 C.ar    1  UNL1        0.0005
      7 C          -7.8072  -14.9799   24.4882 C.ar    1  UNL1        0.0000
      8 C          -8.2493  -16.0836   23.5736 C.ar    1  UNL1        0.0002
      9 C          -7.2520  -17.0837   23.0686 C.ar    1  UNL1        0.0025
     10 C          -8.6218  -19.3892   20.1658 C.3     1  UNL1        0.0111
     11 C          -8.6617  -18.7446   21.5197 C.3     1  UNL1        0.0635
     12 C          -9.9713  -18.5739   22.2307 C.ar    1  UNL1        0.0732
     13 N         -10.1885  -19.2183   23.5678 N.ar    1  UNL1       -0.2470
     14 C         -11.4981  -19.0475   24.2789 C.ar    1  UNL1        0.0985
     15 C         -12.5907  -18.2324   23.6528 C.ar    1  UNL1        0.0215
     16 C         -12.3736  -17.5880   22.3158 C.ar    1  UNL1        0.0142
     17 C         -11.0639  -17.7587   21.6048 C.ar    1  UNL1        0.0715
     18 CL        -10.8469  -17.1143   20.2677 Cl      1  UNL1       -0.0810
     19 C          -5.7185  -20.1158   21.1923 C.3     1  UNL1        0.0499
     20 C          -4.8369  -19.9945   19.9848 C.3     1  UNL1        0.0774
     21 N          -3.4635  -19.4058   20.1150 N.3     1  UNL1       -0.2700
     22 C          -3.0619  -18.2422   19.2578 C.3     1  UNL1        0.0897
     23 C          -2.4916  -19.9807   21.1024 C.3     1  UNL1        0.0897
@<TRIPOS>BOND
     1    11    10    1
     2    11    12    1
     3    12    13   ar
     4    13    14   ar
     5    14    15   ar
     6    15    16   ar
     7    16    17   ar
     8    17    18    1
     9    11     1    1
    10     1     2   ar
    11     2    19    1
    12    19    20    1
    13    20    21    1
    14    21    22    1
    15    21    23    1
    16     2     3   ar
    17     3     4   ar
    18     4     5   ar
    19     5     6   ar
    20     6     7   ar
    21     7     8   ar
    22     8     9   ar
    23    17    12   ar
    24     9     1   ar
    25     9     4   ar
@<TRIPOS>MOLECULE
*****
 23 25 0 0 0
SMALL
GASTEIGER

@<TRIPOS>ATOM
      1 C          -6.8804  -18.1639   22.1574 C.ar    1  UNL1       -0.0143
      2 C          -8.3092  -17.9137   21.7755 C.ar    1  UNL1        0.0051
      3 S          -8.7796  -16.6953   22.5131 S.2     1  UNL1       -0.0915
      4 C          -7.6415  -16.1924   23.3510 C.ar    1  UNL1        0.0288
      5 C          -7.5225  -15.0254   24.2857 C.ar    1  UNL1        0.0065
      6 C          -6.2296  -14.7659   25.0006 C.ar    1  UNL1        0.0005
      7 C          -5.0557  -15.6736   24.7807 C.ar    1  UNL1        0.0000
      8 C          -5.1748  -16.8407   23.8460 C.ar    1  UNL1        0.0002
      9 C          -6.4677  -17.1001   23.1312 C.ar    1  UNL1        0.0025
     10 C          -6.4357  -20.7066   21.8623 C.3     1  UNL1        0.0111
     11 C          -6.0159  -19.2816   21.6540 C.3     1  UNL1        0.0635
     12 C          -4.7317  -18.9745   20.9424 C.ar    1  UNL1        0.0732
     13 N          -4.7561  -18.5247   19.5116 N.ar    1  UNL1       -0.2470
     14 C          -3.4719  -18.2176   18.7999 C.ar    1  UNL1        0.0985
     15 C          -2.1633  -18.3602   19.5190 C.ar    1  UNL1        0.0215
     16 C          -2.1389  -18.8099   20.9498 C.ar    1  UNL1        0.0142
     17 C          -3.4231  -19.1171   21.6615 C.ar    1  UNL1        0.0715
     18 CL         -3.3985  -19.5668   23.0923 Cl      1  UNL1       -0.0810
     19 C          -9.1244  -18.7373   20.8231 C.3     1  UNL1        0.0499
     20 C         -10.3357  -19.4727   21.3147 C.3     1  UNL1        0.0774
     21 N         -11.4666  -18.7170   21.9471 N.3     1  UNL1       -0.2700
     22 C         -11.7570  -18.8863   23.4090 C.3     1  UNL1        0.0897
     23 C         -12.3071  -17.7920   21.1177 C.3     1  UNL1        0.0897
@<TRIPOS>BOND
     1    11    10    1
     2    11    12    1
     3    12    13   ar
     4    13    14   ar
     5    14    15   ar
     6    15    16   ar
     7    16    17   ar
     8    17    18    1
     9    11     1    1
    10     1     2   ar
    11     2    19    1
    12    19    20    1
    13    20    21    1
    14    21    22    1
    15    21    23    1
    16     2     3   ar
    17     3     4   ar
    18     4     5   ar
    19     5     6   ar
    20     6     7   ar
    21     7     8   ar
    22     8     9   ar
    23    17    12   ar
    24     9     1   ar
    25     9     4   ar
