@<TRIPOS>MOLECULE
*****
 30 34 0 0 0
SMALL
GASTEIGER

@<TRIPOS>ATOM
      1 N          -7.3947  -19.8487   19.9221 N.pl3   1  UNL1       -0.2927
      2 H          -7.4773  -20.3252   19.0645 H       1  UNL1        0.1541
      3 C          -6.0431  -19.4317   20.4212 C.ar    1  UNL1        0.1629
      4 N          -5.7713  -18.5963   21.6371 N.ar    1  UNL1       -0.2284
      5 C          -4.2861  -18.4252   21.7595 C.ar    1  UNL1        0.0666
      6 C          -3.6400  -19.1549   20.6192 C.ar    1  UNL1        0.0237
      7 S          -4.7258  -19.7769   19.7922 S.2     1  UNL1       -0.0561
      8 C          -2.1464  -19.1586   20.4814 C.3     1  UNL1        0.0343
      9 C          -1.2989  -18.4327   21.4838 C.3     1  UNL1        0.0060
     10 C          -1.9451  -17.7030   22.6240 C.3     1  UNL1        0.0107
     11 C          -3.4387  -17.6993   22.7618 C.3     1  UNL1        0.0627
     12 C          -4.0848  -16.9696   23.9020 C.ar    1  UNL1       -0.0169
     13 C          -4.9367  -15.7644   23.6347 C.ar    1  UNL1       -0.0039
     14 C          -5.5828  -15.0347   24.7749 C.ar    1  UNL1       -0.0003
     15 C          -5.3771  -15.5103   26.1825 C.ar    1  UNL1       -0.0000
     16 C          -4.5253  -16.7156   26.4499 C.ar    1  UNL1       -0.0003
     17 C          -3.8791  -17.4453   25.3097 C.ar    1  UNL1       -0.0039
     18 C         -11.0722  -18.9214   22.3442 C.ar    1  UNL1        0.0929
     19 C         -11.1232  -18.8517   20.8467 C.ar    1  UNL1        0.0211
     20 C          -9.8973  -19.1607   20.0393 C.ar    1  UNL1        0.0163
     21 C          -8.6205  -19.5396   20.7294 C.ar    1  UNL1        0.0521
     22 C          -8.5696  -19.6093   22.2270 C.ar    1  UNL1        0.0458
     23 C          -9.7954  -19.3003   23.0343 C.ar    1  UNL1        0.1574
     24 F          -9.7444  -19.3700   24.5319 F       1  UNL1       -0.2026
     25 C         -14.4529  -18.4947   26.3777 C.3     1  UNL1        0.0538
     26 C         -13.8519  -18.4162   25.0057 C.ar    1  UNL1        0.0786
     27 C         -12.4807  -18.8829   24.6157 C.ar    1  UNL1        0.0963
     28 N         -12.2980  -18.6123   23.1516 N.ar    1  UNL1       -0.2846
     29 C         -13.5562  -17.9785   22.6367 C.ar    1  UNL1        0.1826
     30 N         -14.5166  -17.8573   23.7826 N.ar    1  UNL1       -0.2280
@<TRIPOS>BOND
     1    25    26    1
     2    26    27   ar
     3    27    28   ar
     4    28    18    1
     5    18    19   ar
     6    19    20   ar
     7    20    21   ar
     8    21     1    1
     9     1     3    1
    10     3     4   ar
    11     4     5   ar
    12     5     6   ar
    13     6     7   ar
    14     6     8    1
    15     8     9    1
    16     9    10    1
    17    10    11    1
    18    11    12    1
    19    12    13   ar
    20    13    14   ar
    21    14    15   ar
    22    15    16   ar
    23    16    17   ar
    24    21    22   ar
    25    22    23   ar
    26    23    24    1
    27    28    29   ar
    28    29    30   ar
    29    30    26   ar
    30    23    18   ar
    31     7     3   ar
    32    17    12   ar
    33    11     5    1
    34     1     2    1
@<TRIPOS>MOLECULE
*****
 30 34 0 0 0
SMALL
GASTEIGER

@<TRIPOS>ATOM
      1 N           0.0242    4.1436   19.8735 N.pl3   1  UNL1       -0.2927
      2 H           0.4575    4.9758   20.1717 H       1  UNL1        0.1541
      3 C          -1.4685    4.0814   19.7396 C.ar    1  UNL1        0.1629
      4 N          -2.4587    4.1628   20.8633 N.ar    1  UNL1       -0.2284
      5 C          -3.8353    4.0586   20.2767 C.ar    1  UNL1        0.0666
      6 C          -3.6958    3.9128   18.7903 C.ar    1  UNL1        0.0237
      7 S          -2.2331    3.9269   18.4584 S.2     1  UNL1       -0.0561
      8 C          -4.9188    3.7860   17.9311 C.3     1  UNL1        0.0343
      9 C          -6.2812    3.8050   18.5584 C.3     1  UNL1        0.0060
     10 C          -6.4207    3.9508   20.0447 C.3     1  UNL1        0.0107
     11 C          -5.1977    4.0776   20.9039 C.3     1  UNL1        0.0627
     12 C          -5.3371    4.2234   22.3903 C.ar    1  UNL1       -0.0169
     13 C          -6.0658    5.4027   22.9631 C.ar    1  UNL1       -0.0039
     14 C          -6.2053    5.5485   24.4495 C.ar    1  UNL1       -0.0003
     15 C          -5.6159    4.5150   25.3630 C.ar    1  UNL1       -0.0000
     16 C          -4.8872    3.3357   24.7902 C.ar    1  UNL1       -0.0003
     17 C          -4.7478    3.1899   23.3038 C.ar    1  UNL1       -0.0039
     18 C           2.5222    0.5261   18.9121 C.ar    1  UNL1        0.0929
     19 C           2.9839    1.8898   18.4911 C.ar    1  UNL1        0.0211
     20 C           2.1513    3.0957   18.8116 C.ar    1  UNL1        0.0163
     21 C           0.8569    2.9378   19.5530 C.ar    1  UNL1        0.0521
     22 C           0.3952    1.5740   19.9740 C.ar    1  UNL1        0.0458
     23 C           1.2278    0.3683   19.6535 C.ar    1  UNL1        0.1574
     24 F           0.7661   -0.9955   20.0745 F       1  UNL1       -0.2026
     25 C           4.6971   -4.2799   19.1415 C.3     1  UNL1        0.0538
     26 C           4.3545   -2.8889   18.6971 C.ar    1  UNL1        0.0786
     27 C           3.3886   -1.9604   19.3718 C.ar    1  UNL1        0.0963
     28 N           3.3549   -0.6797   18.5916 N.ar    1  UNL1       -0.2846
     29 C           4.2999   -0.8166   17.4348 C.ar    1  UNL1        0.1826
     30 N           4.9177   -2.1819   17.5000 N.ar    1  UNL1       -0.2280
@<TRIPOS>BOND
     1    25    26    1
     2    26    27   ar
     3    27    28   ar
     4    28    18    1
     5    18    19   ar
     6    19    20   ar
     7    20    21   ar
     8    21     1    1
     9     1     3    1
    10     3     4   ar
    11     4     5   ar
    12     5     6   ar
    13     6     7   ar
    14     6     8    1
    15     8     9    1
    16     9    10    1
    17    10    11    1
    18    11    12    1
    19    12    13   ar
    20    13    14   ar
    21    14    15   ar
    22    15    16   ar
    23    16    17   ar
    24    21    22   ar
    25    22    23   ar
    26    23    24    1
    27    28    29   ar
    28    29    30   ar
    29    30    26   ar
    30    23    18   ar
    31     7     3   ar
    32    17    12   ar
    33    11     5    1
    34     1     2    1
@<TRIPOS>MOLECULE
*****
 30 34 0 0 0
SMALL
GASTEIGER

@<TRIPOS>ATOM
      1 N           0.0873    3.8090   19.6070 N.pl3   1  UNL1       -0.2927
      2 H           0.2920    4.6655   19.1669 H       1  UNL1        0.1541
      3 C          -1.0893    3.7030   20.5313 C.ar    1  UNL1        0.1629
      4 N          -1.0366    3.7110   22.0303 N.ar    1  UNL1       -0.2284
      5 C          -2.4400    3.5834   22.5443 C.ar    1  UNL1        0.0666
      6 C          -3.3601    3.4966   21.3629 C.ar    1  UNL1        0.0237
      7 S          -2.5254    3.5705   20.1188 S.2     1  UNL1       -0.0561
      8 C          -4.8392    3.3614   21.5726 C.3     1  UNL1        0.0343
      9 C          -5.3981    3.3131   22.9637 C.3     1  UNL1        0.0060
     10 C          -4.4780    3.3999   24.1451 C.3     1  UNL1        0.0107
     11 C          -2.9989    3.5351   23.9354 C.3     1  UNL1        0.0627
     12 C          -2.0787    3.6219   25.1168 C.ar    1  UNL1       -0.0169
     13 C          -1.1602    2.4803   25.4376 C.ar    1  UNL1       -0.0039
     14 C          -0.2400    2.5671   26.6190 C.ar    1  UNL1       -0.0003
     15 C          -0.2384    3.7956   27.4797 C.ar    1  UNL1       -0.0000
     16 C          -1.1569    4.9372   27.1589 C.ar    1  UNL1       -0.0003
     17 C          -2.0770    4.8504   25.9775 C.ar    1  UNL1       -0.0039
     18 C           2.6818    0.2118   18.8461 C.ar    1  UNL1        0.0929
     19 C           3.1067    1.5616   18.3488 C.ar    1  UNL1        0.0211
     20 C           2.2418    2.7607   18.6024 C.ar    1  UNL1        0.0163
     21 C           0.9521    2.6099   19.3534 C.ar    1  UNL1        0.0521
     22 C           0.5273    1.2600   19.8508 C.ar    1  UNL1        0.0458
     23 C           1.3921    0.0610   19.5971 C.ar    1  UNL1        0.1574
     24 F           0.9673   -1.2889   20.0945 F       1  UNL1       -0.2026
     25 C           4.6686   -4.6769   19.0329 C.3     1  UNL1        0.0538
     26 C           4.4598   -3.2344   18.6784 C.ar    1  UNL1        0.0786
     27 C           3.3792   -2.3423   19.2138 C.ar    1  UNL1        0.0963
     28 N           3.5467   -0.9873   18.5925 N.ar    1  UNL1       -0.2846
     29 C           4.7306   -1.0419   17.6731 C.ar    1  UNL1        0.1826
     30 N           5.2950   -2.4307   17.7262 N.ar    1  UNL1       -0.2280
@<TRIPOS>BOND
     1    25    26    1
     2    26    27   ar
     3    27    28   ar
     4    28    18    1
     5    18    19   ar
     6    19    20   ar
     7    20    21   ar
     8    21     1    1
     9     1     3    1
    10     3     4   ar
    11     4     5   ar
    12     5     6   ar
    13     6     7   ar
    14     6     8    1
    15     8     9    1
    16     9    10    1
    17    10    11    1
    18    11    12    1
    19    12    13   ar
    20    13    14   ar
    21    14    15   ar
    22    15    16   ar
    23    16    17   ar
    24    21    22   ar
    25    22    23   ar
    26    23    24    1
    27    28    29   ar
    28    29    30   ar
    29    30    26   ar
    30    23    18   ar
    31     7     3   ar
    32    17    12   ar
    33    11     5    1
    34     1     2    1
@<TRIPOS>MOLECULE
*****
 30 34 0 0 0
SMALL
GASTEIGER

@<TRIPOS>ATOM
      1 N          -7.9025  -20.8716   23.0081 N.pl3   1  UNL1       -0.2927
      2 H          -7.8682  -21.7925   23.3546 H       1  UNL1        0.1541
      3 C          -9.1501  -20.0550   23.1712 C.ar    1  UNL1        0.1629
      4 N          -9.5575  -18.8881   22.3212 N.ar    1  UNL1       -0.2284
      5 C         -10.8686  -18.3738   22.8375 C.ar    1  UNL1        0.0666
      6 C         -11.2714  -19.2227   24.0067 C.ar    1  UNL1        0.0237
      7 S         -10.2094  -20.2617   24.2129 S.2     1  UNL1       -0.0561
      8 C         -12.5533  -18.9400   24.7325 C.3     1  UNL1        0.0343
      9 C         -13.4323  -17.8083   24.2891 C.3     1  UNL1        0.0060
     10 C         -13.0294  -16.9593   23.1200 C.3     1  UNL1        0.0107
     11 C         -11.7475  -17.2421   22.3942 C.3     1  UNL1        0.0627
     12 C         -11.3447  -16.3932   21.2250 C.ar    1  UNL1       -0.0169
     13 C         -12.1976  -16.3619   19.9915 C.ar    1  UNL1       -0.0039
     14 C         -11.7947  -15.5130   18.8223 C.ar    1  UNL1       -0.0003
     15 C         -10.5389  -14.6953   18.8866 C.ar    1  UNL1       -0.0000
     16 C          -9.6859  -14.7265   20.1201 C.ar    1  UNL1       -0.0003
     17 C         -10.0888  -15.5755   21.2892 C.ar    1  UNL1       -0.0039
     18 C          -4.3167  -19.1124   20.9353 C.ar    1  UNL1        0.0929
     19 C          -4.9962  -20.3207   20.3625 C.ar    1  UNL1        0.0211
     20 C          -6.1915  -20.9072   21.0534 C.ar    1  UNL1        0.0163
     21 C          -6.7073  -20.2852   22.3172 C.ar    1  UNL1        0.0521
     22 C          -6.0277  -19.0768   22.8900 C.ar    1  UNL1        0.0458
     23 C          -4.8325  -18.4904   22.1991 C.ar    1  UNL1        0.1574
     24 F          -4.1529  -17.2820   22.7719 F       1  UNL1       -0.2026
     25 C           0.6004  -17.4684   19.9347 C.3     1  UNL1        0.0538
     26 C          -0.8612  -17.7703   19.7845 C.ar    1  UNL1        0.0786
     27 C          -1.7380  -18.4188   20.8145 C.ar    1  UNL1        0.0963
     28 N          -3.1213  -18.5259   20.2443 N.ar    1  UNL1       -0.2846
     29 C          -3.0995  -17.9438   18.8621 C.ar    1  UNL1        0.1826
     30 N          -1.7027  -17.4768   18.5779 N.ar    1  UNL1       -0.2280
@<TRIPOS>BOND
     1    25    26    1
     2    26    27   ar
     3    27    28   ar
     4    28    18    1
     5    18    19   ar
     6    19    20   ar
     7    20    21   ar
     8    21     1    1
     9     1     3    1
    10     3     4   ar
    11     4     5   ar
    12     5     6   ar
    13     6     7   ar
    14     6     8    1
    15     8     9    1
    16     9    10    1
    17    10    11    1
    18    11    12    1
    19    12    13   ar
    20    13    14   ar
    21    14    15   ar
    22    15    16   ar
    23    16    17   ar
    24    21    22   ar
    25    22    23   ar
    26    23    24    1
    27    28    29   ar
    28    29    30   ar
    29    30    26   ar
    30    23    18   ar
    31     7     3   ar
    32    17    12   ar
    33    11     5    1
    34     1     2    1
@<TRIPOS>MOLECULE
*****
 30 34 0 0 0
SMALL
GASTEIGER

@<TRIPOS>ATOM
      1 N          -4.5533    2.6923   20.9943 N.pl3   1  UNL1       -0.2927
      2 H          -5.0296    1.9186   20.6151 H       1  UNL1        0.1541
      3 C          -3.2327    3.1143   20.4217 C.ar    1  UNL1        0.1629
      4 N          -1.9376    2.3684   20.5492 N.ar    1  UNL1       -0.2284
      5 C          -0.8798    3.1495   19.8273 C.ar    1  UNL1        0.0666
      6 C          -1.5212    4.3781   19.2537 C.ar    1  UNL1        0.0237
      7 S          -2.9753    4.3564   19.6210 S.2     1  UNL1       -0.0561
      8 C          -0.6982    5.3579   18.4710 C.3     1  UNL1        0.0343
      9 C           0.7661    5.1091   18.2619 C.3     1  UNL1        0.0060
     10 C           1.4075    3.8804   18.8356 C.3     1  UNL1        0.0107
     11 C           0.5846    2.9006   19.6183 C.3     1  UNL1        0.0627
     12 C           1.2259    1.6720   20.1919 C.ar    1  UNL1       -0.0169
     13 C           0.9750    0.3326   19.5649 C.ar    1  UNL1       -0.0039
     14 C           1.6164   -0.8960   20.1386 C.ar    1  UNL1       -0.0003
     15 C           2.5087   -0.7853   21.3392 C.ar    1  UNL1       -0.0000
     16 C           2.7596    0.5541   21.9661 C.ar    1  UNL1       -0.0003
     17 C           2.1182    1.7827   21.3925 C.ar    1  UNL1       -0.0039
     18 C          -6.3383    4.9627   24.4452 C.ar    1  UNL1        0.0929
     19 C          -6.7806    5.2597   23.0431 C.ar    1  UNL1        0.0211
     20 C          -6.1857    4.5029   21.8927 C.ar    1  UNL1        0.0163
     21 C          -5.1483    3.4491   22.1446 C.ar    1  UNL1        0.0521
     22 C          -4.7059    3.1521   23.5468 C.ar    1  UNL1        0.0458
     23 C          -5.3009    3.9089   24.6971 C.ar    1  UNL1        0.1574
     24 F          -4.8585    3.6120   26.0993 F       1  UNL1       -0.2026
     25 C          -6.9255    7.3564   29.1150 C.3     1  UNL1        0.0538
     26 C          -7.2031    6.8198   27.7421 C.ar    1  UNL1        0.0786
     27 C          -6.2382    6.0602   26.8805 C.ar    1  UNL1        0.0963
     28 N          -6.9332    5.7195   25.5956 N.ar    1  UNL1       -0.2846
     29 C          -8.3275    6.2685   25.6630 C.ar    1  UNL1        0.1826
     30 N          -8.4944    6.9484   26.9896 N.ar    1  UNL1       -0.2280
@<TRIPOS>BOND
     1    25    26    1
     2    26    27   ar
     3    27    28   ar
     4    28    18    1
     5    18    19   ar
     6    19    20   ar
     7    20    21   ar
     8    21     1    1
     9     1     3    1
    10     3     4   ar
    11     4     5   ar
    12     5     6   ar
    13     6     7   ar
    14     6     8    1
    15     8     9    1
    16     9    10    1
    17    10    11    1
    18    11    12    1
    19    12    13   ar
    20    13    14   ar
    21    14    15   ar
    22    15    16   ar
    23    16    17   ar
    24    21    22   ar
    25    22    23   ar
    26    23    24    1
    27    28    29   ar
    28    29    30   ar
    29    30    26   ar
    30    23    18   ar
    31     7     3   ar
    32    17    12   ar
    33    11     5    1
    34     1     2    1
@<TRIPOS>MOLECULE
*****
 30 34 0 0 0
SMALL
GASTEIGER

@<TRIPOS>ATOM
      1 N           5.5622   -1.4688   24.6776 N.pl3   1  UNL1       -0.2927
      2 H           6.5283   -1.4082   24.8573 H       1  UNL1        0.1541
      3 C           5.0747   -2.0633   23.3897 C.ar    1  UNL1        0.1629
      4 N           4.2156   -1.3754   22.3704 N.ar    1  UNL1       -0.2284
      5 C           3.9706   -2.3371   21.2457 C.ar    1  UNL1        0.0666
      6 C           4.6782   -3.6194   21.5698 C.ar    1  UNL1        0.0237
      7 S           5.3605   -3.4502   22.8948 S.2     1  UNL1       -0.0561
      8 C           4.6098   -4.7755   20.6165 C.3     1  UNL1        0.0343
      9 C           3.8338   -4.6492   19.3390 C.3     1  UNL1        0.0060
     10 C           3.1262   -3.3669   19.0149 C.3     1  UNL1        0.0107
     11 C           3.1946   -2.2109   19.9683 C.3     1  UNL1        0.0627
     12 C           2.4870   -0.9286   19.6441 C.ar    1  UNL1       -0.0169
     13 C           1.1411   -0.6430   20.2415 C.ar    1  UNL1       -0.0039
     14 C           0.4335    0.6393   19.9174 C.ar    1  UNL1       -0.0003
     15 C           1.0719    1.6360   18.9959 C.ar    1  UNL1       -0.0000
     16 C           2.4178    1.3504   18.3986 C.ar    1  UNL1       -0.0003
     17 C           3.1254    0.0681   18.7227 C.ar    1  UNL1       -0.0039
     18 C           2.6091    0.0382   27.7203 C.ar    1  UNL1        0.0929
     19 C           3.5646   -1.0599   28.0824 C.ar    1  UNL1        0.0211
     20 C           4.5490   -1.5623   27.0682 C.ar    1  UNL1        0.0163
     21 C           4.5778   -0.9665   25.6919 C.ar    1  UNL1        0.0521
     22 C           3.6223    0.1317   25.3298 C.ar    1  UNL1        0.0458
     23 C           2.6379    0.6340   26.3440 C.ar    1  UNL1        0.1574
     24 F           1.6823    1.7321   25.9820 F       1  UNL1       -0.2026
     25 C           0.4123    2.8038   31.6455 C.3     1  UNL1        0.0538
     26 C           0.6149    1.8118   30.5388 C.ar    1  UNL1        0.0786
     27 C           1.8633    1.6419   29.7246 C.ar    1  UNL1        0.0963
     28 N           1.6246    0.5405   28.7346 N.ar    1  UNL1       -0.2846
     29 C           0.2289    0.0298   28.9368 C.ar    1  UNL1        0.1826
     30 N          -0.3952    0.8155   30.0518 N.ar    1  UNL1       -0.2280
@<TRIPOS>BOND
     1    25    26    1
     2    26    27   ar
     3    27    28   ar
     4    28    18    1
     5    18    19   ar
     6    19    20   ar
     7    20    21   ar
     8    21     1    1
     9     1     3    1
    10     3     4   ar
    11     4     5   ar
    12     5     6   ar
    13     6     7   ar
    14     6     8    1
    15     8     9    1
    16     9    10    1
    17    10    11    1
    18    11    12    1
    19    12    13   ar
    20    13    14   ar
    21    14    15   ar
    22    15    16   ar
    23    16    17   ar
    24    21    22   ar
    25    22    23   ar
    26    23    24    1
    27    28    29   ar
    28    29    30   ar
    29    30    26   ar
    30    23    18   ar
    31     7     3   ar
    32    17    12   ar
    33    11     5    1
    34     1     2    1
@<TRIPOS>MOLECULE
*****
 30 34 0 0 0
SMALL
GASTEIGER

@<TRIPOS>ATOM
      1 N           2.8304    0.9019   26.0702 N.pl3   1  UNL1       -0.2927
      2 H           3.4337    1.1188   26.8173 H       1  UNL1        0.1541
      3 C           3.2610   -0.0768   25.0182 C.ar    1  UNL1        0.1629
      4 N           2.9175   -0.0114   23.5596 N.ar    1  UNL1       -0.2284
      5 C           3.5549   -1.1870   22.8800 C.ar    1  UNL1        0.0666
      6 C           4.2924   -1.9789   23.9187 C.ar    1  UNL1        0.0237
      7 S           4.1107   -1.2928   25.2402 S.2     1  UNL1       -0.0561
      8 C           5.0340   -3.2225   23.5270 C.3     1  UNL1        0.0343
      9 C           5.0381   -3.6741   22.0967 C.3     1  UNL1        0.0060
     10 C           4.3007   -2.8821   21.0580 C.3     1  UNL1        0.0107
     11 C           3.5590   -1.6385   21.4496 C.3     1  UNL1        0.0627
     12 C           2.8216   -0.8466   20.4109 C.ar    1  UNL1       -0.0169
     13 C           3.5266   -0.4076   19.1619 C.ar    1  UNL1       -0.0039
     14 C           2.7892    0.3844   18.1232 C.ar    1  UNL1       -0.0003
     15 C           1.3466    0.7374   18.3336 C.ar    1  UNL1       -0.0000
     16 C           0.6415    0.2985   19.5826 C.ar    1  UNL1       -0.0003
     17 C           1.3790   -0.4935   20.6213 C.ar    1  UNL1       -0.0039
     18 C          -1.2193    2.8469   25.8114 C.ar    1  UNL1        0.0929
     19 C          -0.1621    3.1784   24.8003 C.ar    1  UNL1        0.0211
     20 C           1.1879    2.5301   24.8865 C.ar    1  UNL1        0.0163
     21 C           1.4805    1.5502   25.9839 C.ar    1  UNL1        0.0521
     22 C           0.4232    1.2187   26.9951 C.ar    1  UNL1        0.0458
     23 C          -0.9266    1.8670   26.9088 C.ar    1  UNL1        0.1574
     24 F          -1.9839    1.5355   27.9199 F       1  UNL1       -0.2026
     25 C          -5.5630    5.5852   27.0423 C.3     1  UNL1        0.0538
     26 C          -4.5658    4.7539   26.2909 C.ar    1  UNL1        0.0786
     27 C          -3.2320    4.2986   26.8046 C.ar    1  UNL1        0.0963
     28 N          -2.5693    3.4952   25.7251 N.ar    1  UNL1       -0.2846
     29 C          -3.4934    3.4540   24.5443 C.ar    1  UNL1        0.1826
     30 N          -4.7273    4.2319   24.8940 N.ar    1  UNL1       -0.2280
@<TRIPOS>BOND
     1    25    26    1
     2    26    27   ar
     3    27    28   ar
     4    28    18    1
     5    18    19   ar
     6    19    20   ar
     7    20    21   ar
     8    21     1    1
     9     1     3    1
    10     3     4   ar
    11     4     5   ar
    12     5     6   ar
    13     6     7   ar
    14     6     8    1
    15     8     9    1
    16     9    10    1
    17    10    11    1
    18    11    12    1
    19    12    13   ar
    20    13    14   ar
    21    14    15   ar
    22    15    16   ar
    23    16    17   ar
    24    21    22   ar
    25    22    23   ar
    26    23    24    1
    27    28    29   ar
    28    29    30   ar
    29    30    26   ar
    30    23    18   ar
    31     7     3   ar
    32    17    12   ar
    33    11     5    1
    34     1     2    1
@<TRIPOS>MOLECULE
*****
 30 34 0 0 0
SMALL
GASTEIGER

@<TRIPOS>ATOM
      1 N           2.8279    0.6737   26.2055 N.pl3   1  UNL1       -0.2927
      2 H           2.3404    1.5036   25.9984 H       1  UNL1        0.1541
      3 C           3.2578   -0.2401   25.0963 C.ar    1  UNL1        0.1629
      4 N           2.8855   -0.1065   23.6495 N.ar    1  UNL1       -0.2284
      5 C           3.5332   -1.2317   22.8983 C.ar    1  UNL1        0.0666
      6 C           4.3058   -2.0608   23.8809 C.ar    1  UNL1        0.0237
      7 S           4.1357   -1.4479   25.2394 S.2     1  UNL1       -0.0561
      8 C           5.0645   -3.2667   23.4117 C.3     1  UNL1        0.0343
      9 C           5.0506   -3.6435   21.9599 C.3     1  UNL1        0.0060
     10 C           4.2779   -2.8144   20.9773 C.3     1  UNL1        0.0107
     11 C           3.5192   -1.6085   21.4465 C.3     1  UNL1        0.0627
     12 C           2.7465   -0.7794   20.4638 C.ar    1  UNL1       -0.0169
     13 C           1.3043   -0.4591   20.7233 C.ar    1  UNL1       -0.0039
     14 C           0.5316    0.3700   19.7407 C.ar    1  UNL1       -0.0003
     15 C           1.2011    0.8787   18.4986 C.ar    1  UNL1       -0.0000
     16 C           2.6433    0.5584   18.2391 C.ar    1  UNL1       -0.0003
     17 C           3.4160   -0.2707   19.2217 C.ar    1  UNL1       -0.0039
     18 C           3.7661   -0.3783   30.4790 C.ar    1  UNL1        0.0929
     19 C           2.3990   -0.6470   29.9232 C.ar    1  UNL1        0.0211
     20 C           2.0862   -0.2963   28.4987 C.ar    1  UNL1        0.0163
     21 C           3.1406    0.3230   27.6299 C.ar    1  UNL1        0.0521
     22 C           4.5077    0.5917   28.1857 C.ar    1  UNL1        0.0458
     23 C           4.8204    0.2410   29.6102 C.ar    1  UNL1        0.1574
     24 F           6.1876    0.5097   30.1660 F       1  UNL1       -0.2026
     25 C           4.5608   -0.0006   35.6854 C.3     1  UNL1        0.0538
     26 C           4.4441   -0.5553   34.2967 C.ar    1  UNL1        0.0786
     27 C           4.0749    0.2189   33.0660 C.ar    1  UNL1        0.0963
     28 N           4.0789   -0.7290   31.9035 N.ar    1  UNL1       -0.2846
     29 C           4.4505   -2.0890   32.4156 C.ar    1  UNL1        0.1826
     30 N           4.6762   -1.9817   33.8946 N.ar    1  UNL1       -0.2280
@<TRIPOS>BOND
     1    25    26    1
     2    26    27   ar
     3    27    28   ar
     4    28    18    1
     5    18    19   ar
     6    19    20   ar
     7    20    21   ar
     8    21     1    1
     9     1     3    1
    10     3     4   ar
    11     4     5   ar
    12     5     6   ar
    13     6     7   ar
    14     6     8    1
    15     8     9    1
    16     9    10    1
    17    10    11    1
    18    11    12    1
    19    12    13   ar
    20    13    14   ar
    21    14    15   ar
    22    15    16   ar
    23    16    17   ar
    24    21    22   ar
    25    22    23   ar
    26    23    24    1
    27    28    29   ar
    28    29    30   ar
    29    30    26   ar
    30    23    18   ar
    31     7     3   ar
    32    17    12   ar
    33    11     5    1
    34     1     2    1
@<TRIPOS>MOLECULE
*****
 30 34 0 0 0
SMALL
GASTEIGER

@<TRIPOS>ATOM
      1 N           1.3414    3.3027   22.1108 N.pl3   1  UNL1       -0.2927
      2 H           1.7049    4.1044   21.6698 H       1  UNL1        0.1541
      3 C           0.1926    3.4286   23.0670 C.ar    1  UNL1        0.1629
      4 N           0.1968    3.0167   24.5093 N.ar    1  UNL1       -0.2284
      5 C          -1.1553    3.3219   25.0826 C.ar    1  UNL1        0.0666
      6 C          -1.9952    3.9225   23.9945 C.ar    1  UNL1        0.0237
      7 S          -1.1621    3.9884   22.7489 S.2     1  UNL1       -0.0561
      8 C          -3.4100    4.3318   24.2786 C.3     1  UNL1        0.0343
      9 C          -3.9849    4.1405   25.6508 C.3     1  UNL1        0.0060
     10 C          -3.1450    3.5399   26.7388 C.3     1  UNL1        0.0107
     11 C          -1.7302    3.1306   26.4547 C.3     1  UNL1        0.0627
     12 C          -0.8903    2.5300   27.5428 C.ar    1  UNL1       -0.0169
     13 C           0.1693    3.3532   28.2132 C.ar    1  UNL1       -0.0039
     14 C           1.0092    2.7526   29.3012 C.ar    1  UNL1       -0.0003
     15 C           0.7895    1.3289   29.7189 C.ar    1  UNL1       -0.0000
     16 C          -0.2701    0.5057   29.0485 C.ar    1  UNL1       -0.0003
     17 C          -1.1100    1.1062   27.9605 C.ar    1  UNL1       -0.0039
     18 C           3.1264   -0.7391   21.2576 C.ar    1  UNL1        0.0929
     19 C           3.9114    0.2797   22.0293 C.ar    1  UNL1        0.0211
     20 C           3.3165    1.6271   22.3138 C.ar    1  UNL1        0.0163
     21 C           1.9364    1.9555   21.8264 C.ar    1  UNL1        0.0521
     22 C           1.1513    0.9366   21.0546 C.ar    1  UNL1        0.0458
     23 C           1.7463   -0.4106   20.7702 C.ar    1  UNL1        0.1574
     24 F           0.9612   -1.4295   19.9985 F       1  UNL1       -0.2026
     25 C           4.6558   -5.1244   18.7455 C.3     1  UNL1        0.0538
     26 C           4.4243   -4.1021   19.8185 C.ar    1  UNL1        0.0786
     27 C           3.7271   -2.7852   19.6459 C.ar    1  UNL1        0.0963
     28 N           3.7213   -2.0864   20.9732 N.ar    1  UNL1       -0.2846
     29 C           4.4149   -2.9713   21.9660 C.ar    1  UNL1        0.1826
     30 N           4.8494   -4.2171   21.2524 N.ar    1  UNL1       -0.2280
@<TRIPOS>BOND
     1    25    26    1
     2    26    27   ar
     3    27    28   ar
     4    28    18    1
     5    18    19   ar
     6    19    20   ar
     7    20    21   ar
     8    21     1    1
     9     1     3    1
    10     3     4   ar
    11     4     5   ar
    12     5     6   ar
    13     6     7   ar
    14     6     8    1
    15     8     9    1
    16     9    10    1
    17    10    11    1
    18    11    12    1
    19    12    13   ar
    20    13    14   ar
    21    14    15   ar
    22    15    16   ar
    23    16    17   ar
    24    21    22   ar
    25    22    23   ar
    26    23    24    1
    27    28    29   ar
    28    29    30   ar
    29    30    26   ar
    30    23    18   ar
    31     7     3   ar
    32    17    12   ar
    33    11     5    1
    34     1     2    1
