@<TRIPOS>MOLECULE
*****
 29 32 0 0 0
SMALL
GASTEIGER

@<TRIPOS>ATOM
      1 O          -9.5827  -18.5828   19.6371 O.2     1  UNL1       -0.2707
      2 C          -9.8705  -19.2855   20.9307 C.2     1  UNL1        0.2707
      3 N          -8.7403  -19.7177   21.8171 N.am    1  UNL1       -0.2809
      4 H          -8.9291  -20.1789   22.6661 H       1  UNL1        0.1550
      5 C          -7.3222  -19.4472   21.4098 C.ar    1  UNL1        0.0504
      6 C          -6.4171  -18.6674   22.3169 C.ar    1  UNL1        0.0147
      7 C          -4.9990  -18.3968   21.9097 C.ar    1  UNL1        0.0013
      8 C          -4.4860  -18.9061   20.5954 C.ar    1  UNL1        0.0001
      9 C          -5.3910  -19.6859   19.6883 C.ar    1  UNL1        0.0013
     10 C          -6.8092  -19.9564   20.0955 C.ar    1  UNL1        0.0147
     11 C          -3.0679  -18.6356   20.1881 C.ar    1  UNL1        0.0000
     12 C          -1.9410  -18.9961   21.1102 C.ar    1  UNL1        0.0000
     13 C          -0.5230  -18.7256   20.7030 C.ar    1  UNL1        0.0000
     14 C          -0.2317  -18.0946   19.3737 C.ar    1  UNL1        0.0000
     15 C          -1.3586  -17.7341   18.4516 C.ar    1  UNL1        0.0000
     16 C          -2.7767  -18.0046   18.8588 C.ar    1  UNL1        0.0000
     17 C         -11.2887  -19.5560   21.3379 C.3     1  UNL1        0.2897
     18 O         -11.8255  -18.9791   22.6142 O.3     1  UNL1       -0.4656
     19 C         -10.9224  -18.1990   23.5229 C.ar    1  UNL1        0.1393
     20 C         -10.4314  -18.8132   24.8003 C.ar    1  UNL1        0.0370
     21 C          -9.5283  -18.0331   25.7090 C.ar    1  UNL1        0.0062
     22 C          -9.1162  -16.6387   25.3403 C.ar    1  UNL1        0.0364
     23 C          -9.6072  -16.0245   24.0630 C.ar    1  UNL1        0.0062
     24 C         -10.5103  -16.8046   23.1543 C.ar    1  UNL1        0.0370
     25 C          -8.2130  -15.8586   26.2491 C.ar    1  UNL1        0.1664
     26 C          -6.7486  -15.6122   26.0375 C.ar    1  UNL1        0.1396
     27 N          -6.2462  -14.7893   27.1866 N.ar    1  UNL1       -0.2026
     28 C          -7.4002  -14.5271   28.1084 C.ar    1  UNL1        0.2851
     29 O          -8.6158  -15.1880   27.5290 O.2     1  UNL1       -0.4311
@<TRIPOS>BOND
     1     1     2    2
     2     2    17    1
     3    17    18    1
     4    18    19    1
     5    19    20   ar
     6    20    21   ar
     7    21    22   ar
     8    22    25    1
     9    25    26   ar
    10    26    27   ar
    11    27    28   ar
    12    28    29   ar
    13    22    23   ar
    14    23    24   ar
    15     2     3   am
    16     3     5    1
    17     5     6   ar
    18     6     7   ar
    19     7     8   ar
    20     8    11    1
    21    11    12   ar
    22    12    13   ar
    23    13    14   ar
    24    14    15   ar
    25    15    16   ar
    26     8     9   ar
    27     9    10   ar
    28    24    19   ar
    29    10     5   ar
    30    29    25   ar
    31    16    11   ar
    32     3     4    1
@<TRIPOS>MOLECULE
*****
 29 32 0 0 0
SMALL
GASTEIGER

@<TRIPOS>ATOM
      1 O           0.3179    3.0339   22.1785 O.2     1  UNL1       -0.2707
      2 C          -0.9321    2.8242   21.3763 C.2     1  UNL1        0.2707
      3 N          -0.9234    1.8867   20.2055 N.am    1  UNL1       -0.2809
      4 H          -1.7438    1.7490   19.6790 H       1  UNL1        0.1550
      5 C           0.3353    1.1588   19.8368 C.ar    1  UNL1        0.0504
      6 C           1.2347    1.7090   18.7698 C.ar    1  UNL1        0.0147
      7 C           2.4934    0.9811   18.4011 C.ar    1  UNL1        0.0013
      8 C           2.8528   -0.2968   19.0995 C.ar    1  UNL1        0.0001
      9 C           1.9535   -0.8469   20.1665 C.ar    1  UNL1        0.0013
     10 C           0.6947   -0.1191   20.5352 C.ar    1  UNL1        0.0147
     11 C           4.1115   -1.0246   18.7309 C.ar    1  UNL1        0.0000
     12 C           5.3242   -0.2545   18.2992 C.ar    1  UNL1        0.0000
     13 C           6.5828   -0.9823   17.9305 C.ar    1  UNL1        0.0000
     14 C           6.6289   -2.4803   17.9936 C.ar    1  UNL1        0.0000
     15 C           5.4163   -3.2504   18.4252 C.ar    1  UNL1        0.0000
     16 C           4.1575   -2.5226   18.7939 C.ar    1  UNL1        0.0000
     17 C          -2.1908    3.5521   21.7450 C.3     1  UNL1        0.2897
     18 O          -3.5264    2.9270   21.4705 O.3     1  UNL1       -0.4656
     19 C          -4.7602    3.4771   22.1227 C.ar    1  UNL1        0.1393
     20 C          -5.8181    4.1377   21.2894 C.ar    1  UNL1        0.0370
     21 C          -7.0517    4.6877   21.9417 C.ar    1  UNL1        0.0062
     22 C          -7.2276    4.5770   23.4272 C.ar    1  UNL1        0.0364
     23 C          -6.1697    3.9164   24.2605 C.ar    1  UNL1        0.0062
     24 C          -4.9360    3.3664   23.6083 C.ar    1  UNL1        0.0370
     25 C          -8.4614    5.1271   24.0795 C.ar    1  UNL1        0.1664
     26 C          -8.5933    6.4777   24.7186 C.ar    1  UNL1        0.1396
     27 N          -9.9932    6.6085   25.2412 N.ar    1  UNL1       -0.2026
     28 C         -10.7265    5.3386   24.9250 C.ar    1  UNL1        0.2851
     29 O          -9.7797    4.4231   24.2071 O.2     1  UNL1       -0.4311
@<TRIPOS>BOND
     1     1     2    2
     2     2    17    1
     3    17    18    1
     4    18    19    1
     5    19    20   ar
     6    20    21   ar
     7    21    22   ar
     8    22    25    1
     9    25    26   ar
    10    26    27   ar
    11    27    28   ar
    12    28    29   ar
    13    22    23   ar
    14    23    24   ar
    15     2     3   am
    16     3     5    1
    17     5     6   ar
    18     6     7   ar
    19     7     8   ar
    20     8    11    1
    21    11    12   ar
    22    12    13   ar
    23    13    14   ar
    24    14    15   ar
    25    15    16   ar
    26     8     9   ar
    27     9    10   ar
    28    24    19   ar
    29    10     5   ar
    30    29    25   ar
    31    16    11   ar
    32     3     4    1
@<TRIPOS>MOLECULE
*****
 29 32 0 0 0
SMALL
GASTEIGER

@<TRIPOS>ATOM
      1 O           0.4550    3.7569   21.4889 O.2     1  UNL1       -0.2707
      2 C          -0.8981    3.2070   21.1469 C.2     1  UNL1        0.2707
      3 N          -1.0141    1.9151   20.3936 N.am    1  UNL1       -0.2809
      4 H          -1.9021    1.5542   20.1691 H       1  UNL1        0.1550
      5 C           0.2229    1.1731   19.9824 C.ar    1  UNL1        0.0504
      6 C           0.6640   -0.0354   20.7540 C.ar    1  UNL1        0.0147
      7 C           1.9009   -0.7774   20.3428 C.ar    1  UNL1        0.0013
      8 C           2.6970   -0.3112   19.1601 C.ar    1  UNL1        0.0001
      9 C           2.2560    0.8972   18.3885 C.ar    1  UNL1        0.0013
     10 C           1.0189    1.6393   18.7997 C.ar    1  UNL1        0.0147
     11 C           3.9340   -1.0532   18.7489 C.ar    1  UNL1        0.0000
     12 C           3.9941   -2.5457   18.8872 C.ar    1  UNL1        0.0000
     13 C           5.2311   -3.2877   18.4760 C.ar    1  UNL1        0.0000
     14 C           6.4080   -2.5374   17.9265 C.ar    1  UNL1        0.0000
     15 C           6.3479   -1.0451   17.7882 C.ar    1  UNL1        0.0000
     16 C           5.1109   -0.3029   18.1994 C.ar    1  UNL1        0.0000
     17 C          -2.1351    3.9492   21.5581 C.3     1  UNL1        0.2897
     18 O          -3.2842    3.2081   22.1747 O.3     1  UNL1       -0.4656
     19 C          -4.1039    3.8563   23.2508 C.ar    1  UNL1        0.1393
     20 C          -3.8906    3.4782   24.6866 C.ar    1  UNL1        0.0370
     21 C          -4.7103    4.1265   25.7626 C.ar    1  UNL1        0.0062
     22 C          -5.7433    5.1528   25.4028 C.ar    1  UNL1        0.0364
     23 C          -5.9566    5.5309   23.9671 C.ar    1  UNL1        0.0062
     24 C          -5.1370    4.8827   22.8911 C.ar    1  UNL1        0.0370
     25 C          -6.5630    5.8011   26.4789 C.ar    1  UNL1        0.1664
     26 C          -7.8445    6.5544   26.2780 C.ar    1  UNL1        0.1396
     27 N          -8.3187    7.0288   27.6196 N.ar    1  UNL1       -0.2026
     28 C          -7.3302    6.5685   28.6498 C.ar    1  UNL1        0.2851
     29 O          -6.2452    5.8098   27.9448 O.2     1  UNL1       -0.4311
@<TRIPOS>BOND
     1     1     2    2
     2     2    17    1
     3    17    18    1
     4    18    19    1
     5    19    20   ar
     6    20    21   ar
     7    21    22   ar
     8    22    25    1
     9    25    26   ar
    10    26    27   ar
    11    27    28   ar
    12    28    29   ar
    13    22    23   ar
    14    23    24   ar
    15     2     3   am
    16     3     5    1
    17     5     6   ar
    18     6     7   ar
    19     7     8   ar
    20     8    11    1
    21    11    12   ar
    22    12    13   ar
    23    13    14   ar
    24    14    15   ar
    25    15    16   ar
    26     8     9   ar
    27     9    10   ar
    28    24    19   ar
    29    10     5   ar
    30    29    25   ar
    31    16    11   ar
    32     3     4    1
@<TRIPOS>MOLECULE
*****
 29 32 0 0 0
SMALL
GASTEIGER

@<TRIPOS>ATOM
      1 O           5.3639   -4.5471   20.2731 O.2     1  UNL1       -0.2707
      2 C           6.3786   -3.5048   19.9071 C.2     1  UNL1        0.2707
      3 N           7.5834   -3.2935   20.7753 N.am    1  UNL1       -0.2809
      4 H           8.2494   -2.6094   20.5350 H       1  UNL1        0.1550
      5 C           7.7735   -4.1245   22.0095 C.ar    1  UNL1        0.0504
      6 C           7.0117   -3.7963   23.2593 C.ar    1  UNL1        0.0147
      7 C           7.2018   -4.6273   24.4935 C.ar    1  UNL1        0.0013
      8 C           8.1536   -5.7865   24.4780 C.ar    1  UNL1        0.0001
      9 C           8.9153   -6.1148   23.2282 C.ar    1  UNL1        0.0013
     10 C           8.7253   -5.2838   21.9939 C.ar    1  UNL1        0.0147
     11 C           8.3436   -6.6175   25.7122 C.ar    1  UNL1        0.0000
     12 C           9.0100   -7.9581   25.6185 C.ar    1  UNL1        0.0000
     13 C           9.2001   -8.7891   26.8527 C.ar    1  UNL1        0.0000
     14 C           8.7238   -8.2795   28.1806 C.ar    1  UNL1        0.0000
     15 C           8.0574   -6.9390   28.2744 C.ar    1  UNL1        0.0000
     16 C           7.8673   -6.1079   27.0401 C.ar    1  UNL1        0.0000
     17 C           6.1885   -2.6738   18.6728 C.3     1  UNL1        0.2897
     18 O           4.8503   -2.6303   17.9967 O.3     1  UNL1       -0.4656
     19 C           3.8098   -1.6518   18.4551 C.ar    1  UNL1        0.1393
     20 C           3.5803   -0.3853   17.6849 C.ar    1  UNL1        0.0370
     21 C           2.5400    0.5932   18.1433 C.ar    1  UNL1        0.0062
     22 C           1.7291    0.3051   19.3719 C.ar    1  UNL1        0.0364
     23 C           1.9586   -0.9614   20.1421 C.ar    1  UNL1        0.0062
     24 C           2.9990   -1.9398   19.6837 C.ar    1  UNL1        0.0370
     25 C           0.6886    1.2837   19.8303 C.ar    1  UNL1        0.1664
     26 C           0.1127    1.3754   21.2123 C.ar    1  UNL1        0.1396
     27 N          -0.8904    2.4906   21.2233 N.ar    1  UNL1       -0.2026
     28 C          -0.9343    3.0881   19.8481 C.ar    1  UNL1        0.2851
     29 O           0.0416    2.3422   18.9872 O.2     1  UNL1       -0.4311
@<TRIPOS>BOND
     1     1     2    2
     2     2    17    1
     3    17    18    1
     4    18    19    1
     5    19    20   ar
     6    20    21   ar
     7    21    22   ar
     8    22    25    1
     9    25    26   ar
    10    26    27   ar
    11    27    28   ar
    12    28    29   ar
    13    22    23   ar
    14    23    24   ar
    15     2     3   am
    16     3     5    1
    17     5     6   ar
    18     6     7   ar
    19     7     8   ar
    20     8    11    1
    21    11    12   ar
    22    12    13   ar
    23    13    14   ar
    24    14    15   ar
    25    15    16   ar
    26     8     9   ar
    27     9    10   ar
    28    24    19   ar
    29    10     5   ar
    30    29    25   ar
    31    16    11   ar
    32     3     4    1
@<TRIPOS>MOLECULE
*****
 29 32 0 0 0
SMALL
GASTEIGER

@<TRIPOS>ATOM
      1 O           1.0165    4.0239   19.4090 O.2     1  UNL1       -0.2707
      2 C           0.1841    3.5372   18.2600 C.2     1  UNL1        0.2707
      3 N           0.1836    2.0816   17.8978 N.am    1  UNL1       -0.2809
      4 H          -0.3628    1.7622   17.1436 H       1  UNL1        0.1550
      5 C           1.0154    1.1127   18.6846 C.ar    1  UNL1        0.0504
      6 C           2.4216    0.8121   18.2577 C.ar    1  UNL1        0.0147
      7 C           3.2534   -0.1568   19.0445 C.ar    1  UNL1        0.0013
      8 C           2.6791   -0.8252   20.2584 C.ar    1  UNL1        0.0001
      9 C           1.2730   -0.5246   20.6854 C.ar    1  UNL1        0.0013
     10 C           0.4411    0.4443   19.8985 C.ar    1  UNL1        0.0147
     11 C           3.5109   -1.7941   21.0452 C.ar    1  UNL1        0.0000
     12 C           3.6773   -1.6109   22.5247 C.ar    1  UNL1        0.0000
     13 C           4.5091   -2.5798   23.3116 C.ar    1  UNL1        0.0000
     14 C           5.1746   -3.7320   22.6191 C.ar    1  UNL1        0.0000
     15 C           5.0084   -3.9152   21.1396 C.ar    1  UNL1        0.0000
     16 C           4.1765   -2.9462   20.3527 C.ar    1  UNL1        0.0000
     17 C          -0.6478    4.5062   17.4731 C.3     1  UNL1        0.2897
     18 O          -2.0804    4.1867   17.1645 O.3     1  UNL1       -0.4656
     19 C          -3.1284    4.3387   18.2269 C.ar    1  UNL1        0.1393
     20 C          -2.8207    5.1036   19.4799 C.ar    1  UNL1        0.0370
     21 C          -3.8687    5.2556   20.5423 C.ar    1  UNL1        0.0062
     22 C          -5.2244    4.6426   20.3516 C.ar    1  UNL1        0.0364
     23 C          -5.5321    3.8777   19.0985 C.ar    1  UNL1        0.0062
     24 C          -4.4841    3.7258   18.0362 C.ar    1  UNL1        0.0370
     25 C          -6.2724    4.7946   21.4140 C.ar    1  UNL1        0.1664
     26 C          -7.2893    5.8941   21.4985 C.ar    1  UNL1        0.1396
     27 N          -8.1329    5.6528   22.7151 N.ar    1  UNL1       -0.2026
     28 C          -7.6373    4.4042   23.3825 C.ar    1  UNL1        0.2851
     29 O          -6.4875    3.8738   22.5784 O.2     1  UNL1       -0.4311
@<TRIPOS>BOND
     1     1     2    2
     2     2    17    1
     3    17    18    1
     4    18    19    1
     5    19    20   ar
     6    20    21   ar
     7    21    22   ar
     8    22    25    1
     9    25    26   ar
    10    26    27   ar
    11    27    28   ar
    12    28    29   ar
    13    22    23   ar
    14    23    24   ar
    15     2     3   am
    16     3     5    1
    17     5     6   ar
    18     6     7   ar
    19     7     8   ar
    20     8    11    1
    21    11    12   ar
    22    12    13   ar
    23    13    14   ar
    24    14    15   ar
    25    15    16   ar
    26     8     9   ar
    27     9    10   ar
    28    24    19   ar
    29    10     5   ar
    30    29    25   ar
    31    16    11   ar
    32     3     4    1
@<TRIPOS>MOLECULE
*****
 29 32 0 0 0
SMALL
GASTEIGER

@<TRIPOS>ATOM
      1 O           8.1619   -2.6718   21.1448 O.2     1  UNL1       -0.2707
      2 C           7.8062   -4.1094   20.9062 C.2     1  UNL1        0.2707
      3 N           6.4132   -4.4782   20.4900 N.am    1  UNL1       -0.2809
      4 H           6.1798   -5.4218   20.3334 H       1  UNL1        0.1550
      5 C           5.3758   -3.4096   20.3123 C.ar    1  UNL1        0.0504
      6 C           5.1093   -2.8421   18.9496 C.ar    1  UNL1        0.0147
      7 C           4.0719   -1.7734   18.7719 C.ar    1  UNL1        0.0013
      8 C           3.3009   -1.2721   19.9569 C.ar    1  UNL1        0.0001
      9 C           3.5673   -1.8395   21.3196 C.ar    1  UNL1        0.0013
     10 C           4.6048   -2.9083   21.4974 C.ar    1  UNL1        0.0147
     11 C           2.2635   -0.2034   19.7793 C.ar    1  UNL1        0.0000
     12 C           2.2966    0.6800   18.5674 C.ar    1  UNL1        0.0000
     13 C           1.2592    1.7487   18.3897 C.ar    1  UNL1        0.0000
     14 C           0.1886    1.9341   19.4239 C.ar    1  UNL1        0.0000
     15 C           0.1554    1.0507   20.6357 C.ar    1  UNL1        0.0000
     16 C           1.1929   -0.0180   20.8134 C.ar    1  UNL1        0.0000
     17 C           8.8437   -5.1781   21.0839 C.3     1  UNL1        0.2897
     18 O           8.5174   -6.4183   21.8620 O.3     1  UNL1       -0.4656
     19 C           8.3144   -6.3409   23.3462 C.ar    1  UNL1        0.1393
     20 C           8.8725   -7.4114   24.2363 C.ar    1  UNL1        0.0370
     21 C           8.6695   -7.3340   25.7205 C.ar    1  UNL1        0.0062
     22 C           7.9085   -6.1860   26.3145 C.ar    1  UNL1        0.0364
     23 C           7.3504   -5.1154   25.4244 C.ar    1  UNL1        0.0062
     24 C           7.5533   -5.1929   23.9402 C.ar    1  UNL1        0.0370
     25 C           7.7055   -6.1086   27.7987 C.ar    1  UNL1        0.1664
     26 C           8.5534   -6.7762   28.8406 C.ar    1  UNL1        0.1396
     27 N           7.9910   -6.4303   30.1874 N.ar    1  UNL1       -0.2026
     28 C           6.7955   -5.5488   29.9780 C.ar    1  UNL1        0.2851
     29 O           6.6191   -5.3500   28.5017 O.2     1  UNL1       -0.4311
@<TRIPOS>BOND
     1     1     2    2
     2     2    17    1
     3    17    18    1
     4    18    19    1
     5    19    20   ar
     6    20    21   ar
     7    21    22   ar
     8    22    25    1
     9    25    26   ar
    10    26    27   ar
    11    27    28   ar
    12    28    29   ar
    13    22    23   ar
    14    23    24   ar
    15     2     3   am
    16     3     5    1
    17     5     6   ar
    18     6     7   ar
    19     7     8   ar
    20     8    11    1
    21    11    12   ar
    22    12    13   ar
    23    13    14   ar
    24    14    15   ar
    25    15    16   ar
    26     8     9   ar
    27     9    10   ar
    28    24    19   ar
    29    10     5   ar
    30    29    25   ar
    31    16    11   ar
    32     3     4    1
@<TRIPOS>MOLECULE
*****
 29 32 0 0 0
SMALL
GASTEIGER

@<TRIPOS>ATOM
      1 O           4.0427    1.1156   19.1037 O.2     1  UNL1       -0.2707
      2 C           3.3655   -0.1201   18.5897 C.2     1  UNL1        0.2707
      3 N           2.4095   -0.8718   19.4677 N.am    1  UNL1       -0.2809
      4 H           1.9649   -1.6828   19.1304 H       1  UNL1        0.1550
      5 C           2.1307   -0.3877   20.8598 C.ar    1  UNL1        0.0504
      6 C           1.0039    0.5706   21.1091 C.ar    1  UNL1        0.0147
      7 C           0.7252    1.0547   22.5012 C.ar    1  UNL1        0.0013
      8 C           1.5733    0.5806   23.6440 C.ar    1  UNL1        0.0001
      9 C           2.7001   -0.3776   23.3948 C.ar    1  UNL1        0.0013
     10 C           2.9788   -0.8617   22.0026 C.ar    1  UNL1        0.0147
     11 C           1.2946    1.0647   25.0361 C.ar    1  UNL1        0.0000
     12 C           2.4201    1.2206   26.0154 C.ar    1  UNL1        0.0000
     13 C           2.1414    1.7047   27.4075 C.ar    1  UNL1        0.0000
     14 C           0.7372    2.0330   27.8203 C.ar    1  UNL1        0.0000
     15 C          -0.3883    1.8771   26.8411 C.ar    1  UNL1        0.0000
     16 C          -0.1096    1.3929   25.4490 C.ar    1  UNL1        0.0000
     17 C           3.6442   -0.6042   17.1975 C.3     1  UNL1        0.2897
     18 O           4.8005   -1.5245   16.9410 O.3     1  UNL1       -0.4656
     19 C           5.4710   -2.2238   18.0862 C.ar    1  UNL1        0.1393
     20 C           4.8416   -3.4427   18.6928 C.ar    1  UNL1        0.0370
     21 C           5.5121   -4.1419   19.8380 C.ar    1  UNL1        0.0062
     22 C           6.8120   -3.6222   20.3766 C.ar    1  UNL1        0.0364
     23 C           7.4414   -2.4032   19.7700 C.ar    1  UNL1        0.0062
     24 C           6.7709   -1.7040   18.6248 C.ar    1  UNL1        0.0370
     25 C           7.4825   -4.3215   21.5219 C.ar    1  UNL1        0.1664
     26 C           8.9221   -4.7390   21.5789 C.ar    1  UNL1        0.1396
     27 N           9.1605   -5.4016   22.9033 N.ar    1  UNL1       -0.2026
     28 C           7.8682   -5.3934   23.6649 C.ar    1  UNL1        0.2851
     29 O           6.8312   -4.7259   22.8111 O.2     1  UNL1       -0.4311
@<TRIPOS>BOND
     1     1     2    2
     2     2    17    1
     3    17    18    1
     4    18    19    1
     5    19    20   ar
     6    20    21   ar
     7    21    22   ar
     8    22    25    1
     9    25    26   ar
    10    26    27   ar
    11    27    28   ar
    12    28    29   ar
    13    22    23   ar
    14    23    24   ar
    15     2     3   am
    16     3     5    1
    17     5     6   ar
    18     6     7   ar
    19     7     8   ar
    20     8    11    1
    21    11    12   ar
    22    12    13   ar
    23    13    14   ar
    24    14    15   ar
    25    15    16   ar
    26     8     9   ar
    27     9    10   ar
    28    24    19   ar
    29    10     5   ar
    30    29    25   ar
    31    16    11   ar
    32     3     4    1
@<TRIPOS>MOLECULE
*****
 29 32 0 0 0
SMALL
GASTEIGER

@<TRIPOS>ATOM
      1 O          -1.0905    5.1024   19.4050 O.2     1  UNL1       -0.2707
      2 C          -0.7782    3.6353   19.4170 C.2     1  UNL1        0.2707
      3 N          -1.5758    2.7058   20.2829 N.am    1  UNL1       -0.2809
      4 H          -1.3709    1.7429   20.2908 H       1  UNL1        0.1550
      5 C          -2.6856    3.2434   21.1368 C.ar    1  UNL1        0.0504
      6 C          -2.3934    3.7388   22.5222 C.ar    1  UNL1        0.0147
      7 C          -3.5033    4.2764   23.3762 C.ar    1  UNL1        0.0013
      8 C          -4.9053    4.3186   22.8448 C.ar    1  UNL1        0.0001
      9 C          -5.1976    3.8232   21.4595 C.ar    1  UNL1        0.0013
     10 C          -4.0877    3.2856   20.6054 C.ar    1  UNL1        0.0147
     11 C          -6.0152    4.8562   23.6987 C.ar    1  UNL1        0.0000
     12 C          -5.6962    5.6294   24.9439 C.ar    1  UNL1        0.0000
     13 C          -6.8061    6.1670   25.7978 C.ar    1  UNL1        0.0000
     14 C          -8.2349    5.9314   25.4066 C.ar    1  UNL1        0.0000
     15 C          -8.5538    5.1581   24.1615 C.ar    1  UNL1        0.0000
     16 C          -7.4440    4.6205   23.3075 C.ar    1  UNL1        0.0000
     17 C           0.3317    3.0978   18.5630 C.3     1  UNL1        0.2897
     18 O           0.2954    1.6731   18.0953 O.3     1  UNL1       -0.4656
     19 C           1.2096    0.6571   18.7135 C.ar    1  UNL1        0.1393
     20 C           2.4855    0.2774   18.0224 C.ar    1  UNL1        0.0370
     21 C           3.3997   -0.7385   18.6407 C.ar    1  UNL1        0.0062
     22 C           3.0378   -1.3747   19.9500 C.ar    1  UNL1        0.0364
     23 C           1.7618   -0.9950   20.6411 C.ar    1  UNL1        0.0062
     24 C           0.8477    0.0209   20.0228 C.ar    1  UNL1        0.0370
     25 C           3.9520   -2.3906   20.5682 C.ar    1  UNL1        0.1664
     26 C           4.8757   -3.3118   19.8278 C.ar    1  UNL1        0.1396
     27 N           5.5976   -4.1543   20.8373 N.ar    1  UNL1       -0.2026
     28 C           5.1200   -3.7537   22.2017 C.ar    1  UNL1        0.2851
     29 O           4.1030   -2.6638   22.0354 O.2     1  UNL1       -0.4311
@<TRIPOS>BOND
     1     1     2    2
     2     2    17    1
     3    17    18    1
     4    18    19    1
     5    19    20   ar
     6    20    21   ar
     7    21    22   ar
     8    22    25    1
     9    25    26   ar
    10    26    27   ar
    11    27    28   ar
    12    28    29   ar
    13    22    23   ar
    14    23    24   ar
    15     2     3   am
    16     3     5    1
    17     5     6   ar
    18     6     7   ar
    19     7     8   ar
    20     8    11    1
    21    11    12   ar
    22    12    13   ar
    23    13    14   ar
    24    14    15   ar
    25    15    16   ar
    26     8     9   ar
    27     9    10   ar
    28    24    19   ar
    29    10     5   ar
    30    29    25   ar
    31    16    11   ar
    32     3     4    1
@<TRIPOS>MOLECULE
*****
 29 32 0 0 0
SMALL
GASTEIGER

@<TRIPOS>ATOM
      1 O           0.7440    3.3719   19.5133 O.2     1  UNL1       -0.2707
      2 C          -0.5797    3.0114   20.1198 C.2     1  UNL1        0.2707
      3 N          -0.7264    1.7371   20.8972 N.am    1  UNL1       -0.2809
      4 H          -1.5952    1.5005   21.2952 H       1  UNL1        0.1550
      5 C           0.4506    0.8231   21.0681 C.ar    1  UNL1        0.0504
      6 C           0.7940   -0.1664   19.9943 C.ar    1  UNL1        0.0147
      7 C           1.9710   -1.0803   20.1652 C.ar    1  UNL1        0.0013
      8 C           2.8047   -1.0048   21.4099 C.ar    1  UNL1        0.0001
      9 C           2.4614   -0.0154   22.4837 C.ar    1  UNL1        0.0013
     10 C           1.2843    0.8986   22.3128 C.ar    1  UNL1        0.0147
     11 C           3.9817   -1.9188   21.5808 C.ar    1  UNL1        0.0000
     12 C           4.9039   -2.1781   20.4264 C.ar    1  UNL1        0.0000
     13 C           6.0809   -3.0920   20.5973 C.ar    1  UNL1        0.0000
     14 C           6.3358   -3.7467   21.9226 C.ar    1  UNL1        0.0000
     15 C           5.4138   -3.4875   23.0770 C.ar    1  UNL1        0.0000
     16 C           4.2367   -2.5735   22.9061 C.ar    1  UNL1        0.0000
     17 C          -1.7568    3.9255   19.9488 C.3     1  UNL1        0.2897
     18 O          -3.1361    3.3535   19.8067 O.3     1  UNL1       -0.4656
     19 C          -4.2503    3.8577   20.6753 C.ar    1  UNL1        0.1393
     20 C          -4.6473    3.0946   21.9042 C.ar    1  UNL1        0.0370
     21 C          -5.7615    3.5988   22.7727 C.ar    1  UNL1        0.0062
     22 C          -6.4786    4.8661   22.4124 C.ar    1  UNL1        0.0364
     23 C          -6.0817    5.6291   21.1835 C.ar    1  UNL1        0.0062
     24 C          -4.9675    5.1249   20.3150 C.ar    1  UNL1        0.0370
     25 C          -7.5929    5.3702   23.2810 C.ar    1  UNL1        0.1664
     26 C          -7.8137    6.7956   23.6930 C.ar    1  UNL1        0.1396
     27 N          -9.0391    6.8439   24.5567 N.ar    1  UNL1       -0.2026
     28 C          -9.5756    5.4484   24.6785 C.ar    1  UNL1        0.2851
     29 O          -8.6818    4.5377   23.8901 O.2     1  UNL1       -0.4311
@<TRIPOS>BOND
     1     1     2    2
     2     2    17    1
     3    17    18    1
     4    18    19    1
     5    19    20   ar
     6    20    21   ar
     7    21    22   ar
     8    22    25    1
     9    25    26   ar
    10    26    27   ar
    11    27    28   ar
    12    28    29   ar
    13    22    23   ar
    14    23    24   ar
    15     2     3   am
    16     3     5    1
    17     5     6   ar
    18     6     7   ar
    19     7     8   ar
    20     8    11    1
    21    11    12   ar
    22    12    13   ar
    23    13    14   ar
    24    14    15   ar
    25    15    16   ar
    26     8     9   ar
    27     9    10   ar
    28    24    19   ar
    29    10     5   ar
    30    29    25   ar
    31    16    11   ar
    32     3     4    1
