@<TRIPOS>MOLECULE
*****
 31 35 0 0 0
SMALL
GASTEIGER

@<TRIPOS>ATOM
      1 N          -9.5123  -19.0506   19.8024 N.3     1  UNL1       -0.2712
      2 C          -9.1762  -20.2342   18.9443 C.3     1  UNL1        0.0739
      3 C          -7.6951  -20.4580   19.0227 C.3     1  UNL1        0.0386
      4 C          -7.1158  -19.4127   19.9292 C.3     1  UNL1        0.0945
      5 C          -8.2388  -18.5429   20.4112 C.3     1  UNL1        0.0922
      6 N          -5.6675  -19.2635   20.2905 N.am    1  UNL1       -0.2600
      7 C          -4.7162  -18.6206   19.3253 C.3     1  UNL1        0.1229
      8 C          -3.2680  -18.4713   19.6865 C.ar    1  UNL1        0.0112
      9 C          -2.3166  -17.8285   18.7213 C.ar    1  UNL1       -0.0014
     10 C          -0.8685  -17.6793   19.0826 C.ar    1  UNL1       -0.0002
     11 C          -0.3717  -18.1728   20.4091 C.ar    1  UNL1        0.0013
     12 C          -1.3230  -18.8156   21.3743 C.ar    1  UNL1        0.0144
     13 C          -2.7712  -18.9649   21.0130 C.ar    1  UNL1        0.0492
     14 N          -3.7226  -19.6078   21.9783 N.am    1  UNL1       -0.2684
     15 C          -5.1707  -19.7570   21.6170 C.2     1  UNL1        0.3079
     16 O          -6.1222  -20.3999   22.5822 O.2     1  UNL1       -0.2522
     17 H          -3.3966  -19.9317   22.8489 H       1  UNL1        0.1564
     18 C         -10.8814  -18.4757   20.0145 C.3     1  UNL1        0.0722
     19 C         -11.5030  -18.4348   21.2359 C.2     1  UNL1        0.4048
     20 O         -10.3026  -19.2857   20.9441 O.2     1  UNL1       -0.2262
     21 N         -12.1200  -18.4519   22.6029 N.am    1  UNL1       -0.2493
     22 C         -13.3158  -17.6590   23.0404 C.3     1  UNL1        0.0786
     23 C         -13.5844  -17.9819   24.4805 C.3     1  UNL1        0.0216
     24 C         -12.5547  -18.9743   24.9329 C.3     1  UNL1        0.0216
     25 C         -11.6496  -19.2648   23.7724 C.3     1  UNL1        0.0786
     26 C         -10.9151  -19.3609   22.4569 C.3     1  UNL1        0.0214
     27 C         -11.4985  -18.4928   21.3817 C.3     1  UNL1        0.0193
     28 C         -12.6988  -17.6419   21.6734 C.3     1  UNL1        0.0214
     29 O         -12.0863  -17.5667   20.1605 O.3     1  UNL1       -0.4345
     30 C         -12.0380  -15.3022   18.8878 C.3     1  UNL1        0.0513
     31 C         -11.3303  -16.3662   19.6733 C.3     1  UNL1        0.2102
@<TRIPOS>BOND
     1    30    31    1
     2    31    29    1
     3    29    19    1
     4    19    20    2
     5    19    21   am
     6    21    22    1
     7    22    23    1
     8    23    24    1
     9    25    24    1
    10    25    26    1
    11    26    27    1
    12    27    18    1
    13    18     1    1
    14     1     2    1
    15     2     3    1
    16     3     4    1
    17     4     6    1
    18     6     7    1
    19     7     8    1
    20     8     9   ar
    21     9    10   ar
    22    10    11   ar
    23    11    12   ar
    24    12    13   ar
    25    13    14    1
    26    14    15   am
    27    15    16    2
    28     4     5    1
    29    27    28    1
    30    25    21    1
    31     5     1    1
    32    28    22    1
    33    15     6   am
    34    13     8   ar
    35    14    17    1
@<TRIPOS>MOLECULE
*****
 31 35 0 0 0
SMALL
GASTEIGER

@<TRIPOS>ATOM
      1 N          -4.9721  -18.3094   22.6091 N.3     1  UNL1       -0.2712
      2 C          -4.8278  -17.0340   23.3854 C.3     1  UNL1        0.0739
      3 C          -6.1995  -16.4699   23.6094 C.3     1  UNL1        0.0386
      4 C          -7.1916  -17.3967   22.9716 C.3     1  UNL1        0.0945
      5 C          -6.4332  -18.5335   22.3533 C.3     1  UNL1        0.0922
      6 N          -8.6809  -17.2180   22.9549 N.am    1  UNL1       -0.2600
      7 C          -9.5515  -18.0986   23.8014 C.3     1  UNL1        0.1229
      8 C         -11.0408  -17.9199   23.7847 C.ar    1  UNL1        0.0112
      9 C         -11.9113  -18.8005   24.6312 C.ar    1  UNL1       -0.0014
     10 C         -13.4005  -18.6218   24.6145 C.ar    1  UNL1       -0.0002
     11 C         -14.0191  -17.5624   23.7513 C.ar    1  UNL1        0.0013
     12 C         -13.1486  -16.6818   22.9048 C.ar    1  UNL1        0.0144
     13 C         -11.6594  -16.8605   22.9215 C.ar    1  UNL1        0.0492
     14 N         -10.7887  -15.9799   22.0750 N.am    1  UNL1       -0.2684
     15 C          -9.2995  -16.1586   22.0917 C.2     1  UNL1        0.3079
     16 O          -8.4289  -15.2780   21.2452 O.2     1  UNL1       -0.2522
     17 H         -11.1947  -15.2846   21.5084 H       1  UNL1        0.1564
     18 C          -3.8522  -19.2036   22.1663 C.3     1  UNL1        0.0722
     19 C          -2.9960  -18.7762   21.1845 C.2     1  UNL1        0.4048
     20 O          -2.6739  -18.7197   22.6484 O.2     1  UNL1       -0.2262
     21 N          -1.9982  -18.2860   20.1776 N.am    1  UNL1       -0.2493
     22 C          -2.1787  -18.2796   18.6885 C.3     1  UNL1        0.0786
     23 C          -0.9366  -17.7056   18.0735 C.3     1  UNL1        0.0216
     24 C           0.0114  -17.3574   19.1825 C.3     1  UNL1        0.0216
     25 C          -0.6447  -17.7161   20.4830 C.3     1  UNL1        0.0786
     26 C          -1.5344  -18.1666   21.6164 C.3     1  UNL1        0.0214
     27 C          -2.8543  -18.7133   21.1593 C.3     1  UNL1        0.0193
     28 C          -3.1764  -18.7698   19.6954 C.3     1  UNL1        0.0214
     29 O          -4.3160  -19.3230   20.7275 O.3     1  UNL1       -0.4345
     30 C          -5.8108  -21.3519   20.0958 C.3     1  UNL1        0.0513
     31 C          -4.4699  -20.7924   20.4684 C.3     1  UNL1        0.2102
@<TRIPOS>BOND
     1    30    31    1
     2    31    29    1
     3    29    19    1
     4    19    20    2
     5    19    21   am
     6    21    22    1
     7    22    23    1
     8    23    24    1
     9    25    24    1
    10    25    26    1
    11    26    27    1
    12    27    18    1
    13    18     1    1
    14     1     2    1
    15     2     3    1
    16     3     4    1
    17     4     6    1
    18     6     7    1
    19     7     8    1
    20     8     9   ar
    21     9    10   ar
    22    10    11   ar
    23    11    12   ar
    24    12    13   ar
    25    13    14    1
    26    14    15   am
    27    15    16    2
    28     4     5    1
    29    27    28    1
    30    25    21    1
    31     5     1    1
    32    28    22    1
    33    15     6   am
    34    13     8   ar
    35    14    17    1
@<TRIPOS>MOLECULE
*****
 31 35 0 0 0
SMALL
GASTEIGER

@<TRIPOS>ATOM
      1 N          -5.7079  -18.8411   22.0739 N.3     1  UNL1       -0.2712
      2 C          -5.9881  -19.3303   20.6839 C.3     1  UNL1        0.0739
      3 C          -7.4728  -19.3000   20.4723 C.3     1  UNL1        0.0386
      4 C          -8.1102  -18.7921   21.7316 C.3     1  UNL1        0.0945
      5 C          -7.0194  -18.5084   22.7215 C.3     1  UNL1        0.0922
      6 N          -9.5803  -18.6012   21.9608 N.am    1  UNL1       -0.2600
      7 C         -10.1528  -18.7696   23.3369 C.3     1  UNL1        0.1229
      8 C         -11.6229  -18.5787   23.5662 C.ar    1  UNL1        0.0112
      9 C         -12.1955  -18.7471   24.9423 C.ar    1  UNL1       -0.0014
     10 C         -13.6655  -18.5562   25.1715 C.ar    1  UNL1       -0.0002
     11 C         -14.5630  -18.1970   24.0245 C.ar    1  UNL1        0.0013
     12 C         -13.9904  -18.0286   22.6484 C.ar    1  UNL1        0.0144
     13 C         -12.5204  -18.2195   22.4192 C.ar    1  UNL1        0.0492
     14 N         -11.9478  -18.0511   21.0430 N.am    1  UNL1       -0.2684
     15 C         -10.4777  -18.2420   20.8138 C.2     1  UNL1        0.3079
     16 O          -9.9051  -18.0736   19.4376 O.2     1  UNL1       -0.2522
     17 H         -12.5368  -17.8154   20.2902 H       1  UNL1        0.1564
     18 C          -4.3539  -18.7079   22.7055 C.3     1  UNL1        0.0722
     19 C          -3.2777  -18.3037   21.9585 C.2     1  UNL1        0.4048
     20 O          -3.7386  -19.7284   22.0459 O.2     1  UNL1       -0.2262
     21 N          -2.0884  -17.9506   21.1155 N.am    1  UNL1       -0.2493
     22 C          -1.5142  -16.5769   20.9322 C.3     1  UNL1        0.0786
     23 C          -0.3353  -16.6865   20.0111 C.3     1  UNL1        0.0216
     24 C          -0.1808  -18.1278   19.6253 C.3     1  UNL1        0.0216
     25 C          -1.2643  -18.9090   20.3079 C.3     1  UNL1        0.0786
     26 C          -2.4361  -19.4265   21.1069 C.3     1  UNL1        0.0214
     27 C          -3.1645  -18.3548   21.8625 C.3     1  UNL1        0.0193
     28 C          -2.7036  -16.9301   21.7751 C.3     1  UNL1        0.0214
     29 O          -4.0062  -17.2320   22.7142 O.3     1  UNL1       -0.4345
     30 C          -4.7880  -16.2083   24.9705 C.3     1  UNL1        0.0513
     31 C          -3.9924  -17.2305   24.2141 C.3     1  UNL1        0.2102
@<TRIPOS>BOND
     1    30    31    1
     2    31    29    1
     3    29    19    1
     4    19    20    2
     5    19    21   am
     6    21    22    1
     7    22    23    1
     8    23    24    1
     9    25    24    1
    10    25    26    1
    11    26    27    1
    12    27    18    1
    13    18     1    1
    14     1     2    1
    15     2     3    1
    16     3     4    1
    17     4     6    1
    18     6     7    1
    19     7     8    1
    20     8     9   ar
    21     9    10   ar
    22    10    11   ar
    23    11    12   ar
    24    12    13   ar
    25    13    14    1
    26    14    15   am
    27    15    16    2
    28     4     5    1
    29    27    28    1
    30    25    21    1
    31     5     1    1
    32    28    22    1
    33    15     6   am
    34    13     8   ar
    35    14    17    1
@<TRIPOS>MOLECULE
*****
 31 35 0 0 0
SMALL
GASTEIGER

@<TRIPOS>ATOM
      1 N          -8.2576  -19.0743   22.7528 N.3     1  UNL1       -0.2712
      2 C          -7.8212  -20.5053   22.6427 C.3     1  UNL1        0.0739
      3 C          -6.3642  -20.5195   22.2863 C.3     1  UNL1        0.0386
      4 C          -5.9001  -19.0974   22.1761 C.3     1  UNL1        0.0945
      5 C          -7.0702  -18.2042   22.4644 C.3     1  UNL1        0.0922
      6 N          -4.5099  -18.6474   21.8371 N.am    1  UNL1       -0.2600
      7 C          -4.0217  -18.7224   20.4208 C.3     1  UNL1        0.1229
      8 C          -2.6315  -18.2724   20.0818 C.ar    1  UNL1        0.0112
      9 C          -2.1433  -18.3475   18.6654 C.ar    1  UNL1       -0.0014
     10 C          -0.7532  -17.8975   18.3265 C.ar    1  UNL1       -0.0002
     11 C           0.1488  -17.3724   19.4039 C.ar    1  UNL1        0.0013
     12 C          -0.3393  -17.2974   20.8202 C.ar    1  UNL1        0.0144
     13 C          -1.7295  -17.7474   21.1591 C.ar    1  UNL1        0.0492
     14 N          -2.2177  -17.6723   22.5755 N.am    1  UNL1       -0.2684
     15 C          -3.6079  -18.1223   22.9145 C.2     1  UNL1        0.3079
     16 O          -4.0961  -18.0473   24.3309 O.2     1  UNL1       -0.2522
     17 H          -1.6257  -17.3277   23.2827 H       1  UNL1        0.1564
     18 C          -9.6387  -18.5973   23.0918 C.3     1  UNL1        0.0722
     19 C         -10.4118  -17.8662   22.2272 C.2     1  UNL1        0.4048
     20 O          -9.3898  -18.8692   21.7806 O.2     1  UNL1       -0.2262
     21 N         -11.2146  -17.1099   21.2107 N.am    1  UNL1       -0.2493
     22 C         -12.2662  -16.0816   21.5053 C.3     1  UNL1        0.0786
     23 C         -12.8083  -15.5852   20.1976 C.3     1  UNL1        0.0216
     24 C         -12.0917  -16.3067   19.0949 C.3     1  UNL1        0.0216
     25 C         -11.1067  -17.2491   19.7211 C.3     1  UNL1        0.0786
     26 C         -10.2222  -18.0877   20.6119 C.3     1  UNL1        0.0214
     27 C         -10.4415  -17.8409   22.0752 C.3     1  UNL1        0.0193
     28 C         -11.4635  -16.8379   22.5218 C.3     1  UNL1        0.0214
     29 O         -10.6310  -17.6196   23.6905 O.3     1  UNL1       -0.4345
     30 C         -12.7210  -18.7365   24.7557 C.3     1  UNL1        0.0513
     31 C         -11.2360  -18.6904   24.5492 C.3     1  UNL1        0.2102
@<TRIPOS>BOND
     1    30    31    1
     2    31    29    1
     3    29    19    1
     4    19    20    2
     5    19    21   am
     6    21    22    1
     7    22    23    1
     8    23    24    1
     9    25    24    1
    10    25    26    1
    11    26    27    1
    12    27    18    1
    13    18     1    1
    14     1     2    1
    15     2     3    1
    16     3     4    1
    17     4     6    1
    18     6     7    1
    19     7     8    1
    20     8     9   ar
    21     9    10   ar
    22    10    11   ar
    23    11    12   ar
    24    12    13   ar
    25    13    14    1
    26    14    15   am
    27    15    16    2
    28     4     5    1
    29    27    28    1
    30    25    21    1
    31     5     1    1
    32    28    22    1
    33    15     6   am
    34    13     8   ar
    35    14    17    1
@<TRIPOS>MOLECULE
*****
 31 35 0 0 0
SMALL
GASTEIGER

@<TRIPOS>ATOM
      1 N           6.3260   -1.6327   20.0125 N.3     1  UNL1       -0.2712
      2 C           7.2557   -0.7716   20.8152 C.3     1  UNL1        0.0739
      3 C           7.9651   -1.6503   21.8024 C.3     1  UNL1        0.0386
      4 C           7.4739   -3.0545   21.6098 C.3     1  UNL1        0.0945
      5 C           6.4608   -3.0437   20.5036 C.3     1  UNL1        0.0922
      6 N           7.9177   -4.2582   22.3871 N.am    1  UNL1       -0.2600
      7 C           7.3378   -4.5310   23.7432 C.3     1  UNL1        0.1229
      8 C           7.7817   -5.7348   24.5205 C.ar    1  UNL1        0.0112
      9 C           7.2018   -6.0076   25.8766 C.ar    1  UNL1       -0.0014
     10 C           7.6456   -7.2113   26.6538 C.ar    1  UNL1       -0.0002
     11 C           8.6694   -8.1422   26.0747 C.ar    1  UNL1        0.0013
     12 C           9.2493   -7.8695   24.7186 C.ar    1  UNL1        0.0144
     13 C           8.8054   -6.6657   23.9414 C.ar    1  UNL1        0.0492
     14 N           9.3853   -6.3929   22.5852 N.am    1  UNL1       -0.2684
     15 C           8.9415   -5.1892   21.8080 C.2     1  UNL1        0.3079
     16 O           9.5214   -4.9163   20.4518 O.2     1  UNL1       -0.2522
     17 H          10.0573   -7.0039   22.2051 H       1  UNL1        0.1564
     18 C           5.4204   -1.1650   18.9119 C.3     1  UNL1        0.0722
     19 C           4.1776   -0.6469   19.1702 C.2     1  UNL1        0.4048
     20 O           4.5883   -2.0414   19.5400 O.2     1  UNL1       -0.2262
     21 N           2.7951   -0.1621   19.4916 N.am    1  UNL1       -0.2493
     22 C           2.2446    1.1992   19.1849 C.3     1  UNL1        0.0786
     23 C           0.8295    1.2492   19.6800 C.3     1  UNL1        0.0216
     24 C           0.5054   -0.0811   20.2926 C.3     1  UNL1        0.0216
     25 C           1.7203   -0.9533   20.1762 C.3     1  UNL1        0.0786
     26 C           3.0659   -1.5899   19.9246 C.3     1  UNL1        0.0214
     27 C           4.0378   -0.6801   19.2333 C.3     1  UNL1        0.0193
     28 C           3.6272    0.7143   18.8635 C.3     1  UNL1        0.0214
     29 O           5.1496    0.2628   18.4790 O.3     1  UNL1       -0.4345
     30 C           6.4322    0.9466   16.3255 C.3     1  UNL1        0.0513
     31 C           5.6111   -0.0515   17.0867 C.3     1  UNL1        0.2102
@<TRIPOS>BOND
     1    30    31    1
     2    31    29    1
     3    29    19    1
     4    19    20    2
     5    19    21   am
     6    21    22    1
     7    22    23    1
     8    23    24    1
     9    25    24    1
    10    25    26    1
    11    26    27    1
    12    27    18    1
    13    18     1    1
    14     1     2    1
    15     2     3    1
    16     3     4    1
    17     4     6    1
    18     6     7    1
    19     7     8    1
    20     8     9   ar
    21     9    10   ar
    22    10    11   ar
    23    11    12   ar
    24    12    13   ar
    25    13    14    1
    26    14    15   am
    27    15    16    2
    28     4     5    1
    29    27    28    1
    30    25    21    1
    31     5     1    1
    32    28    22    1
    33    15     6   am
    34    13     8   ar
    35    14    17    1
@<TRIPOS>MOLECULE
*****
 31 35 0 0 0
SMALL
GASTEIGER

@<TRIPOS>ATOM
      1 N          -8.7484  -18.3972   21.9923 N.3     1  UNL1       -0.2712
      2 C          -9.0240  -19.1516   20.7254 C.3     1  UNL1        0.0739
      3 C          -7.7082  -19.4663   20.0777 C.3     1  UNL1        0.0386
      4 C          -6.6193  -18.9064   20.9442 C.3     1  UNL1        0.0945
      5 C          -7.2622  -18.2456   22.1275 C.3     1  UNL1        0.0922
      6 N          -5.1462  -18.9921   20.6748 N.am    1  UNL1       -0.2600
      7 C          -4.2818  -17.7772   20.8388 C.3     1  UNL1        0.1229
      8 C          -2.8087  -17.8629   20.5694 C.ar    1  UNL1        0.0112
      9 C          -1.9443  -16.6481   20.7333 C.ar    1  UNL1       -0.0014
     10 C          -0.4712  -16.7338   20.4639 C.ar    1  UNL1       -0.0002
     11 C           0.1375  -18.0345   20.0305 C.ar    1  UNL1        0.0013
     12 C          -0.7269  -19.2493   19.8666 C.ar    1  UNL1        0.0144
     13 C          -2.1999  -19.1636   20.1360 C.ar    1  UNL1        0.0492
     14 N          -3.0644  -20.3785   19.9720 N.am    1  UNL1       -0.2684
     15 C          -4.5375  -20.2927   20.2414 C.2     1  UNL1        0.3079
     16 O          -5.4019  -21.5076   20.0775 O.2     1  UNL1       -0.2522
     17 H          -2.6649  -21.2321   19.6876 H       1  UNL1        0.1564
     18 C          -9.7782  -17.8844   22.9549 C.3     1  UNL1        0.0722
     19 C          -9.4142  -17.3907   24.1810 C.2     1  UNL1        0.4048
     20 O          -9.2202  -16.6433   22.8950 O.2     1  UNL1       -0.2262
     21 N          -8.9858  -16.7733   25.4791 N.am    1  UNL1       -0.2493
     22 C          -9.1152  -17.3970   26.8372 C.3     1  UNL1        0.0786
     23 C          -8.5621  -16.4329   27.8446 C.3     1  UNL1        0.0216
     24 C          -8.0907  -15.2135   27.1092 C.3     1  UNL1        0.0216
     25 C          -8.3526  -15.4239   25.6472 C.3     1  UNL1        0.0786
     26 C          -8.7273  -15.9023   24.2651 C.3     1  UNL1        0.0214
     27 C          -9.3497  -17.2670   24.2531 C.3     1  UNL1        0.0193
     28 C          -9.5437  -18.0143   25.5391 C.3     1  UNL1        0.0214
     29 O         -10.0366  -18.7554   24.1689 O.3     1  UNL1       -0.4345
     30 C         -12.6127  -18.6626   24.4937 C.3     1  UNL1        0.0513
     31 C         -11.4221  -18.9431   23.6255 C.3     1  UNL1        0.2102
@<TRIPOS>BOND
     1    30    31    1
     2    31    29    1
     3    29    19    1
     4    19    20    2
     5    19    21   am
     6    21    22    1
     7    22    23    1
     8    23    24    1
     9    25    24    1
    10    25    26    1
    11    26    27    1
    12    27    18    1
    13    18     1    1
    14     1     2    1
    15     2     3    1
    16     3     4    1
    17     4     6    1
    18     6     7    1
    19     7     8    1
    20     8     9   ar
    21     9    10   ar
    22    10    11   ar
    23    11    12   ar
    24    12    13   ar
    25    13    14    1
    26    14    15   am
    27    15    16    2
    28     4     5    1
    29    27    28    1
    30    25    21    1
    31     5     1    1
    32    28    22    1
    33    15     6   am
    34    13     8   ar
    35    14    17    1
@<TRIPOS>MOLECULE
*****
 31 35 0 0 0
SMALL
GASTEIGER

@<TRIPOS>ATOM
      1 N          -7.6663  -16.6122   24.1716 N.3     1  UNL1       -0.2712
      2 C          -6.7395  -15.7446   24.9706 C.3     1  UNL1        0.0739
      3 C          -5.3438  -15.9747   24.4718 C.3     1  UNL1        0.0386
      4 C          -5.4079  -16.9845   23.3645 C.3     1  UNL1        0.0945
      5 C          -6.8433  -17.3785   23.1788 C.3     1  UNL1        0.0922
      6 N          -4.2414  -17.5084   22.5803 N.am    1  UNL1       -0.2600
      7 C          -3.1618  -16.5716   22.1256 C.3     1  UNL1        0.1229
      8 C          -1.9953  -17.0955   21.3414 C.ar    1  UNL1        0.0112
      9 C          -0.9157  -16.1586   20.8867 C.ar    1  UNL1       -0.0014
     10 C           0.2507  -16.6826   20.1026 C.ar    1  UNL1       -0.0002
     11 C           0.3375  -18.1434   19.7732 C.ar    1  UNL1        0.0013
     12 C          -0.7420  -19.0802   20.2279 C.ar    1  UNL1        0.0144
     13 C          -1.9084  -18.5563   21.0120 C.ar    1  UNL1        0.0492
     14 N          -2.9881  -19.4932   21.4667 N.am    1  UNL1       -0.2684
     15 C          -4.1545  -18.9692   22.2508 C.2     1  UNL1        0.3079
     16 O          -5.2342  -19.9061   22.7056 O.2     1  UNL1       -0.2522
     17 H          -2.9311  -20.4519   21.2505 H       1  UNL1        0.1564
     18 C          -9.1548  -16.6983   24.3363 C.3     1  UNL1        0.0722
     19 C         -10.0316  -16.6414   23.2839 C.2     1  UNL1        0.4048
     20 O          -8.6635  -16.0270   23.2578 O.2     1  UNL1       -0.2262
     21 N         -10.9265  -16.5308   22.0852 N.am    1  UNL1       -0.2493
     22 C         -12.3126  -17.0914   21.9650 C.3     1  UNL1        0.0786
     23 C         -12.8352  -16.7472   20.6017 C.3     1  UNL1        0.0216
     24 C         -11.7720  -15.9738   19.8794 C.3     1  UNL1        0.0216
     25 C         -10.5924  -15.8401   20.7963 C.3     1  UNL1        0.0786
     26 C          -9.5763  -15.8625   21.9127 C.3     1  UNL1        0.0214
     27 C         -10.0497  -16.5876   23.1375 C.3     1  UNL1        0.0193
     28 C         -11.4178  -17.2020   23.1637 C.3     1  UNL1        0.0214
     29 O         -10.5049  -17.3665   24.5088 O.3     1  UNL1       -0.4345
     30 C         -10.3664  -19.9481   24.7663 C.3     1  UNL1        0.0513
     31 C          -9.7756  -18.5870   24.9866 C.3     1  UNL1        0.2102
@<TRIPOS>BOND
     1    30    31    1
     2    31    29    1
     3    29    19    1
     4    19    20    2
     5    19    21   am
     6    21    22    1
     7    22    23    1
     8    23    24    1
     9    25    24    1
    10    25    26    1
    11    26    27    1
    12    27    18    1
    13    18     1    1
    14     1     2    1
    15     2     3    1
    16     3     4    1
    17     4     6    1
    18     6     7    1
    19     7     8    1
    20     8     9   ar
    21     9    10   ar
    22    10    11   ar
    23    11    12   ar
    24    12    13   ar
    25    13    14    1
    26    14    15   am
    27    15    16    2
    28     4     5    1
    29    27    28    1
    30    25    21    1
    31     5     1    1
    32    28    22    1
    33    15     6   am
    34    13     8   ar
    35    14    17    1
@<TRIPOS>MOLECULE
*****
 31 35 0 0 0
SMALL
GASTEIGER

@<TRIPOS>ATOM
      1 N         -15.9128   -5.5529   18.8201 N.3     1  UNL1       -0.2712
      2 C         -16.8298   -5.3694   17.6473 C.3     1  UNL1        0.0739
      3 C         -17.5634   -4.0739   17.8307 C.3     1  UNL1        0.0386
      4 C         -17.0998   -3.4568   19.1169 C.3     1  UNL1        0.0945
      5 C         -16.0797   -4.3708   19.7284 C.3     1  UNL1        0.0922
      6 N         -17.5733   -2.1543   19.6909 N.am    1  UNL1       -0.2600
      7 C         -16.7253   -0.9241   19.5588 C.3     1  UNL1        0.1229
      8 C         -17.1987    0.3784   20.1328 C.ar    1  UNL1        0.0112
      9 C         -16.3507    1.6086   20.0007 C.ar    1  UNL1       -0.0014
     10 C         -16.8242    2.9110   20.5747 C.ar    1  UNL1       -0.0002
     11 C         -18.1456    2.9832   21.2808 C.ar    1  UNL1        0.0013
     12 C         -18.9936    1.7530   21.4129 C.ar    1  UNL1        0.0144
     13 C         -18.5201    0.4506   20.8389 C.ar    1  UNL1        0.0492
     14 N         -19.3681   -0.7797   20.9710 N.am    1  UNL1       -0.2684
     15 C         -18.8947   -2.0821   20.3970 C.2     1  UNL1        0.3079
     16 O         -19.7427   -3.3124   20.5291 O.2     1  UNL1       -0.2522
     17 H         -20.2354   -0.7323   21.4345 H       1  UNL1        0.1564
     18 C         -14.9908   -6.7145   19.0451 C.3     1  UNL1        0.0722
     19 C         -13.6420   -6.6274   18.8153 C.2     1  UNL1        0.4048
     20 O         -14.3865   -5.7118   19.7413 O.2     1  UNL1       -0.2262
     21 N         -12.1639   -6.4598   18.6233 N.am    1  UNL1       -0.2493
     22 C         -11.2899   -7.2949   17.7350 C.3     1  UNL1        0.0786
     23 C          -9.8860   -6.7789   17.8485 C.3     1  UNL1        0.0216
     24 C          -9.8923   -5.6250   18.8069 C.3     1  UNL1        0.0216
     25 C         -11.3001   -5.4278   19.2857 C.3     1  UNL1        0.0786
     26 C         -12.7790   -5.4638   19.5870 C.3     1  UNL1        0.0214
     27 C         -13.5126   -6.5469   18.8531 C.3     1  UNL1        0.0193
     28 C         -12.7681   -7.4625   17.9271 C.3     1  UNL1        0.0214
     29 O         -14.3757   -7.7105   18.0814 O.3     1  UNL1       -0.4345
     30 C         -15.6352   -9.9824   18.1308 C.3     1  UNL1        0.0513
     31 C         -15.0975   -8.7793   18.8474 C.3     1  UNL1        0.2102
@<TRIPOS>BOND
     1    30    31    1
     2    31    29    1
     3    29    19    1
     4    19    20    2
     5    19    21   am
     6    21    22    1
     7    22    23    1
     8    23    24    1
     9    25    24    1
    10    25    26    1
    11    26    27    1
    12    27    18    1
    13    18     1    1
    14     1     2    1
    15     2     3    1
    16     3     4    1
    17     4     6    1
    18     6     7    1
    19     7     8    1
    20     8     9   ar
    21     9    10   ar
    22    10    11   ar
    23    11    12   ar
    24    12    13   ar
    25    13    14    1
    26    14    15   am
    27    15    16    2
    28     4     5    1
    29    27    28    1
    30    25    21    1
    31     5     1    1
    32    28    22    1
    33    15     6   am
    34    13     8   ar
    35    14    17    1
@<TRIPOS>MOLECULE
*****
 31 35 0 0 0
SMALL
GASTEIGER

@<TRIPOS>ATOM
      1 N           5.7273   -2.5674   22.6370 N.3     1  UNL1       -0.2712
      2 C           6.9115   -1.6966   22.9363 C.3     1  UNL1        0.0739
      3 C           7.4173   -2.0553   24.3022 C.3     1  UNL1        0.0386
      4 C           6.5457   -3.1477   24.8471 C.3     1  UNL1        0.0945
      5 C           5.5012   -3.4643   23.8180 C.3     1  UNL1        0.0922
      6 N           6.6927   -3.8078   26.1861 N.am    1  UNL1       -0.2600
      7 C           6.4696   -3.0167   27.4408 C.3     1  UNL1        0.1229
      8 C           6.6166   -3.6768   28.7797 C.ar    1  UNL1        0.0112
      9 C           6.3935   -2.8857   30.0344 C.ar    1  UNL1       -0.0014
     10 C           6.5405   -3.5458   31.3733 C.ar    1  UNL1       -0.0002
     11 C           6.9106   -4.9970   31.4575 C.ar    1  UNL1        0.0013
     12 C           7.1337   -5.7881   30.2028 C.ar    1  UNL1        0.0144
     13 C           6.9867   -5.1280   28.8639 C.ar    1  UNL1        0.0492
     14 N           7.2098   -5.9191   27.6091 N.am    1  UNL1       -0.2684
     15 C           7.0628   -5.2590   26.2702 C.2     1  UNL1        0.3079
     16 O           7.2859   -6.0501   25.0154 O.2     1  UNL1       -0.2522
     17 H           7.4527   -6.8715   27.6643 H       1  UNL1        0.1564
     18 C           4.9124   -2.5452   21.3780 C.3     1  UNL1        0.0722
     19 C           3.7892   -1.7761   21.2153 C.2     1  UNL1        0.4048
     20 O           4.6172   -1.7810   22.4660 O.2     1  UNL1       -0.2262
     21 N           2.5738   -0.9018   21.1238 N.am    1  UNL1       -0.2493
     22 C           1.6536   -0.7918   19.9443 C.3     1  UNL1        0.0786
     23 C           0.5763    0.1941   20.2874 C.3     1  UNL1        0.0216
     24 C           0.8307    0.6932   21.6789 C.3     1  UNL1        0.0216
     25 C           2.0653    0.0159   22.1958 C.3     1  UNL1        0.0786
     26 C           3.3097   -0.8015   22.4459 C.3     1  UNL1        0.0214
     27 C           3.6970   -1.6709   21.2865 C.3     1  UNL1        0.0193
     28 C           2.8690   -1.6660   20.0358 C.3     1  UNL1        0.0214
     29 O           4.1766   -2.6456   20.0559 O.3     1  UNL1       -0.4345
     30 C           4.2863   -5.0085   18.9814 C.3     1  UNL1        0.0513
     31 C           4.1472   -4.1388   20.1955 C.3     1  UNL1        0.2102
@<TRIPOS>BOND
     1    30    31    1
     2    31    29    1
     3    29    19    1
     4    19    20    2
     5    19    21   am
     6    21    22    1
     7    22    23    1
     8    23    24    1
     9    25    24    1
    10    25    26    1
    11    26    27    1
    12    27    18    1
    13    18     1    1
    14     1     2    1
    15     2     3    1
    16     3     4    1
    17     4     6    1
    18     6     7    1
    19     7     8    1
    20     8     9   ar
    21     9    10   ar
    22    10    11   ar
    23    11    12   ar
    24    12    13   ar
    25    13    14    1
    26    14    15   am
    27    15    16    2
    28     4     5    1
    29    27    28    1
    30    25    21    1
    31     5     1    1
    32    28    22    1
    33    15     6   am
    34    13     8   ar
    35    14    17    1
