@<TRIPOS>MOLECULE
*****
 40 43 0 0 0
SMALL
GASTEIGER

@<TRIPOS>ATOM
      1 C           7.1789   -2.8392   29.9657 C.ar    1  UNL1        0.1432
      2 C           6.5928   -3.6261   28.8312 C.ar    1  UNL1        0.0691
      3 C           6.4621   -5.1164   28.9407 C.ar    1  UNL1        0.1367
      4 N           6.9176   -5.8198   30.1848 N.ar    1  UNL1       -0.2088
      5 C           7.5037   -5.0329   31.3194 C.ar    1  UNL1        0.2012
      6 N           7.6344   -3.5426   31.2099 N.ar    1  UNL1       -0.2085
      7 N           4.7822   -1.0875   30.3987 N.am    1  UNL1       -0.2663
      8 C           6.1111   -0.4731   30.0726 C.2     1  UNL1        0.3126
      9 O           6.2418    1.0172   29.9631 O.2     1  UNL1       -0.2519
     10 N           7.3095   -1.3489   29.8561 N.am    1  UNL1       -0.2261
     11 C           8.6385   -0.7345   29.5301 C.3     1  UNL1        0.1231
     12 H           4.6965   -2.0656   30.4706 H       1  UNL1        0.1565
     13 C           2.1979    1.3678   32.1431 C.ar    1  UNL1        0.1535
     14 C           1.1872    1.5400   31.0482 C.ar    1  UNL1        0.0756
     15 C           1.3748    0.8365   29.7368 C.ar    1  UNL1        0.1535
     16 C           2.5731   -0.0394   29.5203 C.ar    1  UNL1        0.1060
     17 CL          2.7607   -0.7429   28.2089 Cl      1  UNL1       -0.0777
     18 C           3.5838   -0.2116   30.6152 C.ar    1  UNL1        0.0788
     19 C           3.3962    0.4919   31.9266 C.ar    1  UNL1        0.1060
     20 CL          4.4069    0.3196   33.0215 Cl      1  UNL1       -0.0777
     21 C           1.4513    3.4629   33.4858 C.3     1  UNL1        0.2525
     22 O           2.0102    2.0713   33.4545 O.3     1  UNL1       -0.4704
     23 O           0.3640    1.0088   28.6419 O.3     1  UNL1       -0.4704
     24 C          -0.8904    0.1863   28.6430 C.3     1  UNL1        0.2525
     25 N           5.8761   -5.9033   27.8062 N.pl3   1  UNL1       -0.2978
     26 H           4.9502   -6.2332   27.8625 H       1  UNL1        0.1536
     27 C           6.7007   -6.1877   26.5858 C.ar    1  UNL1        0.0491
     28 C           7.3389   -7.5336   26.4089 C.ar    1  UNL1        0.0146
     29 C           8.1635   -7.8180   25.1886 C.ar    1  UNL1        0.0010
     30 C           8.3499   -6.7566   24.1453 C.ar    1  UNL1       -0.0028
     31 C           7.7117   -5.4107   24.3222 C.ar    1  UNL1       -0.0049
     32 C           6.8871   -5.1263   25.5425 C.ar    1  UNL1        0.0117
     33 C           7.8981   -4.3492   23.2788 C.3     1  UNL1        0.0993
     34 N           6.8038   -4.0666   22.2926 N.3     1  UNL1       -0.2665
     35 C           5.4211   -3.7462   22.7779 C.3     1  UNL1        0.0899
     36 C           4.3268   -3.4636   21.7916 C.3     1  UNL1        0.0897
     37 N           4.6153   -3.5013   20.3201 N.3     1  UNL1       -0.2691
     38 C           3.5210   -3.2187   19.3339 C.3     1  UNL1        0.0897
     39 C           5.9980   -3.8218   19.8348 C.3     1  UNL1        0.0897
     40 C           7.0922   -4.1044   20.8210 C.3     1  UNL1        0.0899
@<TRIPOS>BOND
     1    21    22    1
     2    22    13    1
     3    13    14   ar
     4    14    15   ar
     5    15    23    1
     6    23    24    1
     7    15    16   ar
     8    16    17    1
     9    16    18   ar
    10    18     7    1
    11     7     8   am
    12     8     9    2
    13     8    10   am
    14    10    11    1
    15    10     1    1
    16     1     2   ar
    17     2     3   ar
    18     3    25    1
    19    25    27    1
    20    27    28   ar
    21    28    29   ar
    22    29    30   ar
    23    30    31   ar
    24    31    33    1
    25    33    34    1
    26    34    35    1
    27    35    36    1
    28    36    37    1
    29    37    38    1
    30    37    39    1
    31    39    40    1
    32    31    32   ar
    33     3     4   ar
    34     4     5   ar
    35     5     6   ar
    36    18    19   ar
    37    19    20    1
    38    19    13   ar
    39     6     1   ar
    40    32    27   ar
    41    40    34    1
    42     7    12    1
    43    25    26    1
@<TRIPOS>MOLECULE
*****
 40 43 0 0 0
SMALL
GASTEIGER

@<TRIPOS>ATOM
      1 C           0.8572    3.3700   22.7176 C.ar    1  UNL1        0.1432
      2 C           0.9270    2.0596   21.9911 C.ar    1  UNL1        0.0691
      3 C          -0.1892    1.6482   21.0772 C.ar    1  UNL1        0.1367
      4 N          -1.3751    2.5473   20.8899 N.ar    1  UNL1       -0.2088
      5 C          -1.4449    3.8578   21.6165 C.ar    1  UNL1        0.2012
      6 N          -0.3288    4.2692   22.5303 N.ar    1  UNL1       -0.2085
      7 N           1.2907    1.9150   25.3051 N.am    1  UNL1       -0.2663
      8 C           2.1901    3.0538   24.9252 C.2     1  UNL1        0.3126
      9 O           3.3062    3.4651   25.8390 O.2     1  UNL1       -0.2519
     10 N           1.9733    3.7813   23.6314 N.am    1  UNL1       -0.2261
     11 C           2.8726    4.9200   23.2515 C.3     1  UNL1        0.1231
     12 H           0.5582    1.6450   24.7053 H       1  UNL1        0.1565
     13 C           0.8748    0.7829   29.0860 C.ar    1  UNL1        0.1535
     14 C           1.9410   -0.2674   29.1863 C.ar    1  UNL1        0.0756
     15 C           2.7904   -0.5903   27.9929 C.ar    1  UNL1        0.1535
     16 C           2.5737    0.1372   26.6992 C.ar    1  UNL1        0.1060
     17 CL          3.4231   -0.1857   25.5058 Cl      1  UNL1       -0.0777
     18 C           1.5075    1.1875   26.5989 C.ar    1  UNL1        0.0788
     19 C           0.6581    1.5103   27.7923 C.ar    1  UNL1        0.1060
     20 CL         -0.4081    2.5607   27.6919 Cl      1  UNL1       -0.0777
     21 C           0.4893    2.1259   31.2764 C.3     1  UNL1        0.2525
     22 O           0.0254    1.1057   30.2794 O.3     1  UNL1       -0.4704
     23 O           3.8566   -1.6407   28.0933 O.3     1  UNL1       -0.4704
     24 C           5.1995   -1.2940   28.6647 C.3     1  UNL1        0.2525
     25 N          -0.1194    0.3378   20.3507 N.pl3   1  UNL1       -0.2978
     26 H          -0.9147   -0.2402   20.3006 H       1  UNL1        0.1536
     27 C           1.1623   -0.0919   19.7005 C.ar    1  UNL1        0.0491
     28 C           1.6208    0.5712   18.4356 C.ar    1  UNL1        0.0146
     29 C           2.9024    0.1415   17.7854 C.ar    1  UNL1        0.0010
     30 C           3.7255   -0.9514   18.4002 C.ar    1  UNL1       -0.0028
     31 C           3.2671   -1.6145   19.6651 C.ar    1  UNL1       -0.0049
     32 C           1.9855   -1.1848   20.3153 C.ar    1  UNL1        0.0117
     33 C           4.0904   -2.7075   20.2798 C.3     1  UNL1        0.0993
     34 N           4.8166   -2.4643   21.5696 N.3     1  UNL1       -0.2665
     35 C           5.5233   -1.1612   21.7982 C.3     1  UNL1        0.0899
     36 C           6.2496   -0.9181   23.0880 C.3     1  UNL1        0.0897
     37 N           6.2692   -1.9781   24.1491 N.3     1  UNL1       -0.2691
     38 C           6.9954   -1.7350   25.4388 C.3     1  UNL1        0.0897
     39 C           5.5624   -3.2813   23.9204 C.3     1  UNL1        0.0897
     40 C           4.8362   -3.5244   22.6307 C.3     1  UNL1        0.0899
@<TRIPOS>BOND
     1    21    22    1
     2    22    13    1
     3    13    14   ar
     4    14    15   ar
     5    15    23    1
     6    23    24    1
     7    15    16   ar
     8    16    17    1
     9    16    18   ar
    10    18     7    1
    11     7     8   am
    12     8     9    2
    13     8    10   am
    14    10    11    1
    15    10     1    1
    16     1     2   ar
    17     2     3   ar
    18     3    25    1
    19    25    27    1
    20    27    28   ar
    21    28    29   ar
    22    29    30   ar
    23    30    31   ar
    24    31    33    1
    25    33    34    1
    26    34    35    1
    27    35    36    1
    28    36    37    1
    29    37    38    1
    30    37    39    1
    31    39    40    1
    32    31    32   ar
    33     3     4   ar
    34     4     5   ar
    35     5     6   ar
    36    18    19   ar
    37    19    20    1
    38    19    13   ar
    39     6     1   ar
    40    32    27   ar
    41    40    34    1
    42     7    12    1
    43    25    26    1
@<TRIPOS>MOLECULE
*****
 40 43 0 0 0
SMALL
GASTEIGER

@<TRIPOS>ATOM
      1 C           6.4664   -3.4300   20.2903 C.ar    1  UNL1        0.1432
      2 C           5.7628   -2.1558   19.9278 C.ar    1  UNL1        0.0691
      3 C           4.3769   -2.2008   19.3558 C.ar    1  UNL1        0.1367
      4 N           3.6945   -3.5201   19.1462 N.ar    1  UNL1       -0.2088
      5 C           4.3981   -4.7944   19.5087 C.ar    1  UNL1        0.2012
      6 N           5.7840   -4.7493   20.0807 N.ar    1  UNL1       -0.2085
      7 N           6.9837   -4.4790   23.0529 N.am    1  UNL1       -0.2663
      8 C           8.1109   -3.9095   22.2436 C.2     1  UNL1        0.3126
      9 O           9.4969   -3.8644   22.8157 O.2     1  UNL1       -0.2519
     10 N           7.8523   -3.3849   20.8623 N.am    1  UNL1       -0.2261
     11 C           8.9795   -2.8154   20.0530 C.3     1  UNL1        0.1231
     12 H           6.0741   -4.5086   22.6774 H       1  UNL1        0.1565
     13 C           8.1838   -6.8509   25.9997 C.ar    1  UNL1        0.1535
     14 C           7.7597   -6.0526   27.1967 C.ar    1  UNL1        0.0756
     15 C           7.0769   -4.7298   27.0125 C.ar    1  UNL1        0.1535
     16 C           6.8182   -4.2053   25.6312 C.ar    1  UNL1        0.1060
     17 CL          6.1354   -2.8825   25.4470 Cl      1  UNL1       -0.0777
     18 C           7.2424   -5.0035   24.4342 C.ar    1  UNL1        0.0788
     19 C           7.9252   -6.3263   24.6185 C.ar    1  UNL1        0.1060
     20 CL          8.3493   -7.1246   23.4214 Cl      1  UNL1       -0.0777
     21 C           8.5759   -9.0051   27.3981 C.3     1  UNL1        0.2525
     22 O           8.8667   -8.1737   26.1840 O.3     1  UNL1       -0.4704
     23 O           6.6527   -3.9316   28.2095 O.3     1  UNL1       -0.4704
     24 C           6.7274   -4.5373   29.5797 C.3     1  UNL1        0.2525
     25 N           3.6734   -0.9267   18.9933 N.pl3   1  UNL1       -0.2978
     26 H           3.8287   -0.5115   18.1142 H       1  UNL1        0.1536
     27 C           2.7330   -0.2850   19.9701 C.ar    1  UNL1        0.0491
     28 C           1.2513   -0.3764   19.7555 C.ar    1  UNL1        0.0146
     29 C           0.3110    0.2651   20.7323 C.ar    1  UNL1        0.0010
     30 C           0.8524    0.9981   21.9237 C.ar    1  UNL1       -0.0028
     31 C           2.3342    1.0896   22.1383 C.ar    1  UNL1       -0.0049
     32 C           3.2745    0.4480   21.1616 C.ar    1  UNL1        0.0117
     33 C           2.8756    1.8226   23.3298 C.3     1  UNL1        0.0993
     34 N           2.7550    1.2214   24.6987 N.3     1  UNL1       -0.2665
     35 C           3.6464    0.0833   25.0992 C.3     1  UNL1        0.0899
     36 C           3.5258   -0.5179   26.4682 C.3     1  UNL1        0.0897
     37 N           2.5139    0.0189   27.4366 N.3     1  UNL1       -0.2691
     38 C           2.3934   -0.5824   28.8055 C.3     1  UNL1        0.0897
     39 C           1.6226    1.1569   27.0361 C.3     1  UNL1        0.0897
     40 C           1.7431    1.7581   25.6672 C.3     1  UNL1        0.0899
@<TRIPOS>BOND
     1    21    22    1
     2    22    13    1
     3    13    14   ar
     4    14    15   ar
     5    15    23    1
     6    23    24    1
     7    15    16   ar
     8    16    17    1
     9    16    18   ar
    10    18     7    1
    11     7     8   am
    12     8     9    2
    13     8    10   am
    14    10    11    1
    15    10     1    1
    16     1     2   ar
    17     2     3   ar
    18     3    25    1
    19    25    27    1
    20    27    28   ar
    21    28    29   ar
    22    29    30   ar
    23    30    31   ar
    24    31    33    1
    25    33    34    1
    26    34    35    1
    27    35    36    1
    28    36    37    1
    29    37    38    1
    30    37    39    1
    31    39    40    1
    32    31    32   ar
    33     3     4   ar
    34     4     5   ar
    35     5     6   ar
    36    18    19   ar
    37    19    20    1
    38    19    13   ar
    39     6     1   ar
    40    32    27   ar
    41    40    34    1
    42     7    12    1
    43    25    26    1
@<TRIPOS>MOLECULE
*****
 40 43 0 0 0
SMALL
GASTEIGER

@<TRIPOS>ATOM
      1 C           0.4493    2.4196   19.8125 C.ar    1  UNL1        0.1432
      2 C           1.2685    1.9118   18.6632 C.ar    1  UNL1        0.0691
      3 C           1.6476    0.4621   18.5951 C.ar    1  UNL1        0.1367
      4 N           1.2075   -0.4798   19.6764 N.ar    1  UNL1       -0.2088
      5 C           0.3882    0.0280   20.8257 C.ar    1  UNL1        0.2012
      6 N           0.0091    1.4777   20.8938 N.ar    1  UNL1       -0.2085
      7 N          -2.4352    3.2057   20.0609 N.am    1  UNL1       -0.2663
      8 C          -1.3721    4.2624   20.0048 C.2     1  UNL1        0.3126
      9 O          -1.7512    5.7121   20.0729 O.2     1  UNL1       -0.2519
     10 N           0.0702    3.8693   19.8806 N.am    1  UNL1       -0.2261
     11 C           1.1333    4.9260   19.8244 C.3     1  UNL1        0.1231
     12 H          -2.1864    2.2542   20.0163 H       1  UNL1        0.1565
     13 C          -5.9530    4.1020   21.6648 C.ar    1  UNL1        0.1535
     14 C          -6.7620    4.3847   20.4337 C.ar    1  UNL1        0.0756
     15 C          -6.1288    4.2745   19.0784 C.ar    1  UNL1        0.1535
     16 C          -4.6866    3.8815   18.9541 C.ar    1  UNL1        0.1060
     17 CL         -4.0534    3.7712   17.5988 Cl      1  UNL1       -0.0777
     18 C          -3.8775    3.5987   20.1852 C.ar    1  UNL1        0.0788
     19 C          -4.5108    3.7090   21.5405 C.ar    1  UNL1        0.1060
     20 CL         -3.7017    3.4263   22.7716 Cl      1  UNL1       -0.0777
     21 C          -6.4478    5.4788   23.8117 C.3     1  UNL1        0.2525
     22 O          -6.5862    4.2123   23.0201 O.3     1  UNL1       -0.4704
     23 O          -6.9379    4.5572   17.8473 O.3     1  UNL1       -0.4704
     24 C          -6.9696    5.9423   17.2724 C.3     1  UNL1        0.2525
     25 N           2.4669   -0.0457   17.4459 N.pl3   1  UNL1       -0.2978
     26 H           2.1061   -0.0103   16.5306 H       1  UNL1        0.1536
     27 C           3.8360   -0.6075   17.6911 C.ar    1  UNL1        0.0491
     28 C           5.0497    0.1548   17.2488 C.ar    1  UNL1        0.0146
     29 C           6.4188   -0.4069   17.4940 C.ar    1  UNL1        0.0010
     30 C           6.5740   -1.7309   18.1816 C.ar    1  UNL1       -0.0028
     31 C           5.3603   -2.4932   18.6240 C.ar    1  UNL1       -0.0049
     32 C           3.9912   -1.9315   18.3787 C.ar    1  UNL1        0.0117
     33 C           5.5156   -3.8173   19.3116 C.3     1  UNL1        0.0993
     34 N           5.8485   -3.8689   20.7732 N.3     1  UNL1       -0.2665
     35 C           4.7928   -3.5636   21.7942 C.3     1  UNL1        0.0899
     36 C           5.1259   -3.6152   23.2559 C.3     1  UNL1        0.0897
     37 N           6.5145   -3.9720   23.6966 N.3     1  UNL1       -0.2691
     38 C           6.8475   -4.0235   25.1582 C.3     1  UNL1        0.0897
     39 C           7.5702   -4.2772   22.6757 C.3     1  UNL1        0.0897
     40 C           7.2373   -4.2256   21.2140 C.3     1  UNL1        0.0899
@<TRIPOS>BOND
     1    21    22    1
     2    22    13    1
     3    13    14   ar
     4    14    15   ar
     5    15    23    1
     6    23    24    1
     7    15    16   ar
     8    16    17    1
     9    16    18   ar
    10    18     7    1
    11     7     8   am
    12     8     9    2
    13     8    10   am
    14    10    11    1
    15    10     1    1
    16     1     2   ar
    17     2     3   ar
    18     3    25    1
    19    25    27    1
    20    27    28   ar
    21    28    29   ar
    22    29    30   ar
    23    30    31   ar
    24    31    33    1
    25    33    34    1
    26    34    35    1
    27    35    36    1
    28    36    37    1
    29    37    38    1
    30    37    39    1
    31    39    40    1
    32    31    32   ar
    33     3     4   ar
    34     4     5   ar
    35     5     6   ar
    36    18    19   ar
    37    19    20    1
    38    19    13   ar
    39     6     1   ar
    40    32    27   ar
    41    40    34    1
    42     7    12    1
    43    25    26    1
@<TRIPOS>MOLECULE
*****
 40 43 0 0 0
SMALL
GASTEIGER

@<TRIPOS>ATOM
      1 C           1.1950    3.0721   22.6666 C.ar    1  UNL1        0.1432
      2 C           1.2644    1.8302   21.8282 C.ar    1  UNL1        0.0691
      3 C           0.1006    1.4420   20.9650 C.ar    1  UNL1        0.1367
      4 N          -1.1324    2.2957   20.9402 N.ar    1  UNL1       -0.2088
      5 C          -1.2019    3.5376   21.7786 C.ar    1  UNL1        0.2012
      6 N          -0.0382    3.9258   22.6418 N.ar    1  UNL1       -0.2085
      7 N           1.6673    1.6604   25.2712 N.am    1  UNL1       -0.2663
      8 C           2.5948    2.7544   24.8322 C.2     1  UNL1        0.3126
      9 O           3.7585    3.1426   25.6953 O.2     1  UNL1       -0.2519
     10 N           2.3587    3.4602   23.5298 N.am    1  UNL1       -0.2261
     11 C           3.2862    4.5542   23.0907 C.3     1  UNL1        0.1231
     12 H           0.9035    1.4056   24.7047 H       1  UNL1        0.1565
     13 C           3.2118   -0.7953   27.9795 C.ar    1  UNL1        0.1535
     14 C           2.3759   -0.4572   29.1781 C.ar    1  UNL1        0.0756
     15 C           1.3037    0.5867   29.0745 C.ar    1  UNL1        0.1535
     16 C           1.0675    1.2926   27.7723 C.ar    1  UNL1        0.1060
     17 CL         -0.0046    2.3365   27.6687 Cl      1  UNL1       -0.0777
     18 C           1.9035    0.9545   26.5736 C.ar    1  UNL1        0.0788
     19 C           2.9756   -0.0894   26.6772 C.ar    1  UNL1        0.1060
     20 CL          3.8116   -0.4274   25.4785 Cl      1  UNL1       -0.0777
     21 C           5.6067   -1.4969   28.7021 C.3     1  UNL1        0.2525
     22 O           4.2840   -1.8392   28.0831 O.3     1  UNL1       -0.4704
     23 O           0.4677    0.9247   30.2733 O.3     1  UNL1       -0.4704
     24 C           0.8710    2.0539   31.1746 C.3     1  UNL1        0.2525
     25 N           0.1700    0.2002   20.1267 N.pl3   1  UNL1       -0.2978
     26 H          -0.6379   -0.3444   19.9858 H       1  UNL1        0.1536
     27 C           1.4705   -0.2120   19.5029 C.ar    1  UNL1        0.0491
     28 C           1.9709    0.4928   18.2770 C.ar    1  UNL1        0.0146
     29 C           3.2713    0.0807   17.6532 C.ar    1  UNL1        0.0010
     30 C           4.0713   -1.0362   18.2554 C.ar    1  UNL1       -0.0028
     31 C           3.5708   -1.7410   19.4813 C.ar    1  UNL1       -0.0049
     32 C           2.2704   -1.3289   20.1050 C.ar    1  UNL1        0.0117
     33 C           4.3708   -2.8579   20.0834 C.3     1  UNL1        0.0993
     34 N           5.0741   -2.6556   21.3927 N.3     1  UNL1       -0.2665
     35 C           5.9297   -1.4420   21.6048 C.3     1  UNL1        0.0899
     36 C           6.6330   -1.2397   22.9143 C.3     1  UNL1        0.0897
     37 N           6.4807   -2.2510   24.0115 N.3     1  UNL1       -0.2691
     38 C           7.1839   -2.0486   25.3209 C.3     1  UNL1        0.0897
     39 C           5.6250   -3.4646   23.7994 C.3     1  UNL1        0.0897
     40 C           4.9218   -3.6669   22.4901 C.3     1  UNL1        0.0899
@<TRIPOS>BOND
     1    21    22    1
     2    22    13    1
     3    13    14   ar
     4    14    15   ar
     5    15    23    1
     6    23    24    1
     7    15    16   ar
     8    16    17    1
     9    16    18   ar
    10    18     7    1
    11     7     8   am
    12     8     9    2
    13     8    10   am
    14    10    11    1
    15    10     1    1
    16     1     2   ar
    17     2     3   ar
    18     3    25    1
    19    25    27    1
    20    27    28   ar
    21    28    29   ar
    22    29    30   ar
    23    30    31   ar
    24    31    33    1
    25    33    34    1
    26    34    35    1
    27    35    36    1
    28    36    37    1
    29    37    38    1
    30    37    39    1
    31    39    40    1
    32    31    32   ar
    33     3     4   ar
    34     4     5   ar
    35     5     6   ar
    36    18    19   ar
    37    19    20    1
    38    19    13   ar
    39     6     1   ar
    40    32    27   ar
    41    40    34    1
    42     7    12    1
    43    25    26    1
@<TRIPOS>MOLECULE
*****
 40 43 0 0 0
SMALL
GASTEIGER

@<TRIPOS>ATOM
      1 C           3.9182    0.3822   28.3259 C.ar    1  UNL1        0.1432
      2 C           4.3634   -0.0658   29.6864 C.ar    1  UNL1        0.0691
      3 C           3.3602   -0.5979   30.6664 C.ar    1  UNL1        0.1367
      4 N           1.9117   -0.6821   30.2858 N.ar    1  UNL1       -0.2088
      5 C           1.4664   -0.2341   28.9253 C.ar    1  UNL1        0.2012
      6 N           2.4697    0.2980   27.9453 N.ar    1  UNL1       -0.2085
      7 N           3.9672   -0.6610   25.5135 N.am    1  UNL1       -0.2663
      8 C           4.9459    0.3927   25.9397 C.2     1  UNL1        0.3126
      9 O           5.9491    0.9248   24.9597 O.2     1  UNL1       -0.2519
     10 N           4.9214    0.9144   27.3459 N.am    1  UNL1       -0.2261
     11 C           5.9001    1.9681   27.7721 C.3     1  UNL1        0.1231
     12 H           3.3087   -1.0103   26.1567 H       1  UNL1        0.1565
     13 C           3.2244   -1.0130   21.6309 C.ar    1  UNL1        0.1535
     14 C           4.0405   -2.2259   21.2950 C.ar    1  UNL1        0.0756
     15 C           4.8321   -2.9172   22.3653 C.ar    1  UNL1        0.1535
     16 C           4.8077   -2.3956   23.7714 C.ar    1  UNL1        0.1060
     17 CL          5.5994   -3.0869   24.8416 Cl      1  UNL1       -0.0777
     18 C           3.9916   -1.1827   24.1073 C.ar    1  UNL1        0.0788
     19 C           3.2000   -0.4914   23.0371 C.ar    1  UNL1        0.1060
     20 CL          2.3839    0.7215   23.3731 Cl      1  UNL1       -0.0777
     21 C           1.0014   -0.7018   20.3228 C.3     1  UNL1        0.2525
     22 O           2.4328   -0.3217   20.5607 O.3     1  UNL1       -0.4704
     23 O           5.6483   -4.1301   22.0293 O.3     1  UNL1       -0.4704
     24 C           7.0568   -3.9737   21.5379 C.3     1  UNL1        0.2525
     25 N           3.8054   -1.0459   32.0269 N.pl3   1  UNL1       -0.2978
     26 H           3.1612   -1.0750   32.7708 H       1  UNL1        0.1536
     27 C           5.2322   -1.4495   32.2540 C.ar    1  UNL1        0.0491
     28 C           6.1665   -0.5265   32.9785 C.ar    1  UNL1        0.0146
     29 C           7.5932   -0.9301   33.2057 C.ar    1  UNL1        0.0010
     30 C           8.0855   -2.2568   32.7082 C.ar    1  UNL1       -0.0028
     31 C           7.1512   -3.1798   31.9837 C.ar    1  UNL1       -0.0049
     32 C           5.7245   -2.7762   31.7566 C.ar    1  UNL1        0.0117
     33 C           7.6436   -4.5066   31.4863 C.3     1  UNL1        0.0993
     34 N           7.8053   -4.7425   30.0138 N.3     1  UNL1       -0.2665
     35 C           7.5634   -6.1080   29.4420 C.3     1  UNL1        0.0899
     36 C           7.7251   -6.3438   27.9695 C.3     1  UNL1        0.0897
     37 N           8.1287   -5.2143   27.0688 N.3     1  UNL1       -0.2691
     38 C           8.2903   -5.4502   25.5964 C.3     1  UNL1        0.0897
     39 C           8.3705   -3.8488   27.6407 C.3     1  UNL1        0.0897
     40 C           8.2088   -3.6129   29.1131 C.3     1  UNL1        0.0899
@<TRIPOS>BOND
     1    21    22    1
     2    22    13    1
     3    13    14   ar
     4    14    15   ar
     5    15    23    1
     6    23    24    1
     7    15    16   ar
     8    16    17    1
     9    16    18   ar
    10    18     7    1
    11     7     8   am
    12     8     9    2
    13     8    10   am
    14    10    11    1
    15    10     1    1
    16     1     2   ar
    17     2     3   ar
    18     3    25    1
    19    25    27    1
    20    27    28   ar
    21    28    29   ar
    22    29    30   ar
    23    30    31   ar
    24    31    33    1
    25    33    34    1
    26    34    35    1
    27    35    36    1
    28    36    37    1
    29    37    38    1
    30    37    39    1
    31    39    40    1
    32    31    32   ar
    33     3     4   ar
    34     4     5   ar
    35     5     6   ar
    36    18    19   ar
    37    19    20    1
    38    19    13   ar
    39     6     1   ar
    40    32    27   ar
    41    40    34    1
    42     7    12    1
    43    25    26    1
@<TRIPOS>MOLECULE
*****
 40 43 0 0 0
SMALL
GASTEIGER

@<TRIPOS>ATOM
      1 C           6.4550   -3.4672   20.1002 C.ar    1  UNL1        0.1432
      2 C           6.0078   -2.5007   19.0439 C.ar    1  UNL1        0.0691
      3 C           4.6189   -2.5907   18.4844 C.ar    1  UNL1        0.1367
      4 N           3.6773   -3.6473   18.9812 N.ar    1  UNL1       -0.2088
      5 C           4.1245   -4.6139   20.0376 C.ar    1  UNL1        0.2012
      6 N           5.5133   -4.5238   20.5971 N.ar    1  UNL1       -0.2085
      7 N           6.9891   -4.3054   22.9308 N.am    1  UNL1       -0.2663
      8 C           8.1109   -3.7962   22.0750 C.2     1  UNL1        0.3126
      9 O           9.4997   -3.7061   22.6345 O.2     1  UNL1       -0.2519
     10 N           7.8438   -3.3771   20.6597 N.am    1  UNL1       -0.2261
     11 C           8.9656   -2.8679   19.8039 C.3     1  UNL1        0.1231
     12 H           6.0776   -4.3645   22.5635 H       1  UNL1        0.1565
     13 C           8.1728   -6.4663   26.0419 C.ar    1  UNL1        0.1535
     14 C           7.7904   -5.5628   27.1765 C.ar    1  UNL1        0.0756
     15 C           7.1408   -4.2402   26.8959 C.ar    1  UNL1        0.1535
     16 C           6.8738   -3.8210   25.4807 C.ar    1  UNL1        0.1060
     17 CL          6.2243   -2.4984   25.2001 Cl      1  UNL1       -0.0777
     18 C           7.2562   -4.7245   24.3461 C.ar    1  UNL1        0.0788
     19 C           7.9057   -6.0472   24.6267 C.ar    1  UNL1        0.1060
     20 CL          8.2882   -6.9507   23.4920 Cl      1  UNL1       -0.0777
     21 C           8.1716   -8.7596   27.2630 C.3     1  UNL1        0.2525
     22 O           8.8223   -7.7890   26.3226 O.3     1  UNL1       -0.4704
     23 O           6.7584   -3.3367   28.0306 O.3     1  UNL1       -0.4704
     24 C           6.6049   -3.8946   29.4145 C.3     1  UNL1        0.2525
     25 N           4.1718   -1.6242   17.4281 N.pl3   1  UNL1       -0.2978
     26 H           4.1201   -1.9117   16.4879 H       1  UNL1        0.1536
     27 C           3.8032   -0.2196   17.8042 C.ar    1  UNL1        0.0491
     28 C           4.8564    0.8478   17.8409 C.ar    1  UNL1        0.0146
     29 C           4.4879    2.2523   18.2171 C.ar    1  UNL1        0.0010
     30 C           3.0662    2.5894   18.5564 C.ar    1  UNL1       -0.0028
     31 C           2.0131    1.5219   18.5197 C.ar    1  UNL1       -0.0049
     32 C           2.3815    0.1174   18.1436 C.ar    1  UNL1        0.0117
     33 C           0.5913    1.8591   18.8591 C.3     1  UNL1        0.0993
     34 N           0.2138    2.1784   20.2752 N.3     1  UNL1       -0.2665
     35 C          -0.8354    3.2129   20.5566 C.3     1  UNL1        0.0899
     36 C          -1.2129    3.5322   21.9728 C.3     1  UNL1        0.0897
     37 N          -0.5412    2.8172   23.1075 N.3     1  UNL1       -0.2691
     38 C          -0.9187    3.1366   24.5236 C.3     1  UNL1        0.0897
     39 C           0.5080    1.7828   22.8261 C.3     1  UNL1        0.0897
     40 C           0.8855    1.4634   21.4100 C.3     1  UNL1        0.0899
@<TRIPOS>BOND
     1    21    22    1
     2    22    13    1
     3    13    14   ar
     4    14    15   ar
     5    15    23    1
     6    23    24    1
     7    15    16   ar
     8    16    17    1
     9    16    18   ar
    10    18     7    1
    11     7     8   am
    12     8     9    2
    13     8    10   am
    14    10    11    1
    15    10     1    1
    16     1     2   ar
    17     2     3   ar
    18     3    25    1
    19    25    27    1
    20    27    28   ar
    21    28    29   ar
    22    29    30   ar
    23    30    31   ar
    24    31    33    1
    25    33    34    1
    26    34    35    1
    27    35    36    1
    28    36    37    1
    29    37    38    1
    30    37    39    1
    31    39    40    1
    32    31    32   ar
    33     3     4   ar
    34     4     5   ar
    35     5     6   ar
    36    18    19   ar
    37    19    20    1
    38    19    13   ar
    39     6     1   ar
    40    32    27   ar
    41    40    34    1
    42     7    12    1
    43    25    26    1
@<TRIPOS>MOLECULE
*****
 40 43 0 0 0
SMALL
GASTEIGER

@<TRIPOS>ATOM
      1 C          -0.8793    3.9875   20.6528 C.ar    1  UNL1        0.1432
      2 C          -2.0651    3.3707   21.3336 C.ar    1  UNL1        0.0691
      3 C          -3.3686    3.2454   20.6021 C.ar    1  UNL1        0.1367
      4 N          -3.4864    3.7369   19.1899 N.ar    1  UNL1       -0.2088
      5 C          -2.3006    4.3538   18.5090 C.ar    1  UNL1        0.2012
      6 N          -0.9971    4.4791   19.2405 N.ar    1  UNL1       -0.2085
      7 N           1.4746    2.3251   19.8187 N.am    1  UNL1       -0.2663
      8 C           1.6012    3.2816   20.9672 C.2     1  UNL1        0.3126
      9 O           2.9047    3.4069   21.6987 O.2     1  UNL1       -0.2519
     10 N           0.4242    4.1128   21.3843 N.am    1  UNL1       -0.2261
     11 C           0.5508    5.0693   22.5328 C.3     1  UNL1        0.1231
     12 H           0.6190    2.2429   19.3386 H       1  UNL1        0.1565
     13 C           3.9623   -0.7481   19.4766 C.ar    1  UNL1        0.1535
     14 C           5.0053   -0.1686   18.5676 C.ar    1  UNL1        0.0756
     15 C           4.8714    1.2421   18.0757 C.ar    1  UNL1        0.1535
     16 C           3.6946    2.0733   18.4927 C.ar    1  UNL1        0.1060
     17 CL          3.5607    3.4840   18.0008 Cl      1  UNL1       -0.0777
     18 C           2.6515    1.4939   19.4017 C.ar    1  UNL1        0.0788
     19 C           2.7854    0.0832   19.8936 C.ar    1  UNL1        0.1060
     20 CL          1.7423   -0.4963   20.8026 Cl      1  UNL1       -0.0777
     21 C           3.6231   -3.2985   19.1158 C.3     1  UNL1        0.2525
     22 O           4.0962   -2.1588   19.9685 O.3     1  UNL1       -0.4704
     23 O           5.9146    1.8216   17.1667 O.3     1  UNL1       -0.4704
     24 C           6.8366    0.9135   16.4083 C.3     1  UNL1        0.2525
     25 N          -4.5544    2.6286   21.2829 N.pl3   1  UNL1       -0.2978
     26 H          -4.9357    1.7876   20.9413 H       1  UNL1        0.1536
     27 C          -5.1591    3.2930   22.4841 C.ar    1  UNL1        0.0491
     28 C          -6.5008    3.9555   22.3787 C.ar    1  UNL1        0.0146
     29 C          -7.1056    4.6199   23.5798 C.ar    1  UNL1        0.0010
     30 C          -6.3687    4.6218   24.8863 C.ar    1  UNL1       -0.0028
     31 C          -5.0271    3.9593   24.9917 C.ar    1  UNL1       -0.0049
     32 C          -4.4223    3.2949   23.7906 C.ar    1  UNL1        0.0117
     33 C          -4.2902    3.9613   26.2983 C.3     1  UNL1        0.0993
     34 N          -2.8098    4.2015   26.3241 N.3     1  UNL1       -0.2665
     35 C          -2.2667    5.5689   26.0326 C.3     1  UNL1        0.0899
     36 C          -0.7862    5.8091   26.0584 C.3     1  UNL1        0.0897
     37 N           0.1510    4.6818   26.3758 N.3     1  UNL1       -0.2691
     38 C           1.6314    4.9220   26.4016 C.3     1  UNL1        0.0897
     39 C          -0.3921    3.3143   26.6673 C.3     1  UNL1        0.0897
     40 C          -1.8725    3.0741   26.6415 C.3     1  UNL1        0.0899
@<TRIPOS>BOND
     1    21    22    1
     2    22    13    1
     3    13    14   ar
     4    14    15   ar
     5    15    23    1
     6    23    24    1
     7    15    16   ar
     8    16    17    1
     9    16    18   ar
    10    18     7    1
    11     7     8   am
    12     8     9    2
    13     8    10   am
    14    10    11    1
    15    10     1    1
    16     1     2   ar
    17     2     3   ar
    18     3    25    1
    19    25    27    1
    20    27    28   ar
    21    28    29   ar
    22    29    30   ar
    23    30    31   ar
    24    31    33    1
    25    33    34    1
    26    34    35    1
    27    35    36    1
    28    36    37    1
    29    37    38    1
    30    37    39    1
    31    39    40    1
    32    31    32   ar
    33     3     4   ar
    34     4     5   ar
    35     5     6   ar
    36    18    19   ar
    37    19    20    1
    38    19    13   ar
    39     6     1   ar
    40    32    27   ar
    41    40    34    1
    42     7    12    1
    43    25    26    1
@<TRIPOS>MOLECULE
*****
 40 43 0 0 0
SMALL
GASTEIGER

@<TRIPOS>ATOM
      1 C           6.3306   -3.2855   20.1165 C.ar    1  UNL1        0.1432
      2 C           5.7058   -2.0936   19.4540 C.ar    1  UNL1        0.0691
      3 C           4.3257   -2.1951   18.8751 C.ar    1  UNL1        0.1367
      4 N           3.5705   -3.4883   18.9587 N.ar    1  UNL1       -0.2088
      5 C           4.1953   -4.6803   19.6213 C.ar    1  UNL1        0.2012
      6 N           5.5754   -4.5788   20.2002 N.ar    1  UNL1       -0.2085
      7 N           6.8729   -4.2982   22.8879 N.am    1  UNL1       -0.2663
      8 C           7.9818   -3.6904   22.0812 C.2     1  UNL1        0.3126
      9 O           9.3618   -3.5890   22.6601 O.2     1  UNL1       -0.2519
     10 N           7.7107   -3.1840   20.6954 N.am    1  UNL1       -0.2261
     11 C           8.8196   -2.5762   19.8887 C.3     1  UNL1        0.1231
     12 H           5.9671   -4.3648   22.5079 H       1  UNL1        0.1565
     13 C           8.1519   -6.6029   25.8548 C.ar    1  UNL1        0.1535
     14 C           7.6862   -5.8175   27.0448 C.ar    1  UNL1        0.0756
     15 C           6.9494   -4.5257   26.8492 C.ar    1  UNL1        0.1535
     16 C           6.6783   -4.0192   25.4636 C.ar    1  UNL1        0.1060
     17 CL          5.9414   -2.7274   25.2680 Cl      1  UNL1       -0.0777
     18 C           7.1440   -4.8046   24.2736 C.ar    1  UNL1        0.0788
     19 C           7.8808   -6.0965   24.4692 C.ar    1  UNL1        0.1060
     20 CL          8.3466   -6.8819   23.2791 Cl      1  UNL1       -0.0777
     21 C           9.5339   -8.1978   27.3702 C.3     1  UNL1        0.2525
     22 O           8.8888   -7.8947   26.0504 O.3     1  UNL1       -0.4704
     23 O           6.4836   -3.7402   28.0393 O.3     1  UNL1       -0.4704
     24 C           7.4403   -3.4248   29.1508 C.3     1  UNL1        0.2525
     25 N           3.7008   -1.0032   18.2125 N.pl3   1  UNL1       -0.2978
     26 H           4.0260   -0.7018   17.3335 H       1  UNL1        0.1536
     27 C           2.5804   -0.2705   18.8893 C.ar    1  UNL1        0.0491
     28 C           1.8335   -0.9188   20.0170 C.ar    1  UNL1        0.0146
     29 C           0.7132   -0.1861   20.6937 C.ar    1  UNL1        0.0010
     30 C           0.3397    1.1948   20.2427 C.ar    1  UNL1       -0.0028
     31 C           1.0867    1.8431   19.1150 C.ar    1  UNL1       -0.0049
     32 C           2.2070    1.1105   18.4382 C.ar    1  UNL1        0.0117
     33 C           0.7132    3.2242   18.6640 C.3     1  UNL1        0.0993
     34 N          -0.7115    3.5402   18.3170 N.3     1  UNL1       -0.2665
     35 C          -1.1123    3.7181   16.8825 C.3     1  UNL1        0.0899
     36 C          -2.5370    4.0342   16.5356 C.3     1  UNL1        0.0897
     37 N          -3.5609    4.1723   17.6230 N.3     1  UNL1       -0.2691
     38 C          -4.9855    4.4883   17.2760 C.3     1  UNL1        0.0897
     39 C          -3.1601    3.9943   19.0575 C.3     1  UNL1        0.0897
     40 C          -1.7354    3.6783   19.4045 C.3     1  UNL1        0.0899
@<TRIPOS>BOND
     1    21    22    1
     2    22    13    1
     3    13    14   ar
     4    14    15   ar
     5    15    23    1
     6    23    24    1
     7    15    16   ar
     8    16    17    1
     9    16    18   ar
    10    18     7    1
    11     7     8   am
    12     8     9    2
    13     8    10   am
    14    10    11    1
    15    10     1    1
    16     1     2   ar
    17     2     3   ar
    18     3    25    1
    19    25    27    1
    20    27    28   ar
    21    28    29   ar
    22    29    30   ar
    23    30    31   ar
    24    31    33    1
    25    33    34    1
    26    34    35    1
    27    35    36    1
    28    36    37    1
    29    37    38    1
    30    37    39    1
    31    39    40    1
    32    31    32   ar
    33     3     4   ar
    34     4     5   ar
    35     5     6   ar
    36    18    19   ar
    37    19    20    1
    38    19    13   ar
    39     6     1   ar
    40    32    27   ar
    41    40    34    1
    42     7    12    1
    43    25    26    1
