@<TRIPOS>MOLECULE
*****
 17 18 0 0 0
SMALL
GASTEIGER

@<TRIPOS>ATOM
      1 C          -4.2256  -19.6503   21.3838 C.ar    1  UNL1        0.1386
      2 C          -4.9119  -18.7085   22.3282 C.ar    1  UNL1        0.0369
      3 C          -6.4029  -18.5519   22.2797 C.ar    1  UNL1        0.0044
      4 C          -7.2076  -19.3370   21.2868 C.ar    1  UNL1        0.0159
      5 C          -6.5213  -20.2788   20.3423 C.ar    1  UNL1        0.0044
      6 C          -5.0303  -20.4354   20.3908 C.ar    1  UNL1        0.0369
      7 C          -8.6986  -19.1804   21.2383 C.2     1  UNL1        0.0858
      8 N          -9.4842  -18.5610   20.1206 N.2     1  UNL1       -0.1523
      9 N         -10.9370  -18.6134   20.4906 N.2     1  UNL1       -0.1511
     10 C         -11.0492  -19.2652   21.8369 C.2     1  UNL1        0.1013
     11 C          -9.6658  -19.6156   22.2990 C.3     1  UNL1        0.0852
     12 C          -9.3119  -20.2839   23.5944 C.3     1  UNL1        0.0128
     13 O          -2.7346  -19.8070   21.4322 O.3     1  UNL1       -0.4755
     14 C          -1.8835  -19.2248   20.3429 C.3     1  UNL1        0.2054
     15 C          -2.0652  -17.7934   19.9331 C.3     1  UNL1        0.0473
     16 C          -2.2522  -16.1537   21.9397 C.3     1  UNL1        0.0001
     17 C          -1.4828  -16.6937   20.7707 C.3     1  UNL1        0.0038
@<TRIPOS>BOND
     1    16    17    1
     2    17    15    1
     3    15    14    1
     4    14    13    1
     5    13     1    1
     6     1     2   ar
     7     2     3   ar
     8     3     4   ar
     9     4     7    1
    10     7     8    2
    11     8     9    1
    12     9    10    2
    13    10    11    1
    14    11    12    1
    15     4     5   ar
    16     5     6   ar
    17     6     1   ar
    18    11     7    1
@<TRIPOS>MOLECULE
*****
 17 18 0 0 0
SMALL
GASTEIGER

@<TRIPOS>ATOM
      1 C          -5.4602  -19.4668   21.3616 C.ar    1  UNL1        0.1386
      2 C          -6.2809  -20.0814   20.2667 C.ar    1  UNL1        0.0369
      3 C          -7.7293  -19.7193   20.1216 C.ar    1  UNL1        0.0044
      4 C          -8.3570  -18.7426   21.0714 C.ar    1  UNL1        0.0159
      5 C          -7.5363  -18.1280   22.1662 C.ar    1  UNL1        0.0044
      6 C          -6.0879  -18.4901   22.3113 C.ar    1  UNL1        0.0369
      7 C          -9.8054  -18.3804   20.9262 C.2     1  UNL1        0.0858
      8 N         -10.3762  -17.4079   19.9372 N.2     1  UNL1       -0.1523
      9 N         -11.8609  -17.3536   20.1443 N.2     1  UNL1       -0.1511
     10 C         -12.2076  -18.2927   21.2615 C.2     1  UNL1        0.1013
     11 C         -10.9372  -18.9272   21.7447 C.3     1  UNL1        0.0852
     12 C         -10.8194  -19.9322   22.8520 C.3     1  UNL1        0.0128
     13 O          -4.0119  -19.8290   21.5067 O.3     1  UNL1       -0.4755
     14 C          -3.0858  -19.7020   20.3336 C.3     1  UNL1        0.2054
     15 C          -3.1125  -18.4635   19.4877 C.3     1  UNL1        0.0473
     16 C          -0.5798  -17.9323   19.7187 C.3     1  UNL1        0.0001
     17 C          -1.8393  -17.9263   18.9041 C.3     1  UNL1        0.0038
@<TRIPOS>BOND
     1    16    17    1
     2    17    15    1
     3    15    14    1
     4    14    13    1
     5    13     1    1
     6     1     2   ar
     7     2     3   ar
     8     3     4   ar
     9     4     7    1
    10     7     8    2
    11     8     9    1
    12     9    10    2
    13    10    11    1
    14    11    12    1
    15     4     5   ar
    16     5     6   ar
    17     6     1   ar
    18    11     7    1
@<TRIPOS>MOLECULE
*****
 17 18 0 0 0
SMALL
GASTEIGER

@<TRIPOS>ATOM
      1 C          -9.5941  -18.2419   23.2069 C.ar    1  UNL1        0.1386
      2 C          -9.2363  -19.6977   23.1560 C.ar    1  UNL1        0.0369
      3 C          -7.9138  -20.1258   22.5924 C.ar    1  UNL1        0.0044
      4 C          -6.9490  -19.0980   22.0798 C.ar    1  UNL1        0.0159
      5 C          -7.3067  -17.6422   22.1308 C.ar    1  UNL1        0.0044
      6 C          -8.6293  -17.2142   22.6943 C.ar    1  UNL1        0.0369
      7 C          -5.6264  -19.5261   21.5162 C.2     1  UNL1        0.0858
      8 N          -5.4215  -20.4372   20.3424 N.2     1  UNL1       -0.1523
      9 N          -3.9450  -20.5924   20.1282 N.2     1  UNL1       -0.1511
     10 C          -3.2373  -19.7772   21.1697 C.2     1  UNL1        0.1013
     11 C          -4.2765  -19.1182   22.0275 C.3     1  UNL1        0.0852
     12 C          -4.0122  -18.2106   23.1922 C.3     1  UNL1        0.0128
     13 O         -10.9166  -17.8139   23.7705 O.3     1  UNL1       -0.4755
     14 C         -11.9707  -17.2499   22.8646 C.3     1  UNL1        0.2054
     15 C         -12.3160  -17.9541   21.5860 C.3     1  UNL1        0.0473
     16 C         -10.6294  -18.6441   19.7342 C.3     1  UNL1        0.0001
     17 C         -11.5660  -17.6336   20.3271 C.3     1  UNL1        0.0038
@<TRIPOS>BOND
     1    16    17    1
     2    17    15    1
     3    15    14    1
     4    14    13    1
     5    13     1    1
     6     1     2   ar
     7     2     3   ar
     8     3     4   ar
     9     4     7    1
    10     7     8    2
    11     8     9    1
    12     9    10    2
    13    10    11    1
    14    11    12    1
    15     4     5   ar
    16     5     6   ar
    17     6     1   ar
    18    11     7    1
@<TRIPOS>MOLECULE
*****
 17 18 0 0 0
SMALL
GASTEIGER

@<TRIPOS>ATOM
      1 C          -8.8483  -19.3526   20.7883 C.ar    1  UNL1        0.1386
      2 C          -8.2704  -19.4117   22.1712 C.ar    1  UNL1        0.0369
      3 C          -6.7833  -19.4606   22.3612 C.ar    1  UNL1        0.0044
      4 C          -5.8741  -19.4504   21.1683 C.ar    1  UNL1        0.0159
      5 C          -6.4519  -19.3914   19.7854 C.ar    1  UNL1        0.0044
      6 C          -7.9390  -19.3425   19.5954 C.ar    1  UNL1        0.0369
      7 C          -4.3869  -19.4994   21.3584 C.2     1  UNL1        0.0858
      8 N          -3.4395  -20.4319   20.6636 N.2     1  UNL1       -0.1523
      9 N          -2.0532  -20.1332   21.1524 N.2     1  UNL1       -0.1511
     10 C          -2.1438  -19.0160   22.1492 C.2     1  UNL1        0.1013
     11 C          -3.5861  -18.6243   22.2765 C.3     1  UNL1        0.0852
     12 C          -4.1318  -17.5467   23.1658 C.3     1  UNL1        0.0128
     13 O         -10.3354  -19.3037   20.5983 O.3     1  UNL1       -0.4755
     14 C         -11.1411  -18.2260   21.2610 C.3     1  UNL1        0.2054
     15 C         -11.8559  -18.5087   22.5491 C.3     1  UNL1        0.0473
     16 C         -13.8730  -18.0363   24.1170 C.3     1  UNL1        0.0001
     17 C         -12.9599  -17.6030   23.0086 C.3     1  UNL1        0.0038
@<TRIPOS>BOND
     1    16    17    1
     2    17    15    1
     3    15    14    1
     4    14    13    1
     5    13     1    1
     6     1     2   ar
     7     2     3   ar
     8     3     4   ar
     9     4     7    1
    10     7     8    2
    11     8     9    1
    12     9    10    2
    13    10    11    1
    14    11    12    1
    15     4     5   ar
    16     5     6   ar
    17     6     1   ar
    18    11     7    1
@<TRIPOS>MOLECULE
*****
 17 18 0 0 0
SMALL
GASTEIGER

@<TRIPOS>ATOM
      1 C          -6.2676  -19.8392   20.6503 C.ar    1  UNL1        0.1386
      2 C          -6.6195  -18.8734   21.7427 C.ar    1  UNL1        0.0369
      3 C          -7.9933  -18.2738   21.7999 C.ar    1  UNL1        0.0044
      4 C          -9.0151  -18.6400   20.7646 C.ar    1  UNL1        0.0159
      5 C          -8.6631  -19.6058   19.6723 C.ar    1  UNL1        0.0044
      6 C          -7.2894  -20.2054   19.6151 C.ar    1  UNL1        0.0369
      7 C         -10.3888  -18.0404   20.8218 C.2     1  UNL1        0.0858
      8 N         -10.9450  -17.0186   19.8749 N.2     1  UNL1       -0.1523
      9 N         -12.3475  -16.7040   20.3037 N.2     1  UNL1       -0.1511
     10 C         -12.6582  -17.5314   21.5157 C.2     1  UNL1        0.1013
     11 C         -11.4477  -18.3573   21.8358 C.3     1  UNL1        0.0852
     12 C         -11.3187  -19.3295   22.9708 C.3     1  UNL1        0.0128
     13 O          -4.8938  -20.4388   20.5932 O.3     1  UNL1       -0.4755
     14 C          -3.6861  -19.5492   20.6046 C.3     1  UNL1        0.2054
     15 C          -2.9038  -19.3628   21.8708 C.3     1  UNL1        0.0473
     16 C          -2.3908  -16.8273   22.1123 C.3     1  UNL1        0.0001
     17 C          -3.0199  -18.0817   22.6424 C.3     1  UNL1        0.0038
@<TRIPOS>BOND
     1    16    17    1
     2    17    15    1
     3    15    14    1
     4    14    13    1
     5    13     1    1
     6     1     2   ar
     7     2     3   ar
     8     3     4   ar
     9     4     7    1
    10     7     8    2
    11     8     9    1
    12     9    10    2
    13    10    11    1
    14    11    12    1
    15     4     5   ar
    16     5     6   ar
    17     6     1   ar
    18    11     7    1
@<TRIPOS>MOLECULE
*****
 17 18 0 0 0
SMALL
GASTEIGER

@<TRIPOS>ATOM
      1 C          -6.0420  -18.7292   22.3790 C.ar    1  UNL1        0.1386
      2 C          -6.8610  -19.6914   21.5708 C.ar    1  UNL1        0.0369
      3 C          -8.2786  -19.3545   21.2143 C.ar    1  UNL1        0.0044
      4 C          -8.8771  -18.0555   21.6661 C.ar    1  UNL1        0.0159
      5 C          -8.0581  -17.0932   22.4743 C.ar    1  UNL1        0.0044
      6 C          -6.6405  -17.4301   22.8307 C.ar    1  UNL1        0.0369
      7 C         -10.2947  -17.7186   21.3097 C.2     1  UNL1        0.0858
      8 N         -10.7472  -17.0128   20.0659 N.2     1  UNL1       -0.1523
      9 N         -12.2408  -16.8864   20.1219 N.2     1  UNL1       -0.1511
     10 C         -12.7114  -17.5141   21.4004 C.2     1  UNL1        0.1013
     11 C         -11.5086  -18.0284   22.1345 C.3     1  UNL1        0.0852
     12 C         -11.5182  -18.7295   23.4605 C.3     1  UNL1        0.0128
     13 O          -4.6244  -19.0660   22.7354 O.3     1  UNL1       -0.4755
     14 C          -3.4991  -18.2234   22.2124 C.3     1  UNL1        0.2054
     15 C          -2.7050  -18.6848   21.0265 C.3     1  UNL1        0.0473
     16 C          -3.8874  -20.6357   19.7830 C.3     1  UNL1        0.0001
     17 C          -3.4091  -19.2143   19.8124 C.3     1  UNL1        0.0038
@<TRIPOS>BOND
     1    16    17    1
     2    17    15    1
     3    15    14    1
     4    14    13    1
     5    13     1    1
     6     1     2   ar
     7     2     3   ar
     8     3     4   ar
     9     4     7    1
    10     7     8    2
    11     8     9    1
    12     9    10    2
    13    10    11    1
    14    11    12    1
    15     4     5   ar
    16     5     6   ar
    17     6     1   ar
    18    11     7    1
@<TRIPOS>MOLECULE
*****
 17 18 0 0 0
SMALL
GASTEIGER

@<TRIPOS>ATOM
      1 C          -6.3902  -15.8094   23.7881 C.ar    1  UNL1        0.1386
      2 C          -5.9603  -17.1439   23.2552 C.ar    1  UNL1        0.0369
      3 C          -6.9287  -17.9908   22.4838 C.ar    1  UNL1        0.0044
      4 C          -8.3270  -17.5031   22.2453 C.ar    1  UNL1        0.0159
      5 C          -8.7568  -16.1685   22.7783 C.ar    1  UNL1        0.0044
      6 C          -7.7885  -15.3216   23.5496 C.ar    1  UNL1        0.0369
      7 C          -9.2953  -18.3500   21.4739 C.2     1  UNL1        0.0858
      8 N          -9.4898  -18.3346   19.9867 N.2     1  UNL1       -0.1523
      9 N         -10.5539  -19.3360   19.6479 N.2     1  UNL1       -0.1511
     10 C         -11.0172  -19.9703   20.9258 C.2     1  UNL1        0.1013
     11 C         -10.2393  -19.3609   22.0544 C.3     1  UNL1        0.0852
     12 C         -10.3807  -19.7025   23.5081 C.3     1  UNL1        0.0128
     13 O          -5.4218  -14.9625   24.5595 O.3     1  UNL1       -0.4755
     14 C          -5.2441  -15.1794   26.0331 C.3     1  UNL1        0.2054
     15 C          -6.4159  -15.0375   26.9587 C.3     1  UNL1        0.0473
     16 C          -8.5081  -16.5759   27.0376 C.3     1  UNL1        0.0001
     17 C          -7.1107  -16.2596   27.4819 C.3     1  UNL1        0.0038
@<TRIPOS>BOND
     1    16    17    1
     2    17    15    1
     3    15    14    1
     4    14    13    1
     5    13     1    1
     6     1     2   ar
     7     2     3   ar
     8     3     4   ar
     9     4     7    1
    10     7     8    2
    11     8     9    1
    12     9    10    2
    13    10    11    1
    14    11    12    1
    15     4     5   ar
    16     5     6   ar
    17     6     1   ar
    18    11     7    1
@<TRIPOS>MOLECULE
*****
 17 18 0 0 0
SMALL
GASTEIGER

@<TRIPOS>ATOM
      1 C          -6.3365  -19.6715   21.3843 C.ar    1  UNL1        0.1386
      2 C          -5.3121  -19.6939   22.4798 C.ar    1  UNL1        0.0369
      3 C          -3.8945  -19.2992   22.1892 C.ar    1  UNL1        0.0044
      4 C          -3.5012  -18.8820   20.8032 C.ar    1  UNL1        0.0159
      5 C          -4.5255  -18.8596   19.7077 C.ar    1  UNL1        0.0044
      6 C          -5.9432  -19.2543   19.9982 C.ar    1  UNL1        0.0369
      7 C          -2.0835  -18.4872   20.5126 C.2     1  UNL1        0.0858
      8 N          -1.0627  -19.3257   19.8021 N.2     1  UNL1       -0.1523
      9 N           0.2139  -18.5414   19.7319 N.2     1  UNL1       -0.1511
     10 C          -0.0178  -17.2181   20.3991 C.2     1  UNL1        0.1013
     11 C          -1.4377  -17.1846   20.8816 C.3     1  UNL1        0.0852
     12 C          -2.0962  -16.0480   21.6059 C.3     1  UNL1        0.0128
     13 O          -7.7541  -20.0663   21.6748 O.3     1  UNL1       -0.4755
     14 C          -8.4806  -19.4531   22.8351 C.3     1  UNL1        0.2054
     15 C          -9.2695  -20.3216   23.7696 C.3     1  UNL1        0.0473
     16 C         -11.4245  -18.9013   23.4710 C.3     1  UNL1        0.0001
     17 C         -10.6002  -19.8563   24.2825 C.3     1  UNL1        0.0038
@<TRIPOS>BOND
     1    16    17    1
     2    17    15    1
     3    15    14    1
     4    14    13    1
     5    13     1    1
     6     1     2   ar
     7     2     3   ar
     8     3     4   ar
     9     4     7    1
    10     7     8    2
    11     8     9    1
    12     9    10    2
    13    10    11    1
    14    11    12    1
    15     4     5   ar
    16     5     6   ar
    17     6     1   ar
    18    11     7    1
@<TRIPOS>MOLECULE
*****
 17 18 0 0 0
SMALL
GASTEIGER

@<TRIPOS>ATOM
      1 C          -9.3541  -19.2973   20.7919 C.ar    1  UNL1        0.1386
      2 C          -8.3730  -19.3956   19.6615 C.ar    1  UNL1        0.0369
      3 C          -6.9025  -19.2768   19.9322 C.ar    1  UNL1        0.0044
      4 C          -6.4130  -19.0597   21.3333 C.ar    1  UNL1        0.0159
      5 C          -7.3940  -18.9615   22.4637 C.ar    1  UNL1        0.0044
      6 C          -8.8646  -19.0803   22.1930 C.ar    1  UNL1        0.0369
      7 C          -4.9424  -18.9409   21.6041 C.2     1  UNL1        0.0858
      8 N          -4.2987  -18.0017   22.5806 N.2     1  UNL1       -0.1523
      9 N          -2.8158  -18.2208   22.5259 N.2     1  UNL1       -0.1511
     10 C          -2.5429  -19.2953   21.5155 C.2     1  UNL1        0.1013
     11 C          -3.8573  -19.7404   20.9458 C.3     1  UNL1        0.0852
     12 C          -4.0522  -20.7991   19.9012 C.3     1  UNL1        0.0128
     13 O         -10.8247  -19.4162   20.5211 O.3     1  UNL1       -0.4755
     14 C         -11.8157  -18.9112   21.5275 C.3     1  UNL1        0.2054
     15 C         -12.5698  -17.6412   21.2655 C.3     1  UNL1        0.0473
     16 C         -10.6462  -15.9018   21.1099 C.3     1  UNL1        0.0001
     17 C         -11.9002  -16.5053   20.5503 C.3     1  UNL1        0.0038
@<TRIPOS>BOND
     1    16    17    1
     2    17    15    1
     3    15    14    1
     4    14    13    1
     5    13     1    1
     6     1     2   ar
     7     2     3   ar
     8     3     4   ar
     9     4     7    1
    10     7     8    2
    11     8     9    1
    12     9    10    2
    13    10    11    1
    14    11    12    1
    15     4     5   ar
    16     5     6   ar
    17     6     1   ar
    18    11     7    1
