@<TRIPOS>MOLECULE
*****
 39 42 0 0 0
SMALL
GASTEIGER

@<TRIPOS>ATOM
      1 C           7.0160   -2.7407   29.8758 C.ar    1  UNL1        0.1432
      2 C           6.4945   -3.5400   28.7187 C.ar    1  UNL1        0.0691
      3 C           6.3780   -5.0313   28.8291 C.ar    1  UNL1        0.1368
      4 N           6.7830   -5.7234   30.0968 N.ar    1  UNL1       -0.2088
      5 C           7.3047   -4.9241   31.2540 C.ar    1  UNL1        0.2012
      6 N           7.4212   -3.4328   31.1435 N.ar    1  UNL1       -0.2085
      7 N           4.6198   -1.0075   30.3798 N.am    1  UNL1       -0.2663
      8 C           5.9344   -0.3827   30.0174 C.2     1  UNL1        0.3126
      9 O           6.0509    1.1087   29.9069 O.2     1  UNL1       -0.2519
     10 N           7.1325   -1.2493   29.7654 N.am    1  UNL1       -0.2261
     11 C           8.4471   -0.6245   29.4029 C.3     1  UNL1        0.1231
     12 H           4.5433   -1.9863   30.4523 H       1  UNL1        0.1565
     13 C           1.1825    0.8947   29.8171 C.ar    1  UNL1        0.1535
     14 C           1.0253    1.5922   31.1358 C.ar    1  UNL1        0.0756
     15 C           2.0663    1.4231   32.2025 C.ar    1  UNL1        0.1535
     16 C           3.2644    0.5565   31.9505 C.ar    1  UNL1        0.1060
     17 CL          4.3054    0.3874   33.0172 Cl      1  UNL1       -0.0777
     18 C           3.4216   -0.1409   30.6319 C.ar    1  UNL1        0.0788
     19 C           2.3806    0.0282   29.5652 C.ar    1  UNL1        0.1060
     20 CL          2.5378   -0.6693   28.2465 Cl      1  UNL1       -0.0777
     21 C          -1.1041    0.2287   28.7790 C.3     1  UNL1        0.2525
     22 O           0.1415    1.0639   28.7505 O.3     1  UNL1       -0.4704
     23 O           1.9090    2.1206   33.5211 O.3     1  UNL1       -0.4704
     24 C           1.5954    3.5868   33.5613 C.3     1  UNL1        0.2525
     25 N           5.8564   -5.8306   27.6720 N.pl3   1  UNL1       -0.2978
     26 H           4.9023   -6.0696   27.6290 H       1  UNL1        0.1536
     27 C           6.7885   -6.2659   26.5803 C.ar    1  UNL1        0.0506
     28 C           7.5676   -7.5398   26.7229 C.ar    1  UNL1        0.0147
     29 C           8.4997   -7.9751   25.6313 C.ar    1  UNL1        0.0025
     30 C           8.6527   -7.1365   24.3970 C.ar    1  UNL1        0.0146
     31 C           7.8735   -5.8627   24.2544 C.ar    1  UNL1        0.0492
     32 C           6.9415   -5.4274   25.3460 C.ar    1  UNL1        0.0291
     33 N           8.0265   -5.0242   23.0201 N.pl3   1  UNL1       -0.3046
     34 C           9.1584   -5.2858   22.0712 C.3     1  UNL1        0.1081
     35 C           9.3114   -4.4472   20.8368 C.3     1  UNL1        0.0938
     36 N           8.3325   -3.3471   20.5515 N.3     1  UNL1       -0.2686
     37 C           8.4855   -2.5086   19.3172 C.3     1  UNL1        0.0897
     38 C           7.2006   -3.0855   21.5004 C.3     1  UNL1        0.0938
     39 C           7.0476   -3.9240   22.7347 C.3     1  UNL1        0.1081
@<TRIPOS>BOND
     1    21    22    1
     2    22    13    1
     3    13    14   ar
     4    14    15   ar
     5    15    23    1
     6    23    24    1
     7    15    16   ar
     8    16    17    1
     9    16    18   ar
    10    18     7    1
    11     7     8   am
    12     8     9    2
    13     8    10   am
    14    10    11    1
    15    10     1    1
    16     1     2   ar
    17     2     3   ar
    18     3    25    1
    19    25    27    1
    20    27    28   ar
    21    28    29   ar
    22    29    30   ar
    23    30    31   ar
    24    31    33    1
    25    33    34    1
    26    34    35    1
    27    35    36    1
    28    36    37    1
    29    36    38    1
    30    38    39    1
    31    31    32   ar
    32     3     4   ar
    33     4     5   ar
    34     5     6   ar
    35    18    19   ar
    36    19    20    1
    37    19    13   ar
    38     6     1   ar
    39    32    27   ar
    40    39    33    1
    41     7    12    1
    42    25    26    1
@<TRIPOS>MOLECULE
*****
 39 42 0 0 0
SMALL
GASTEIGER

@<TRIPOS>ATOM
      1 C           6.3773   -3.4186   20.2026 C.ar    1  UNL1        0.1432
      2 C           5.6515   -2.1732   19.7877 C.ar    1  UNL1        0.0691
      3 C           4.2593   -2.2647   19.2368 C.ar    1  UNL1        0.1368
      4 N           3.5929   -3.6016   19.1009 N.ar    1  UNL1       -0.2088
      5 C           4.3187   -4.8471   19.5158 C.ar    1  UNL1        0.2012
      6 N           5.7108   -4.7556   20.0667 N.ar    1  UNL1       -0.2085
      7 N           6.9732   -4.4569   22.9534 N.am    1  UNL1       -0.2663
      8 C           8.0674   -3.8463   22.1290 C.2     1  UNL1        0.3126
      9 O           9.4596   -3.7547   22.6798 O.2     1  UNL1       -0.2519
     10 N           7.7694   -3.3271   20.7535 N.am    1  UNL1       -0.2261
     11 C           8.8636   -2.7164   19.9290 C.3     1  UNL1        0.1231
     12 H           6.0595   -4.5170   22.5919 H       1  UNL1        0.1565
     13 C           7.1536   -4.7058   26.9102 C.ar    1  UNL1        0.1535
     14 C           7.8670   -6.0143   27.0796 C.ar    1  UNL1        0.0756
     15 C           8.2825   -6.8037   25.8738 C.ar    1  UNL1        0.1535
     16 C           7.9846   -6.2846   24.4984 C.ar    1  UNL1        0.1060
     17 CL          8.4000   -7.0740   23.2925 Cl      1  UNL1       -0.0777
     18 C           7.2712   -4.9761   24.3289 C.ar    1  UNL1        0.0788
     19 C           6.8557   -4.1867   25.5348 C.ar    1  UNL1        0.1060
     20 CL          6.1422   -2.8781   25.3652 Cl      1  UNL1       -0.0777
     21 C           6.7019   -4.5710   29.4651 C.3     1  UNL1        0.2525
     22 O           6.7381   -3.9163   28.1161 O.3     1  UNL1       -0.4704
     23 O           8.9959   -8.1123   26.0433 O.3     1  UNL1       -0.4704
     24 C           8.7730   -8.9334   27.2786 C.3     1  UNL1        0.2525
     25 N           3.5335   -1.0193   18.8219 N.pl3   1  UNL1       -0.2978
     26 H           3.7091   -0.6178   17.9403 H       1  UNL1        0.1536
     27 C           2.5402   -0.3856   19.7502 C.ar    1  UNL1        0.0506
     28 C           1.2724    0.2018   19.2045 C.ar    1  UNL1        0.0147
     29 C           0.2791    0.8355   20.1327 C.ar    1  UNL1        0.0025
     30 C           0.5535    0.8818   21.6067 C.ar    1  UNL1        0.0146
     31 C           1.8212    0.2944   22.1524 C.ar    1  UNL1        0.0492
     32 C           2.8145   -0.3393   21.2242 C.ar    1  UNL1        0.0291
     33 N           2.0955    0.3407   23.6264 N.pl3   1  UNL1       -0.3046
     34 C           3.2035   -0.4854   24.2094 C.3     1  UNL1        0.1081
     35 C           3.4778   -0.4391   25.6834 C.3     1  UNL1        0.0938
     36 N           2.6442    0.4334   26.5744 N.3     1  UNL1       -0.2686
     37 C           2.9185    0.4797   28.0483 C.3     1  UNL1        0.0897
     38 C           1.5362    1.2596   25.9913 C.3     1  UNL1        0.0938
     39 C           1.2619    1.2132   24.5174 C.3     1  UNL1        0.1081
@<TRIPOS>BOND
     1    21    22    1
     2    22    13    1
     3    13    14   ar
     4    14    15   ar
     5    15    23    1
     6    23    24    1
     7    15    16   ar
     8    16    17    1
     9    16    18   ar
    10    18     7    1
    11     7     8   am
    12     8     9    2
    13     8    10   am
    14    10    11    1
    15    10     1    1
    16     1     2   ar
    17     2     3   ar
    18     3    25    1
    19    25    27    1
    20    27    28   ar
    21    28    29   ar
    22    29    30   ar
    23    30    31   ar
    24    31    33    1
    25    33    34    1
    26    34    35    1
    27    35    36    1
    28    36    37    1
    29    36    38    1
    30    38    39    1
    31    31    32   ar
    32     3     4   ar
    33     4     5   ar
    34     5     6   ar
    35    18    19   ar
    36    19    20    1
    37    19    13   ar
    38     6     1   ar
    39    32    27   ar
    40    39    33    1
    41     7    12    1
    42    25    26    1
@<TRIPOS>MOLECULE
*****
 39 42 0 0 0
SMALL
GASTEIGER

@<TRIPOS>ATOM
      1 C           6.3924   -3.4072   20.2350 C.ar    1  UNL1        0.1432
      2 C           5.6759   -2.1568   19.8192 C.ar    1  UNL1        0.0691
      3 C           4.2875   -2.2396   19.2573 C.ar    1  UNL1        0.1368
      4 N           3.6158   -3.5728   19.1113 N.ar    1  UNL1       -0.2088
      5 C           4.3324   -4.8233   19.5272 C.ar    1  UNL1        0.2012
      6 N           5.7207   -4.7405   20.0891 N.ar    1  UNL1       -0.2085
      7 N           6.9545   -4.4247   23.0007 N.am    1  UNL1       -0.2663
      8 C           8.0618   -3.8332   22.1798 C.2     1  UNL1        0.3126
      9 O           9.4501   -3.7504   22.7416 O.2     1  UNL1       -0.2519
     10 N           7.7808   -3.3244   20.7969 N.am    1  UNL1       -0.2261
     11 C           8.8881   -2.7329   19.9759 C.3     1  UNL1        0.1231
     12 H           6.0433   -4.4790   22.6319 H       1  UNL1        0.1565
     13 C           8.2113   -6.7582   25.9546 C.ar    1  UNL1        0.1535
     14 C           7.7976   -5.9510   27.1492 C.ar    1  UNL1        0.0756
     15 C           7.1028   -4.6350   26.9610 C.ar    1  UNL1        0.1535
     16 C           6.8218   -4.1262   25.5782 C.ar    1  UNL1        0.1060
     17 CL          6.1271   -2.8102   25.3900 Cl      1  UNL1       -0.0777
     18 C           7.2355   -4.9335   24.3836 C.ar    1  UNL1        0.0788
     19 C           7.9303   -6.2495   24.5718 C.ar    1  UNL1        0.1060
     20 CL          8.3440   -7.0567   23.3771 Cl      1  UNL1       -0.0777
     21 C           8.5558   -8.9469   27.3113 C.3     1  UNL1        0.2525
     22 O           8.9060   -8.0743   26.1427 O.3     1  UNL1       -0.4704
     23 O           6.6891   -3.8277   28.1557 O.3     1  UNL1       -0.4704
     24 C           6.7207   -4.4424   29.5236 C.3     1  UNL1        0.2525
     25 N           3.5709   -0.9892   18.8414 N.pl3   1  UNL1       -0.2978
     26 H           3.7646   -0.5783   17.9680 H       1  UNL1        0.1536
     27 C           2.5593   -0.3649   19.7563 C.ar    1  UNL1        0.0506
     28 C           1.2898    0.2032   19.1946 C.ar    1  UNL1        0.0147
     29 C           0.2782    0.8275   20.1094 C.ar    1  UNL1        0.0025
     30 C           0.5361    0.8836   21.5859 C.ar    1  UNL1        0.0146
     31 C           1.8056    0.3154   22.1477 C.ar    1  UNL1        0.0492
     32 C           2.8172   -0.3088   21.2329 C.ar    1  UNL1        0.0291
     33 N           2.0635    0.3716   23.6244 N.pl3   1  UNL1       -0.3046
     34 C           3.1840   -0.4274   24.2209 C.3     1  UNL1        0.1081
     35 C           3.4419   -0.3713   25.6976 C.3     1  UNL1        0.0938
     36 N           2.5792    0.4839   26.5776 N.3     1  UNL1       -0.2686
     37 C           2.8370    0.5400   28.0542 C.3     1  UNL1        0.0897
     38 C           1.4586    1.2829   25.9809 C.3     1  UNL1        0.0938
     39 C           1.2008    1.2267   24.5044 C.3     1  UNL1        0.1081
@<TRIPOS>BOND
     1    21    22    1
     2    22    13    1
     3    13    14   ar
     4    14    15   ar
     5    15    23    1
     6    23    24    1
     7    15    16   ar
     8    16    17    1
     9    16    18   ar
    10    18     7    1
    11     7     8   am
    12     8     9    2
    13     8    10   am
    14    10    11    1
    15    10     1    1
    16     1     2   ar
    17     2     3   ar
    18     3    25    1
    19    25    27    1
    20    27    28   ar
    21    28    29   ar
    22    29    30   ar
    23    30    31   ar
    24    31    33    1
    25    33    34    1
    26    34    35    1
    27    35    36    1
    28    36    37    1
    29    36    38    1
    30    38    39    1
    31    31    32   ar
    32     3     4   ar
    33     4     5   ar
    34     5     6   ar
    35    18    19   ar
    36    19    20    1
    37    19    13   ar
    38     6     1   ar
    39    32    27   ar
    40    39    33    1
    41     7    12    1
    42    25    26    1
@<TRIPOS>MOLECULE
*****
 39 42 0 0 0
SMALL
GASTEIGER

@<TRIPOS>ATOM
      1 C           0.8232    3.2720   22.6782 C.ar    1  UNL1        0.1432
      2 C           0.9825    1.9611   21.9667 C.ar    1  UNL1        0.0691
      3 C          -0.0868    1.4810   21.0307 C.ar    1  UNL1        0.1368
      4 N          -1.3154    2.3118   20.8061 N.ar    1  UNL1       -0.2088
      5 C          -1.4746    3.6228   21.5176 C.ar    1  UNL1        0.2012
      6 N          -0.4054    4.1029   22.4536 N.ar    1  UNL1       -0.2085
      7 N           1.2982    1.8424   25.2726 N.am    1  UNL1       -0.2663
      8 C           2.1300    3.0373   24.9114 C.2     1  UNL1        0.3126
      9 O           3.1993    3.5173   25.8475 O.2     1  UNL1       -0.2519
     10 N           1.8925    3.7521   23.6142 N.am    1  UNL1       -0.2261
     11 C           2.7243    4.9469   23.2531 C.3     1  UNL1        0.1231
     12 H           0.5964    1.5274   24.6582 H       1  UNL1        0.1565
     13 C           2.8347   -0.6430   27.9580 C.ar    1  UNL1        0.1535
     14 C           2.0106   -0.3020   29.1641 C.ar    1  UNL1        0.0756
     15 C           0.9491    0.7539   29.0730 C.ar    1  UNL1        0.1535
     16 C           0.7116    1.4687   27.7758 C.ar    1  UNL1        0.1060
     17 CL         -0.3499    2.5246   27.6847 Cl      1  UNL1       -0.0777
     18 C           1.5356    1.1276   26.5698 C.ar    1  UNL1        0.0788
     19 C           2.5972    0.0718   26.6609 C.ar    1  UNL1        0.1060
     20 CL          3.4212   -0.2693   25.4548 Cl      1  UNL1       -0.0777
     21 C           5.2661   -1.3442   28.5467 C.3     1  UNL1        0.2525
     22 O           3.8962   -1.6989   28.0491 O.3     1  UNL1       -0.4704
     23 O           0.1250    1.0949   30.2791 O.3     1  UNL1       -0.4704
     24 C           0.5929    2.1549   31.2318 C.3     1  UNL1        0.2525
     25 N           0.0724    0.1702   20.3192 N.pl3   1  UNL1       -0.2978
     26 H          -0.6986   -0.4344   20.2228 H       1  UNL1        0.1536
     27 C           1.4064   -0.2196   19.7547 C.ar    1  UNL1        0.0506
     28 C           1.8127    0.2581   18.3921 C.ar    1  UNL1        0.0147
     29 C           3.1466   -0.1317   17.8276 C.ar    1  UNL1        0.0025
     30 C           4.0742   -0.9991   18.6257 C.ar    1  UNL1        0.0146
     31 C           3.6679   -1.4769   19.9883 C.ar    1  UNL1        0.0492
     32 C           2.3340   -1.0871   20.5528 C.ar    1  UNL1        0.0291
     33 N           4.5956   -2.3444   20.7864 N.pl3   1  UNL1       -0.3046
     34 C           5.8070   -2.9440   20.1361 C.3     1  UNL1        0.1081
     35 C           6.7347   -3.8115   20.9342 C.3     1  UNL1        0.0938
     36 N           6.4509   -4.0793   22.3826 N.3     1  UNL1       -0.2686
     37 C           7.3785   -4.9468   23.1807 C.3     1  UNL1        0.0897
     38 C           5.2394   -3.4796   23.0328 C.3     1  UNL1        0.0938
     39 C           4.3118   -2.6122   22.2347 C.3     1  UNL1        0.1081
@<TRIPOS>BOND
     1    21    22    1
     2    22    13    1
     3    13    14   ar
     4    14    15   ar
     5    15    23    1
     6    23    24    1
     7    15    16   ar
     8    16    17    1
     9    16    18   ar
    10    18     7    1
    11     7     8   am
    12     8     9    2
    13     8    10   am
    14    10    11    1
    15    10     1    1
    16     1     2   ar
    17     2     3   ar
    18     3    25    1
    19    25    27    1
    20    27    28   ar
    21    28    29   ar
    22    29    30   ar
    23    30    31   ar
    24    31    33    1
    25    33    34    1
    26    34    35    1
    27    35    36    1
    28    36    37    1
    29    36    38    1
    30    38    39    1
    31    31    32   ar
    32     3     4   ar
    33     4     5   ar
    34     5     6   ar
    35    18    19   ar
    36    19    20    1
    37    19    13   ar
    38     6     1   ar
    39    32    27   ar
    40    39    33    1
    41     7    12    1
    42    25    26    1
@<TRIPOS>MOLECULE
*****
 39 42 0 0 0
SMALL
GASTEIGER

@<TRIPOS>ATOM
      1 C           7.3712   -3.0262   30.1338 C.ar    1  UNL1        0.1432
      2 C           6.7849   -3.6732   28.9142 C.ar    1  UNL1        0.0691
      3 C           6.5064   -5.1471   28.9076 C.ar    1  UNL1        0.1368
      4 N           6.8142   -5.9740   30.1207 N.ar    1  UNL1       -0.2088
      5 C           7.4006   -5.3269   31.3403 C.ar    1  UNL1        0.2012
      6 N           7.6791   -3.8530   31.3469 N.ar    1  UNL1       -0.2085
      7 N           5.6145   -1.1747   31.7105 N.am    1  UNL1       -0.2663
      8 C           6.7714   -0.6265   30.9287 C.2     1  UNL1        0.3126
      9 O           7.0499    0.8474   30.9353 O.2     1  UNL1       -0.2519
     10 N           7.6498   -1.5523   30.1403 N.am    1  UNL1       -0.2261
     11 C           8.8066   -1.0041   29.3586 C.3     1  UNL1        0.1231
     12 H           5.4317   -2.1420   31.7062 H       1  UNL1        0.1565
     13 C           4.2718    1.1152   34.6607 C.ar    1  UNL1        0.1535
     14 C           2.9795    1.6025   34.0756 C.ar    1  UNL1        0.0756
     15 C           2.5655    1.1641   32.7021 C.ar    1  UNL1        0.1535
     16 C           3.4438    0.2384   31.9137 C.ar    1  UNL1        0.1060
     17 CL          3.0298   -0.1999   30.5402 Cl      1  UNL1       -0.0777
     18 C           4.7361   -0.2489   32.4988 C.ar    1  UNL1        0.0788
     19 C           5.1501    0.1895   33.8723 C.ar    1  UNL1        0.1060
     20 CL          6.4425   -0.2979   34.4574 Cl      1  UNL1       -0.0777
     21 C           4.3117    0.7281   37.2294 C.3     1  UNL1        0.2525
     22 O           4.6858    1.5535   36.0342 O.3     1  UNL1       -0.4704
     23 O           1.2731    1.6515   32.1170 O.3     1  UNL1       -0.4704
     24 C           0.9183    3.1071   32.1905 C.3     1  UNL1        0.2525
     25 N           5.9200   -5.7942   27.6880 N.pl3   1  UNL1       -0.2978
     26 H           4.9461   -5.9196   27.6174 H       1  UNL1        0.1536
     27 C           6.8176   -6.2501   26.5760 C.ar    1  UNL1        0.0506
     28 C           7.5653   -7.5447   26.6986 C.ar    1  UNL1        0.0147
     29 C           8.4628   -8.0007   25.5866 C.ar    1  UNL1        0.0025
     30 C           8.6126   -7.1621   24.3520 C.ar    1  UNL1        0.0146
     31 C           7.8649   -5.8676   24.2294 C.ar    1  UNL1        0.0492
     32 C           6.9674   -5.4116   25.3414 C.ar    1  UNL1        0.0291
     33 N           8.0147   -5.0290   22.9947 N.pl3   1  UNL1       -0.3046
     34 C           9.1596   -5.2729   22.0568 C.3     1  UNL1        0.1081
     35 C           9.3095   -4.4343   20.8221 C.3     1  UNL1        0.0938
     36 N           8.3144   -3.3518   20.5254 N.3     1  UNL1       -0.2686
     37 C           8.4642   -2.5133   19.2908 C.3     1  UNL1        0.0897
     38 C           7.1694   -3.1080   21.4633 C.3     1  UNL1        0.0938
     39 C           7.0196   -3.9465   22.6980 C.3     1  UNL1        0.1081
@<TRIPOS>BOND
     1    21    22    1
     2    22    13    1
     3    13    14   ar
     4    14    15   ar
     5    15    23    1
     6    23    24    1
     7    15    16   ar
     8    16    17    1
     9    16    18   ar
    10    18     7    1
    11     7     8   am
    12     8     9    2
    13     8    10   am
    14    10    11    1
    15    10     1    1
    16     1     2   ar
    17     2     3   ar
    18     3    25    1
    19    25    27    1
    20    27    28   ar
    21    28    29   ar
    22    29    30   ar
    23    30    31   ar
    24    31    33    1
    25    33    34    1
    26    34    35    1
    27    35    36    1
    28    36    37    1
    29    36    38    1
    30    38    39    1
    31    31    32   ar
    32     3     4   ar
    33     4     5   ar
    34     5     6   ar
    35    18    19   ar
    36    19    20    1
    37    19    13   ar
    38     6     1   ar
    39    32    27   ar
    40    39    33    1
    41     7    12    1
    42    25    26    1
@<TRIPOS>MOLECULE
*****
 39 42 0 0 0
SMALL
GASTEIGER

@<TRIPOS>ATOM
      1 C           0.8721    3.2546   22.7202 C.ar    1  UNL1        0.1432
      2 C           1.0100    1.9750   21.9499 C.ar    1  UNL1        0.0691
      3 C          -0.0925    1.5266   21.0369 C.ar    1  UNL1        0.1368
      4 N          -1.3329    2.3578   20.8944 N.ar    1  UNL1       -0.2088
      5 C          -1.4709    3.6375   21.6648 C.ar    1  UNL1        0.2012
      6 N          -0.3684    4.0859   22.5777 N.ar    1  UNL1       -0.2085
      7 N           1.3613    1.8099   25.3036 N.am    1  UNL1       -0.2663
      8 C           2.2192    2.9806   24.9249 C.2     1  UNL1        0.3126
      9 O           3.3217    3.4290   25.8378 O.2     1  UNL1       -0.2519
     10 N           1.9746    3.7030   23.6331 N.am    1  UNL1       -0.2261
     11 C           2.8325    4.8737   23.2544 C.3     1  UNL1        0.1231
     12 H           0.6377    1.5156   24.7044 H       1  UNL1        0.1565
     13 C           1.0408    0.7072   29.1024 C.ar    1  UNL1        0.1535
     14 C           2.0951   -0.3571   29.1786 C.ar    1  UNL1        0.0756
     15 C           2.9048   -0.6990   27.9631 C.ar    1  UNL1        0.1535
     16 C           2.6602    0.0233   26.6714 C.ar    1  UNL1        0.1060
     17 CL          3.4699   -0.3186   25.4560 Cl      1  UNL1       -0.0777
     18 C           1.6059    1.0875   26.5953 C.ar    1  UNL1        0.0788
     19 C           0.7962    1.4295   27.8108 C.ar    1  UNL1        0.1060
     20 CL         -0.2581    2.4938   27.7346 Cl      1  UNL1       -0.0777
     21 C           0.7420    2.0624   31.2988 C.3     1  UNL1        0.2525
     22 O           0.2311    1.0491   30.3179 O.3     1  UNL1       -0.4704
     23 O           3.9591   -1.7633   28.0393 O.3     1  UNL1       -0.4704
     24 C           5.3678   -1.3987   28.4036 C.3     1  UNL1        0.2525
     25 N           0.0454    0.2469   20.2666 N.pl3   1  UNL1       -0.2978
     26 H          -0.7421   -0.3244   20.1163 H       1  UNL1        0.1536
     27 C           1.3832   -0.1621   19.7252 C.ar    1  UNL1        0.0506
     28 C           1.8106    0.2911   18.3607 C.ar    1  UNL1        0.0147
     29 C           3.1483   -0.1179   17.8193 C.ar    1  UNL1        0.0025
     30 C           4.0587   -0.9802   18.6425 C.ar    1  UNL1        0.0146
     31 C           3.6313   -1.4335   20.0070 C.ar    1  UNL1        0.0492
     32 C           2.2936   -1.0244   20.5484 C.ar    1  UNL1        0.0291
     33 N           4.5418   -2.2958   20.8302 N.pl3   1  UNL1       -0.3046
     34 C           4.2286   -2.5524   22.2744 C.3     1  UNL1        0.1081
     35 C           5.1390   -3.4148   23.0976 C.3     1  UNL1        0.0938
     36 N           6.3627   -4.0204   22.4764 N.3     1  UNL1       -0.2686
     37 C           7.2731   -4.8827   23.2995 C.3     1  UNL1        0.0897
     38 C           6.6759   -3.7637   21.0320 C.3     1  UNL1        0.0938
     39 C           5.7654   -2.9015   20.2090 C.3     1  UNL1        0.1081
@<TRIPOS>BOND
     1    21    22    1
     2    22    13    1
     3    13    14   ar
     4    14    15   ar
     5    15    23    1
     6    23    24    1
     7    15    16   ar
     8    16    17    1
     9    16    18   ar
    10    18     7    1
    11     7     8   am
    12     8     9    2
    13     8    10   am
    14    10    11    1
    15    10     1    1
    16     1     2   ar
    17     2     3   ar
    18     3    25    1
    19    25    27    1
    20    27    28   ar
    21    28    29   ar
    22    29    30   ar
    23    30    31   ar
    24    31    33    1
    25    33    34    1
    26    34    35    1
    27    35    36    1
    28    36    37    1
    29    36    38    1
    30    38    39    1
    31    31    32   ar
    32     3     4   ar
    33     4     5   ar
    34     5     6   ar
    35    18    19   ar
    36    19    20    1
    37    19    13   ar
    38     6     1   ar
    39    32    27   ar
    40    39    33    1
    41     7    12    1
    42    25    26    1
@<TRIPOS>MOLECULE
*****
 39 42 0 0 0
SMALL
GASTEIGER

@<TRIPOS>ATOM
      1 C           6.3711   -3.4516   20.0543 C.ar    1  UNL1        0.1432
      2 C           5.9069   -2.4773   19.0126 C.ar    1  UNL1        0.0691
      3 C           4.5174   -2.5788   18.4568 C.ar    1  UNL1        0.1368
      4 N           3.5920   -3.6548   18.9427 N.ar    1  UNL1       -0.2088
      5 C           4.0562   -4.6292   19.9844 C.ar    1  UNL1        0.2012
      6 N           5.4457   -4.5276   20.5402 N.ar    1  UNL1       -0.2085
      7 N           6.9354   -4.3591   22.8575 N.am    1  UNL1       -0.2663
      8 C           8.0427   -3.8038   22.0117 C.2     1  UNL1        0.3126
      9 O           9.4322   -3.7022   22.5676 O.2     1  UNL1       -0.2519
     10 N           7.7606   -3.3501   20.6101 N.am    1  UNL1       -0.2261
     11 C           8.8679   -2.7948   19.7643 C.3     1  UNL1        0.1231
     12 H           6.0234   -4.4257   22.4927 H       1  UNL1        0.1565
     13 C           7.0673   -4.4231   26.8235 C.ar    1  UNL1        0.1535
     14 C           7.7817   -5.7202   27.0624 C.ar    1  UNL1        0.0756
     15 C           8.2140   -6.5636   25.8998 C.ar    1  UNL1        0.1535
     16 C           7.9319   -6.1099   24.4981 C.ar    1  UNL1        0.1060
     17 CL          8.3641   -6.9534   23.3355 Cl      1  UNL1       -0.0777
     18 C           7.2175   -4.8128   24.2592 C.ar    1  UNL1        0.0788
     19 C           6.7853   -3.9694   25.4219 C.ar    1  UNL1        0.1060
     20 CL          6.0709   -2.6722   25.1828 Cl      1  UNL1       -0.0777
     21 C           6.7021   -4.1317   29.3792 C.3     1  UNL1        0.2525
     22 O           6.6351   -3.5796   27.9861 O.3     1  UNL1       -0.4704
     23 O           8.9284   -7.8608   26.1388 O.3     1  UNL1       -0.4704
     24 C           8.4544   -8.7906   27.2162 C.3     1  UNL1        0.2525
     25 N           4.0532   -1.6045   17.4152 N.pl3   1  UNL1       -0.2978
     26 H           3.8574   -1.9161   16.5020 H       1  UNL1        0.1536
     27 C           3.8872   -0.1552   17.7647 C.ar    1  UNL1        0.0506
     28 C           5.0587    0.7771   17.6739 C.ar    1  UNL1        0.0147
     29 C           4.8927    2.2263   18.0234 C.ar    1  UNL1        0.0025
     30 C           3.5553    2.7432   18.4638 C.ar    1  UNL1        0.0146
     31 C           2.3837    1.8108   18.5547 C.ar    1  UNL1        0.0492
     32 C           2.5497    0.3616   18.2051 C.ar    1  UNL1        0.0291
     33 N           1.0462    2.3278   18.9951 N.pl3   1  UNL1       -0.3046
     34 C           0.5351    2.0109   20.3693 C.3     1  UNL1        0.1081
     35 C          -0.8024    2.5278   20.8097 C.3     1  UNL1        0.0938
     36 N          -1.6288    3.3616   19.8759 N.3     1  UNL1       -0.2686
     37 C          -2.9662    3.8785   20.3162 C.3     1  UNL1        0.0897
     38 C          -1.1176    3.6784   18.5017 C.3     1  UNL1        0.0938
     39 C           0.2199    3.1615   18.0613 C.3     1  UNL1        0.1081
@<TRIPOS>BOND
     1    21    22    1
     2    22    13    1
     3    13    14   ar
     4    14    15   ar
     5    15    23    1
     6    23    24    1
     7    15    16   ar
     8    16    17    1
     9    16    18   ar
    10    18     7    1
    11     7     8   am
    12     8     9    2
    13     8    10   am
    14    10    11    1
    15    10     1    1
    16     1     2   ar
    17     2     3   ar
    18     3    25    1
    19    25    27    1
    20    27    28   ar
    21    28    29   ar
    22    29    30   ar
    23    30    31   ar
    24    31    33    1
    25    33    34    1
    26    34    35    1
    27    35    36    1
    28    36    37    1
    29    36    38    1
    30    38    39    1
    31    31    32   ar
    32     3     4   ar
    33     4     5   ar
    34     5     6   ar
    35    18    19   ar
    36    19    20    1
    37    19    13   ar
    38     6     1   ar
    39    32    27   ar
    40    39    33    1
    41     7    12    1
    42    25    26    1
@<TRIPOS>MOLECULE
*****
 39 42 0 0 0
SMALL
GASTEIGER

@<TRIPOS>ATOM
      1 C           6.9296   -2.5021   29.3548 C.ar    1  UNL1        0.1432
      2 C           6.4492   -3.4520   28.2980 C.ar    1  UNL1        0.0691
      3 C           6.4060   -4.9251   28.5772 C.ar    1  UNL1        0.1368
      4 N           6.8432   -5.4485   29.9132 N.ar    1  UNL1       -0.2088
      5 C           7.3236   -4.4986   30.9701 C.ar    1  UNL1        0.2012
      6 N           7.3669   -3.0254   30.6909 N.ar    1  UNL1       -0.2085
      7 N           4.3765   -0.9443   29.1203 N.am    1  UNL1       -0.2663
      8 C           5.6962   -0.2501   28.9584 C.2     1  UNL1        0.3126
      9 O           5.7395    1.2231   28.6792 O.2     1  UNL1       -0.2519
     10 N           6.9729   -1.0290   29.0757 N.am    1  UNL1       -0.2261
     11 C           8.2926   -0.3347   28.9138 C.3     1  UNL1        0.1231
     12 H           4.3482   -1.9112   29.3035 H       1  UNL1        0.1565
     13 C           1.1279    1.1039   30.1210 C.ar    1  UNL1        0.1535
     14 C           0.5468    1.3923   28.7685 C.ar    1  UNL1        0.0756
     15 C           1.2423    0.9019   27.5333 C.ar    1  UNL1        0.1535
     16 C           2.5189    0.1230   27.6505 C.ar    1  UNL1        0.1060
     17 CL          3.2144   -0.3674   26.4153 Cl      1  UNL1       -0.0777
     18 C           3.0999   -0.1654   29.0030 C.ar    1  UNL1        0.0788
     19 C           2.4044    0.3250   30.2382 C.ar    1  UNL1        0.1060
     20 CL          2.9855    0.0365   31.5907 Cl      1  UNL1       -0.0777
     21 C           0.6351    3.0061   31.8206 C.3     1  UNL1        0.2525
     22 O           0.4324    1.5943   31.3562 O.3     1  UNL1       -0.4704
     23 O           0.6612    1.1903   26.1808 O.3     1  UNL1       -0.4704
     24 C          -0.4808    2.1533   26.0451 C.3     1  UNL1        0.2525
     25 N           5.9255   -5.8750   27.5203 N.pl3   1  UNL1       -0.2978
     26 H           5.0004   -6.2108   27.5441 H       1  UNL1        0.1536
     27 C           6.8547   -6.3132   26.4273 C.ar    1  UNL1        0.0506
     28 C           7.6082   -7.6039   26.5561 C.ar    1  UNL1        0.0147
     29 C           8.5373   -8.0421   25.4631 C.ar    1  UNL1        0.0025
     30 C           8.7130   -7.1898   24.2414 C.ar    1  UNL1        0.0146
     31 C           7.9595   -5.8992   24.1127 C.ar    1  UNL1        0.0492
     32 C           7.0304   -5.4609   25.2056 C.ar    1  UNL1        0.0291
     33 N           8.1352   -5.0468   22.8909 N.pl3   1  UNL1       -0.3046
     34 C           7.1157   -3.9994   22.5541 C.3     1  UNL1        0.1081
     35 C           7.2914   -3.1471   21.3323 C.3     1  UNL1        0.0938
     36 N           8.4866   -3.3422   20.4473 N.3     1  UNL1       -0.2686
     37 C           8.6624   -2.4900   19.2256 C.3     1  UNL1        0.0897
     38 C           9.5062   -4.3897   20.7841 C.3     1  UNL1        0.0938
     39 C           9.3305   -5.2420   22.0058 C.3     1  UNL1        0.1081
@<TRIPOS>BOND
     1    21    22    1
     2    22    13    1
     3    13    14   ar
     4    14    15   ar
     5    15    23    1
     6    23    24    1
     7    15    16   ar
     8    16    17    1
     9    16    18   ar
    10    18     7    1
    11     7     8   am
    12     8     9    2
    13     8    10   am
    14    10    11    1
    15    10     1    1
    16     1     2   ar
    17     2     3   ar
    18     3    25    1
    19    25    27    1
    20    27    28   ar
    21    28    29   ar
    22    29    30   ar
    23    30    31   ar
    24    31    33    1
    25    33    34    1
    26    34    35    1
    27    35    36    1
    28    36    37    1
    29    36    38    1
    30    38    39    1
    31    31    32   ar
    32     3     4   ar
    33     4     5   ar
    34     5     6   ar
    35    18    19   ar
    36    19    20    1
    37    19    13   ar
    38     6     1   ar
    39    32    27   ar
    40    39    33    1
    41     7    12    1
    42    25    26    1
@<TRIPOS>MOLECULE
*****
 39 42 0 0 0
SMALL
GASTEIGER

@<TRIPOS>ATOM
      1 C           5.0488   -3.0932   20.9838 C.ar    1  UNL1        0.1432
      2 C           6.2785   -3.8379   21.4115 C.ar    1  UNL1        0.0691
      3 C           6.6106   -3.9631   22.8689 C.ar    1  UNL1        0.1368
      4 N           5.7130   -3.3435   23.8986 N.ar    1  UNL1       -0.2088
      5 C           4.4832   -2.5987   23.4709 C.ar    1  UNL1        0.2012
      6 N           4.1511   -2.4735   22.0135 N.ar    1  UNL1       -0.2085
      7 N           4.0592   -0.4809   19.8899 N.am    1  UNL1       -0.2663
      8 C           4.2218   -1.6618   18.9794 C.2     1  UNL1        0.3126
      9 O           3.8897   -1.5366   17.5220 O.2     1  UNL1       -0.2519
     10 N           4.7166   -2.9680   19.5264 N.am    1  UNL1       -0.2261
     11 C           4.8793   -4.1489   18.6160 C.3     1  UNL1        0.1231
     12 H           4.2772   -0.5631   20.8464 H       1  UNL1        0.1565
     13 C           1.5970    2.3671   18.6341 C.ar    1  UNL1        0.1535
     14 C           2.5747    3.4375   18.2490 C.ar    1  UNL1        0.0756
     15 C           4.0472    3.2018   18.4108 C.ar    1  UNL1        0.1535
     16 C           4.5420    1.8957   18.9578 C.ar    1  UNL1        0.1060
     17 CL          6.0145    1.6600   19.1196 Cl      1  UNL1       -0.0777
     18 C           3.5644    0.8253   19.3429 C.ar    1  UNL1        0.0788
     19 C           2.0919    1.0610   19.1811 C.ar    1  UNL1        0.1060
     20 CL          1.1142   -0.0095   19.5662 Cl      1  UNL1       -0.0777
     21 C          -0.6686    3.1948   19.5994 C.3     1  UNL1        0.2525
     22 O           0.1245    2.6028   18.4723 O.3     1  UNL1       -0.4704
     23 O           5.0249    4.2723   18.0257 O.3     1  UNL1       -0.4704
     24 C           5.5204    4.3623   16.6127 C.3     1  UNL1        0.2525
     25 N           7.8404   -4.7079   23.2966 N.pl3   1  UNL1       -0.2978
     26 H           8.6692   -4.6328   22.7706 H       1  UNL1        0.1536
     27 C           7.8074   -5.5670   24.5259 C.ar    1  UNL1        0.0506
     28 C           8.0689   -7.0402   24.4185 C.ar    1  UNL1        0.0147
     29 C           8.0359   -7.8993   25.6476 C.ar    1  UNL1        0.0025
     30 C           7.7415   -7.2853   26.9841 C.ar    1  UNL1        0.0146
     31 C           7.4800   -5.8122   27.0915 C.ar    1  UNL1        0.0492
     32 C           7.5130   -4.9530   25.8624 C.ar    1  UNL1        0.0291
     33 N           7.1856   -5.1982   28.4281 N.pl3   1  UNL1       -0.3046
     34 C           7.3449   -6.0113   29.6784 C.3     1  UNL1        0.1081
     35 C           7.0504   -5.3973   31.0150 C.3     1  UNL1        0.0938
     36 N           6.5967   -3.9702   31.1011 N.3     1  UNL1       -0.2686
     37 C           6.3023   -3.3562   32.4376 C.3     1  UNL1        0.0897
     38 C           6.4374   -3.1571   29.8507 C.3     1  UNL1        0.0938
     39 C           6.7318   -3.7711   28.5142 C.3     1  UNL1        0.1081
@<TRIPOS>BOND
     1    21    22    1
     2    22    13    1
     3    13    14   ar
     4    14    15   ar
     5    15    23    1
     6    23    24    1
     7    15    16   ar
     8    16    17    1
     9    16    18   ar
    10    18     7    1
    11     7     8   am
    12     8     9    2
    13     8    10   am
    14    10    11    1
    15    10     1    1
    16     1     2   ar
    17     2     3   ar
    18     3    25    1
    19    25    27    1
    20    27    28   ar
    21    28    29   ar
    22    29    30   ar
    23    30    31   ar
    24    31    33    1
    25    33    34    1
    26    34    35    1
    27    35    36    1
    28    36    37    1
    29    36    38    1
    30    38    39    1
    31    31    32   ar
    32     3     4   ar
    33     4     5   ar
    34     5     6   ar
    35    18    19   ar
    36    19    20    1
    37    19    13   ar
    38     6     1   ar
    39    32    27   ar
    40    39    33    1
    41     7    12    1
    42    25    26    1
