@<TRIPOS>MOLECULE
*****
 65 71 0 0 0
SMALL
GASTEIGER

@<TRIPOS>ATOM
      1 C           4.7292   -0.0195   19.8235 C.3     1  UNL1        0.1175
      2 O           3.9601    0.7570   20.8509 O.3     1  UNL1       -0.3367
      3 C           2.5226    1.1075   20.6048 C.3     1  UNL1        0.1902
      4 C           1.8541    0.6817   19.3314 C.3     1  UNL1        0.0564
      5 C           2.6232   -0.0948   18.3040 C.3     1  UNL1        0.0074
      6 C           4.0607   -0.4453   18.5500 C.3     1  UNL1        0.0275
      7 C           4.8298   -1.2218   17.5226 C.3     1  UNL1        0.0025
      8 C           1.0850    1.4581   20.3588 C.3     1  UNL1        0.0998
      9 C           0.3159    2.2346   21.3863 C.3     1  UNL1        0.1762
     10 C           0.9844    2.6605   22.6597 C.3     1  UNL1        0.0737
     11 C           2.4219    2.3099   22.9058 C.3     1  UNL1        0.1255
     12 C           3.2847    2.7874   24.4075 C.3     1  UNL1        0.0552
     13 C           3.3208    3.4572   25.7491 C.2     1  UNL1       -0.0298
     14 C           2.8037    4.2272   26.9279 C.2     1  UNL1       -0.0211
     15 C           4.0196    4.2707   27.8052 C.3     1  UNL1        0.0285
     16 C           1.8122    4.9803   27.7645 C.3     1  UNL1        0.1397
     17 C           0.4972    5.6017   28.1313 C.3     1  UNL1        0.0532
     18 C           0.4674    6.2208   29.3306 C.3     1  UNL1        0.0075
     19 C          -0.9411    5.9969   27.9727 C.2     1  UNL1       -0.0237
     20 C          -2.2837    6.1057   27.3127 C.2     1  UNL1       -0.0050
     21 C          -3.3262    5.9116   26.2519 C.2     1  UNL1       -0.0041
     22 C          -3.9099    5.4441   24.9516 C.2     1  UNL1        0.0122
     23 C          -5.2667    6.0269   25.2153 C.3     1  UNL1        0.1668
     24 O          -6.1412    5.7173   24.0366 O.3     1  UNL1       -0.3462
     25 C          -5.3250    4.9432   23.0444 C.3     1  UNL1        0.1749
     26 C          -6.3000    4.6688   21.8695 C.3     1  UNL1        0.1582
     27 O          -7.7355    5.0011   21.5888 O.3     1  UNL1       -0.3778
     28 C          -5.4993    3.8938   20.8655 C.2     1  UNL1       -0.0188
     29 C          -6.1342    3.4510   19.5806 C.3     1  UNL1        0.0285
     30 C          -4.0638    3.5615   21.1461 C.2     1  UNL1       -0.0188
     31 C          -3.4289    4.0043   22.4311 C.3     1  UNL1        0.1510
     32 C          -2.4374    3.2512   21.5945 C.2     1  UNL1        0.3232
     33 O          -3.2664    2.9139   20.3908 O.2     1  UNL1       -0.2497
     34 O          -1.1224    2.6298   21.2276 O.3     1  UNL1       -0.4517
     35 C          -3.9460    4.7743   23.6099 C.3     1  UNL1        0.1467
     36 O          -4.5808    4.3315   22.3250 O.3     1  UNL1       -0.3795
     37 O           3.1910    1.5335   21.8784 O.3     1  UNL1       -0.3362
     38 H          -7.9866    4.6441   20.7226 H       1  UNL1        0.2109
     39 H          -3.9305    3.8463   21.7934 H       1  UNL1        0.2108
     40 C           6.1668   -0.3700   20.0695 C.3     1  UNL1        0.0273
     41 C           7.2499    0.5952   19.6887 C.3     1  UNL1        0.0025
     42 C           5.4665   -2.4925   21.3942 C.3     1  UNL1        0.0001
     43 C           6.5212   -1.6858   20.6964 C.3     1  UNL1        0.0024
     44 O           2.6413    5.3175   28.9682 O.3     1  UNL1       -0.3284
     45 C           2.4208    4.5866   30.2594 C.3     1  UNL1        0.2379
     46 C           2.0979    3.1219   30.2464 C.3     1  UNL1        0.0934
     47 C           1.8774    2.3909   31.5377 C.3     1  UNL1        0.1498
     48 C           1.9799    3.1249   32.8418 C.3     1  UNL1        0.1718
     49 C           2.3028    4.5896   32.8548 C.3     1  UNL1        0.1473
     50 C           2.4052    5.3235   34.1590 C.3     1  UNL1        0.0348
     51 O           2.5232    5.3205   31.5636 O.3     1  UNL1       -0.3304
     52 O           1.5546    0.9262   31.5247 O.3     1  UNL1       -0.3508
     53 C           2.4245   -0.0269   30.7599 C.3     1  UNL1        0.1741
     54 O           1.7595    2.3940   34.1330 O.3     1  UNL1       -0.3279
     55 C           2.8953    1.6614   34.7835 C.3     1  UNL1        0.2377
     56 C           3.2892    1.9885   36.1935 C.3     1  UNL1        0.0934
     57 C           4.4250    1.2559   36.8441 C.3     1  UNL1        0.1494
     58 C           5.1669    0.1962   36.0847 C.3     1  UNL1        0.1647
     59 O           6.3027   -0.5363   36.7352 O.3     1  UNL1       -0.3795
     60 C           4.7730   -0.1308   34.6748 C.3     1  UNL1        0.1469
     61 C           5.5150   -1.1905   33.9154 C.3     1  UNL1        0.0348
     62 O           3.6373    0.6018   34.0242 O.3     1  UNL1       -0.3304
     63 H           6.4251   -0.2061   37.6390 H       1  UNL1        0.2105
     64 O           4.8189    1.5830   38.2539 O.3     1  UNL1       -0.3508
     65 C           4.0899    2.6564   39.0065 C.3     1  UNL1        0.1741
@<TRIPOS>BOND
     1    42    43    1
     2    43    40    1
     3    40    41    1
     4    40     1    1
     5     1     2    1
     6     2     3    1
     7     3     4    1
     8     4     5    1
     9     5     6    1
    10     6     7    1
    11     3     8    1
    12     9     8    1
    13     9    10    1
    14    10    11    1
    15    11    12    1
    16    12    13    1
    17    13    14    2
    18    14    15    1
    19    14    16    1
    20    16    44    1
    21    45    44    1
    22    45    46    1
    23    46    47    1
    24    47    52    1
    25    52    53    1
    26    47    48    1
    27    48    54    1
    28    55    54    1
    29    55    56    1
    30    56    57    1
    31    57    64    1
    32    64    65    1
    33    57    58    1
    34    58    59    1
    35    58    60    1
    36    60    61    1
    37    60    62    1
    38    48    49    1
    39    49    50    1
    40    49    51    1
    41    16    17    1
    42    17    18    1
    43    17    19    1
    44    19    20    2
    45    20    21    1
    46    21    22    2
    47    22    23    1
    48    23    24    1
    49    25    24    1
    50    25    26    1
    51    26    27    1
    52    26    28    1
    53    28    29    1
    54    28    30    2
    55    31    30    1
    56    31    32    1
    57    32    33    2
    58    32    34    1
    59    31    35    1
    60    35    36    1
    61    11    37    1
    62     6     1    1
    63    34     9    1
    64    37     3    1
    65    51    45    1
    66    35    22    1
    67    62    55    1
    68    35    25    1
    69    59    63    1
    70    27    38    1
    71    36    39    1
@<TRIPOS>MOLECULE
*****
 65 71 0 0 0
SMALL
GASTEIGER

@<TRIPOS>ATOM
      1 C           4.2376   -0.9098   20.7670 C.3     1  UNL1        0.1175
      2 O           3.5121    0.0796   21.6299 O.3     1  UNL1       -0.3367
      3 C           2.1320    0.5318   21.2547 C.3     1  UNL1        0.1902
      4 C           1.4774   -0.0053   20.0166 C.3     1  UNL1        0.0564
      5 C           2.2029   -0.9946   19.1537 C.3     1  UNL1        0.0074
      6 C           3.5831   -1.4469   19.5289 C.3     1  UNL1        0.0275
      7 C           4.3086   -2.4363   18.6659 C.3     1  UNL1        0.0025
      8 C           0.7519    0.9841   20.8795 C.3     1  UNL1        0.0998
      9 C           0.0263    1.9735   21.7425 C.3     1  UNL1        0.1762
     10 C           0.6809    2.5106   22.9807 C.3     1  UNL1        0.0737
     11 C           2.0610    2.0584   23.3559 C.3     1  UNL1        0.1255
     12 C           2.9043    2.6601   24.8236 C.3     1  UNL1        0.0552
     13 C           2.9537    3.5099   26.0587 C.2     1  UNL1       -0.0298
     14 C           2.4712    4.4898   27.0867 C.2     1  UNL1       -0.0211
     15 C           3.6460    4.5388   28.0181 C.3     1  UNL1        0.0285
     16 C           1.5305    5.4507   27.7514 C.3     1  UNL1        0.1397
     17 C           0.2746    6.2461   27.9514 C.3     1  UNL1        0.0532
     18 C           0.2593    7.0321   29.0489 C.3     1  UNL1        0.0075
     19 C          -1.1053    6.7550   27.6563 C.2     1  UNL1       -0.0237
     20 C          -2.3990    6.9000   26.9111 C.2     1  UNL1       -0.0050
     21 C          -3.4095    6.6589   25.8292 C.2     1  UNL1       -0.0041
     22 C          -3.9832    6.0685   24.5753 C.2     1  UNL1        0.0122
     23 C          -5.2803    6.8151   24.6763 C.3     1  UNL1        0.1668
     24 O          -6.1312    6.4267   23.5037 O.3     1  UNL1       -0.3462
     25 C          -5.3601    5.4400   22.6780 C.3     1  UNL1        0.1749
     26 C          -6.3073    5.0967   21.4985 C.3     1  UNL1        0.1582
     27 O          -7.6859    5.5258   21.0917 O.3     1  UNL1       -0.3778
     28 C          -5.5512    4.1090   20.6603 C.2     1  UNL1       -0.0188
     29 C          -6.1738    3.5503   19.4152 C.3     1  UNL1        0.0285
     30 C          -4.1727    3.6799   21.0670 C.2     1  UNL1       -0.0188
     31 C          -3.5502    4.2387   22.3122 C.3     1  UNL1        0.1510
     32 C          -2.6094    3.2779   21.6475 C.2     1  UNL1        0.3232
     33 O          -3.4170    2.8540   20.4567 O.2     1  UNL1       -0.2497
     34 O          -1.3535    2.4825   21.4475 O.3     1  UNL1       -0.4517
     35 C          -4.0326    5.2186   23.3403 C.3     1  UNL1        0.1467
     36 O          -4.6551    4.6599   22.0951 O.3     1  UNL1       -0.3795
     37 O           2.7865    1.0690   22.4929 O.3     1  UNL1       -0.3362
     38 H          -7.9361    5.0739   20.2707 H       1  UNL1        0.2109
     39 H          -4.0379    4.0407   21.6749 H       1  UNL1        0.2108
     40 C           5.6177   -1.3620   21.1422 C.3     1  UNL1        0.0273
     41 C           6.8160   -0.6274   20.6184 C.3     1  UNL1        0.0025
     42 C           4.6304   -3.4316   22.3637 C.3     1  UNL1        0.0001
     43 C           5.7995   -2.5489   22.0412 C.3     1  UNL1        0.0024
     44 O           2.3382    5.8745   28.9422 O.3     1  UNL1       -0.3284
     45 C           2.1023    5.2302   30.2762 C.3     1  UNL1        0.2379
     46 C           2.6601    5.8556   31.5201 C.3     1  UNL1        0.0934
     47 C           2.4243    5.2113   32.8541 C.3     1  UNL1        0.1498
     48 C           1.6307    3.9416   32.9439 C.3     1  UNL1        0.1718
     49 C           1.0730    3.3162   31.6998 C.3     1  UNL1        0.1473
     50 C           0.2794    2.0465   31.7896 C.3     1  UNL1        0.0348
     51 O           1.3087    3.9605   30.3659 O.3     1  UNL1       -0.3304
     52 O           2.9820    5.8367   34.0982 O.3     1  UNL1       -0.3508
     53 C           4.3492    5.4536   34.5822 C.3     1  UNL1        0.1741
     54 O           1.3949    3.2973   34.2777 O.3     1  UNL1       -0.3279
     55 C           2.4167    2.3593   34.8487 C.3     1  UNL1        0.2377
     56 C           3.2732    1.5357   33.9332 C.3     1  UNL1        0.0934
     57 C           4.2950    0.5977   34.5042 C.3     1  UNL1        0.1494
     58 C           4.4603    0.4833   35.9907 C.3     1  UNL1        0.1647
     59 O           5.4821   -0.4547   36.5617 O.3     1  UNL1       -0.3795
     60 C           3.6038    1.3069   36.9061 C.3     1  UNL1        0.1469
     61 C           3.7691    1.1925   38.3926 C.3     1  UNL1        0.0348
     62 O           2.5821    2.2449   36.3352 O.3     1  UNL1       -0.3304
     63 H           5.9457   -0.9065   35.8393 H       1  UNL1        0.2105
     64 O           5.1515   -0.2259   33.5888 O.3     1  UNL1       -0.3508
     65 C           4.7924   -1.6554   33.3099 C.3     1  UNL1        0.1741
@<TRIPOS>BOND
     1    42    43    1
     2    43    40    1
     3    40    41    1
     4    40     1    1
     5     1     2    1
     6     2     3    1
     7     3     4    1
     8     4     5    1
     9     5     6    1
    10     6     7    1
    11     3     8    1
    12     9     8    1
    13     9    10    1
    14    10    11    1
    15    11    12    1
    16    12    13    1
    17    13    14    2
    18    14    15    1
    19    14    16    1
    20    16    44    1
    21    45    44    1
    22    45    46    1
    23    46    47    1
    24    47    52    1
    25    52    53    1
    26    47    48    1
    27    48    54    1
    28    55    54    1
    29    55    56    1
    30    56    57    1
    31    57    64    1
    32    64    65    1
    33    57    58    1
    34    58    59    1
    35    58    60    1
    36    60    61    1
    37    60    62    1
    38    48    49    1
    39    49    50    1
    40    49    51    1
    41    16    17    1
    42    17    18    1
    43    17    19    1
    44    19    20    2
    45    20    21    1
    46    21    22    2
    47    22    23    1
    48    23    24    1
    49    25    24    1
    50    25    26    1
    51    26    27    1
    52    26    28    1
    53    28    29    1
    54    28    30    2
    55    31    30    1
    56    31    32    1
    57    32    33    2
    58    32    34    1
    59    31    35    1
    60    35    36    1
    61    11    37    1
    62     6     1    1
    63    34     9    1
    64    37     3    1
    65    51    45    1
    66    35    22    1
    67    62    55    1
    68    35    25    1
    69    59    63    1
    70    27    38    1
    71    36    39    1
@<TRIPOS>MOLECULE
*****
 65 71 0 0 0
SMALL
GASTEIGER

@<TRIPOS>ATOM
      1 C           4.0674    0.0526   19.2721 C.3     1  UNL1        0.1175
      2 O           3.3798    0.7516   20.4073 O.3     1  UNL1       -0.3367
      3 C           1.9498    1.1824   20.2669 C.3     1  UNL1        0.1902
      4 C           1.2075    0.9143   18.9914 C.3     1  UNL1        0.0564
      5 C           1.8951    0.2154   17.8562 C.3     1  UNL1        0.0074
      6 C           3.3251   -0.2154   17.9966 C.3     1  UNL1        0.0275
      7 C           4.0127   -0.9144   16.8613 C.3     1  UNL1        0.0025
      8 C           0.5199    1.6133   20.1266 C.3     1  UNL1        0.0998
      9 C          -0.1677    2.3122   21.2618 C.3     1  UNL1        0.1762
     10 C           0.5746    2.5803   22.5374 C.3     1  UNL1        0.0737
     11 C           2.0046    2.1494   22.6778 C.3     1  UNL1        0.1255
     12 C           2.9532    2.4380   24.1758 C.3     1  UNL1        0.0552
     13 C           3.0782    2.9669   25.5739 C.2     1  UNL1       -0.0298
     14 C           2.6485    3.6341   26.8467 C.2     1  UNL1       -0.0211
     15 C           3.9026    3.5401   27.6642 C.3     1  UNL1        0.0285
     16 C           1.7294    4.3379   27.8007 C.3     1  UNL1        0.1397
     17 C           0.4609    4.9712   28.2904 C.3     1  UNL1        0.0532
     18 C           0.5118    5.4669   29.5451 C.3     1  UNL1        0.0075
     19 C          -0.9639    5.4377   28.2413 C.2     1  UNL1       -0.0237
     20 C          -2.3281    5.6662   27.6611 C.2     1  UNL1       -0.0050
     21 C          -3.4239    5.6220   26.6378 C.2     1  UNL1       -0.0041
     22 C          -4.0847    5.3119   25.3274 C.2     1  UNL1        0.0122
     23 C          -5.4011    5.9189   25.7128 C.3     1  UNL1        0.1668
     24 O          -6.3397    5.7652   24.5528 O.3     1  UNL1       -0.3462
     25 C          -5.6034    5.0631   23.4506 C.3     1  UNL1        0.1749
     26 C          -6.6405    4.9480   22.3028 C.3     1  UNL1        0.1582
     27 O          -8.0708    5.3641   22.1262 O.3     1  UNL1       -0.3778
     28 C          -5.9203    4.2468   21.1895 C.2     1  UNL1       -0.0188
     29 C          -6.6304    3.9618   19.8993 C.3     1  UNL1        0.0285
     30 C          -4.4901    3.8307   21.3662 C.2     1  UNL1       -0.0188
     31 C          -3.7800    4.1158   22.6564 C.3     1  UNL1        0.1510
     32 C          -2.8610    3.4120   21.7025 C.2     1  UNL1        0.3232
     33 O          -3.7564    3.2313   20.5128 O.2     1  UNL1       -0.2497
     34 O          -1.5925    2.7786   21.2128 O.3     1  UNL1       -0.4517
     35 C          -4.2098    4.7830   23.9293 C.3     1  UNL1        0.1467
     36 O          -4.9198    4.4979   22.6391 O.3     1  UNL1       -0.3795
     37 O           2.6922    1.4505   21.5426 O.3     1  UNL1       -0.3362
     38 H          -8.3756    5.1066   21.2420 H       1  UNL1        0.2109
     39 H          -4.3158    4.0432   22.0313 H       1  UNL1        0.2108
     40 C           5.4973   -0.3782   19.4125 C.3     1  UNL1        0.0273
     41 C           6.6046    0.5762   19.0766 C.3     1  UNL1        0.0025
     42 C           4.7501   -2.6105   20.5118 C.3     1  UNL1        0.0001
     43 C           5.8199   -1.7635   19.8888 C.3     1  UNL1        0.0024
     44 O           2.6250    4.5185   28.9904 O.3     1  UNL1       -0.3284
     45 C           2.8570    3.3763   29.9347 C.3     1  UNL1        0.2379
     46 C           3.5161    3.6207   31.2597 C.3     1  UNL1        0.0934
     47 C           3.7481    2.4785   32.2040 C.3     1  UNL1        0.1498
     48 C           3.3211    1.0919   31.8231 C.3     1  UNL1        0.1718
     49 C           2.6620    0.8476   30.4980 C.3     1  UNL1        0.1473
     50 C           2.2350   -0.5390   30.1171 C.3     1  UNL1        0.0348
     51 O           2.4300    1.9897   29.5537 O.3     1  UNL1       -0.3304
     52 O           4.4072    2.7228   33.5291 O.3     1  UNL1       -0.3508
     53 C           3.5806    2.7744   34.7797 C.3     1  UNL1        0.1741
     54 O           3.5531   -0.0503   32.7673 O.3     1  UNL1       -0.3279
     55 C           4.8842   -0.7411   32.7960 C.3     1  UNL1        0.2377
     56 C           4.9828   -2.1947   32.4391 C.3     1  UNL1        0.0934
     57 C           6.3139   -2.8855   32.4678 C.3     1  UNL1        0.1494
     58 C           7.5465   -2.1227   32.8536 C.3     1  UNL1        0.1647
     59 O           8.8776   -2.8134   32.8823 O.3     1  UNL1       -0.3795
     60 C           7.4480   -0.6691   33.2105 C.3     1  UNL1        0.1469
     61 C           8.6806    0.0937   33.5963 C.3     1  UNL1        0.0348
     62 O           6.1169    0.0217   33.1818 O.3     1  UNL1       -0.3304
     63 H           8.7654   -3.7425   32.6271 H       1  UNL1        0.2105
     64 O           6.4124   -4.3390   32.1109 O.3     1  UNL1       -0.3508
     65 C           6.9110   -4.7465   30.7561 C.3     1  UNL1        0.1741
@<TRIPOS>BOND
     1    42    43    1
     2    43    40    1
     3    40    41    1
     4    40     1    1
     5     1     2    1
     6     2     3    1
     7     3     4    1
     8     4     5    1
     9     5     6    1
    10     6     7    1
    11     3     8    1
    12     9     8    1
    13     9    10    1
    14    10    11    1
    15    11    12    1
    16    12    13    1
    17    13    14    2
    18    14    15    1
    19    14    16    1
    20    16    44    1
    21    45    44    1
    22    45    46    1
    23    46    47    1
    24    47    52    1
    25    52    53    1
    26    47    48    1
    27    48    54    1
    28    55    54    1
    29    55    56    1
    30    56    57    1
    31    57    64    1
    32    64    65    1
    33    57    58    1
    34    58    59    1
    35    58    60    1
    36    60    61    1
    37    60    62    1
    38    48    49    1
    39    49    50    1
    40    49    51    1
    41    16    17    1
    42    17    18    1
    43    17    19    1
    44    19    20    2
    45    20    21    1
    46    21    22    2
    47    22    23    1
    48    23    24    1
    49    25    24    1
    50    25    26    1
    51    26    27    1
    52    26    28    1
    53    28    29    1
    54    28    30    2
    55    31    30    1
    56    31    32    1
    57    32    33    2
    58    32    34    1
    59    31    35    1
    60    35    36    1
    61    11    37    1
    62     6     1    1
    63    34     9    1
    64    37     3    1
    65    51    45    1
    66    35    22    1
    67    62    55    1
    68    35    25    1
    69    59    63    1
    70    27    38    1
    71    36    39    1
@<TRIPOS>MOLECULE
*****
 65 71 0 0 0
SMALL
GASTEIGER

@<TRIPOS>ATOM
      1 C          -2.4323    4.3876   19.2874 C.3     1  UNL1        0.1175
      2 O          -1.6508    3.6718   20.3488 O.3     1  UNL1       -0.3367
      3 C          -0.4358    2.8748   19.9765 C.3     1  UNL1        0.1902
      4 C          -0.0024    2.7936   18.5429 C.3     1  UNL1        0.0564
      5 C          -0.7840    3.5094   17.4814 C.3     1  UNL1        0.0074
      6 C          -1.9990    4.3064   17.8537 C.3     1  UNL1        0.0275
      7 C          -2.7806    5.0223   16.7922 C.3     1  UNL1        0.0025
      8 C           0.7792    2.0777   19.6043 C.3     1  UNL1        0.0998
      9 C           1.5608    1.3619   20.6658 C.3     1  UNL1        0.1762
     10 C           1.1274    1.4431   22.0995 C.3     1  UNL1        0.0737
     11 C          -0.0876    2.2401   22.4718 C.3     1  UNL1        0.1255
     12 C          -0.6631    2.3804   24.1678 C.3     1  UNL1        0.0552
     13 C          -0.5419    2.0669   25.6297 C.2     1  UNL1       -0.0298
     14 C           0.0390    1.4637   26.8741 C.2     1  UNL1       -0.0211
     15 C          -0.9127    1.9708   27.9168 C.3     1  UNL1        0.0285
     16 C           0.9912    0.6627   27.7118 C.3     1  UNL1        0.1397
     17 C           2.1698   -0.2142   28.0150 C.3     1  UNL1        0.0532
     18 C           2.3317   -0.5314   29.3172 C.3     1  UNL1        0.0075
     19 C           3.3953   -1.0335   27.7377 C.2     1  UNL1       -0.0237
     20 C           4.4812   -1.6705   26.9222 C.2     1  UNL1       -0.0050
     21 C           5.2620   -2.0281   25.6925 C.2     1  UNL1       -0.0041
     22 C           5.6192   -2.0520   24.2358 C.2     1  UNL1        0.0122
     23 C           6.8221   -2.9281   24.4238 C.3     1  UNL1        0.1668
     24 O           7.4444   -3.1560   23.0782 O.3     1  UNL1       -0.3462
     25 C           6.6261   -2.4208   22.0585 C.3     1  UNL1        0.1749
     26 C           7.3356   -2.7097   20.7097 C.3     1  UNL1        0.1582
     27 O           8.5450   -3.4969   20.2999 O.3     1  UNL1       -0.3778
     28 C           6.5294   -1.9808   19.6759 C.2     1  UNL1       -0.0188
     29 C           6.9325   -2.0392   18.2323 C.3     1  UNL1        0.0285
     30 C           5.3202   -1.1937   20.0857 C.2     1  UNL1       -0.0188
     31 C           4.9171   -1.1353   21.5295 C.3     1  UNL1        0.1510
     32 C           3.9648   -0.3343   20.6918 C.2     1  UNL1        0.3232
     33 O           4.5449   -0.5288   19.3223 O.2     1  UNL1       -0.2497
     34 O           2.7863    0.5426   20.3885 O.3     1  UNL1       -0.4517
     35 C           5.4980   -1.7385   22.7739 C.3     1  UNL1        0.1467
     36 O           5.9010   -1.7968   21.3302 O.3     1  UNL1       -0.3795
     37 O          -0.8692    2.9559   21.4103 O.3     1  UNL1       -0.3362
     38 H           8.6637   -3.4306   19.3395 H       1  UNL1        0.2109
     39 H           5.2784   -1.2757   20.7994 H       1  UNL1        0.2108
     40 C          -3.6473    5.1847   19.6597 C.3     1  UNL1        0.0273
     41 C          -3.5474    6.6724   19.8224 C.3     1  UNL1        0.0025
     42 C          -5.5098    3.5858   18.8084 C.3     1  UNL1        0.0001
     43 C          -4.9622    4.4940   19.8692 C.3     1  UNL1        0.0024
     44 O           0.4110    0.8573   29.0813 O.3     1  UNL1       -0.3284
     45 C           1.0371    1.8375   30.0287 C.3     1  UNL1        0.2379
     46 C           1.4765    3.1833   29.5333 C.3     1  UNL1        0.0934
     47 C           2.1025    4.1635   30.4806 C.3     1  UNL1        0.1498
     48 C           2.2890    3.7977   31.9234 C.3     1  UNL1        0.1718
     49 C           1.8495    2.4518   32.4187 C.3     1  UNL1        0.1473
     50 C           2.0360    2.0860   33.8614 C.3     1  UNL1        0.0348
     51 O           1.2235    1.4716   31.4714 O.3     1  UNL1       -0.3304
     52 O           2.5420    5.5094   29.9853 O.3     1  UNL1       -0.3508
     53 C           3.5434    5.6090   28.8730 C.3     1  UNL1        0.1741
     54 O           2.9150    4.7778   32.8707 O.3     1  UNL1       -0.3279
     55 C           2.0861    5.4161   33.9456 C.3     1  UNL1        0.2377
     56 C           0.6303    5.6888   33.7077 C.3     1  UNL1        0.0934
     57 C          -0.1986    6.3271   34.7825 C.3     1  UNL1        0.1494
     58 C           0.4282    6.6928   36.0954 C.3     1  UNL1        0.1647
     59 O          -0.4008    7.3311   37.1702 O.3     1  UNL1       -0.3795
     60 C           1.8838    6.4201   36.3333 C.3     1  UNL1        0.1469
     61 C           2.5106    6.7858   37.6461 C.3     1  UNL1        0.0348
     62 O           2.7128    5.7818   35.2584 O.3     1  UNL1       -0.3304
     63 H          -1.3125    7.4359   36.8561 H       1  UNL1        0.2105
     64 O          -1.6543    6.5998   34.5447 O.3     1  UNL1       -0.3508
     65 C          -2.1348    6.9615   33.1705 C.3     1  UNL1        0.1741
@<TRIPOS>BOND
     1    42    43    1
     2    43    40    1
     3    40    41    1
     4    40     1    1
     5     1     2    1
     6     2     3    1
     7     3     4    1
     8     4     5    1
     9     5     6    1
    10     6     7    1
    11     3     8    1
    12     9     8    1
    13     9    10    1
    14    10    11    1
    15    11    12    1
    16    12    13    1
    17    13    14    2
    18    14    15    1
    19    14    16    1
    20    16    44    1
    21    45    44    1
    22    45    46    1
    23    46    47    1
    24    47    52    1
    25    52    53    1
    26    47    48    1
    27    48    54    1
    28    55    54    1
    29    55    56    1
    30    56    57    1
    31    57    64    1
    32    64    65    1
    33    57    58    1
    34    58    59    1
    35    58    60    1
    36    60    61    1
    37    60    62    1
    38    48    49    1
    39    49    50    1
    40    49    51    1
    41    16    17    1
    42    17    18    1
    43    17    19    1
    44    19    20    2
    45    20    21    1
    46    21    22    2
    47    22    23    1
    48    23    24    1
    49    25    24    1
    50    25    26    1
    51    26    27    1
    52    26    28    1
    53    28    29    1
    54    28    30    2
    55    31    30    1
    56    31    32    1
    57    32    33    2
    58    32    34    1
    59    31    35    1
    60    35    36    1
    61    11    37    1
    62     6     1    1
    63    34     9    1
    64    37     3    1
    65    51    45    1
    66    35    22    1
    67    62    55    1
    68    35    25    1
    69    59    63    1
    70    27    38    1
    71    36    39    1
@<TRIPOS>MOLECULE
*****
 65 71 0 0 0
SMALL
GASTEIGER

@<TRIPOS>ATOM
      1 C           4.6237    0.3176   32.4088 C.3     1  UNL1        0.1175
      2 O           4.7617    0.2915   30.9154 O.3     1  UNL1       -0.3367
      3 C           5.4053   -0.8842   30.2421 C.3     1  UNL1        0.1902
      4 C           5.9108   -2.0340   31.0622 C.3     1  UNL1        0.0564
      5 C           5.7728   -2.0079   32.5555 C.3     1  UNL1        0.0074
      6 C           5.1292   -0.8321   33.2288 C.3     1  UNL1        0.0275
      7 C           4.9912   -0.8061   34.7223 C.3     1  UNL1        0.0025
      8 C           6.0489   -2.0600   29.5688 C.3     1  UNL1        0.0998
      9 C           6.1869   -2.0860   28.0753 C.3     1  UNL1        0.1762
     10 C           5.6814   -0.9363   27.2553 C.3     1  UNL1        0.0737
     11 C           5.0378    0.2395   27.9286 C.3     1  UNL1        0.1255
     12 C           4.4106    1.6496   27.0089 C.3     1  UNL1        0.0552
     13 C           4.1568    2.3738   25.7201 C.2     1  UNL1       -0.0298
     14 C           4.1628    2.6102   24.2390 C.2     1  UNL1       -0.0211
     15 C           3.4993    3.9528   24.1542 C.3     1  UNL1        0.0285
     16 C           4.4276    2.3227   22.7907 C.3     1  UNL1        0.1397
     17 C           4.9110    1.5551   21.5961 C.3     1  UNL1        0.0532
     18 C           4.7100    2.1573   20.4047 C.3     1  UNL1        0.0075
     19 C           5.5393    0.4243   20.8369 C.2     1  UNL1       -0.0237
     20 C           6.2169   -0.8976   20.6286 C.2     1  UNL1       -0.0050
     21 C           6.8406   -2.2093   21.0031 C.2     1  UNL1       -0.0041
     22 C           7.3155   -3.3113   21.9032 C.2     1  UNL1        0.0122
     23 C           7.8347   -4.1630   20.7829 C.3     1  UNL1        0.1668
     24 O           8.4093   -5.4136   21.3793 O.3     1  UNL1       -0.3462
     25 C           8.2453   -5.3349   22.8683 C.3     1  UNL1        0.1749
     26 C           8.8612   -6.6567   23.3971 C.3     1  UNL1        0.1582
     27 O           9.5101   -7.8491   22.7589 O.3     1  UNL1       -0.3778
     28 C           8.7058   -6.5955   24.8877 C.2     1  UNL1       -0.0188
     29 C           9.1993   -7.7267   25.7402 C.3     1  UNL1        0.0285
     30 C           8.0569   -5.4032   25.5258 C.2     1  UNL1       -0.0188
     31 C           7.5634   -4.2719   24.6733 C.3     1  UNL1        0.1510
     32 C           7.2986   -3.9845   26.1215 C.2     1  UNL1        0.3232
     33 O           7.8586   -5.2149   26.7712 O.2     1  UNL1       -0.2497
     34 O           6.8152   -3.2169   27.3161 O.3     1  UNL1       -0.4517
     35 C           7.5693   -4.0356   23.1920 C.3     1  UNL1        0.1467
     36 O           8.0629   -5.1668   24.0446 O.3     1  UNL1       -0.3795
     37 O           4.8998    0.2655   29.4220 O.3     1  UNL1       -0.3362
     38 H           9.7690   -8.4827   23.4461 H       1  UNL1        0.2109
     39 H           7.8861   -4.9693   24.9777 H       1  UNL1        0.2108
     40 C           3.9801    1.4934   33.0821 C.3     1  UNL1        0.0273
     41 C           4.8228    2.6408   33.5546 C.3     1  UNL1        0.0025
     42 C           1.8060    2.8136   33.6113 C.3     1  UNL1        0.0001
     43 C           2.4939    1.5217   33.2830 C.3     1  UNL1        0.0024
     44 O           3.8675    3.5532   22.1410 O.3     1  UNL1       -0.3284
     45 C           2.4978    3.5214   21.5300 C.3     1  UNL1        0.2379
     46 C           1.7860    2.2131   21.3528 C.3     1  UNL1        0.0934
     47 C           0.4163    2.1812   20.7418 C.3     1  UNL1        0.1498
     48 C          -0.2413    3.4578   20.3082 C.3     1  UNL1        0.1718
     49 C           0.4706    4.7660   20.4854 C.3     1  UNL1        0.1473
     50 C          -0.1869    6.0426   20.0518 C.3     1  UNL1        0.0348
     51 O           1.8402    4.7979   21.0964 O.3     1  UNL1       -0.3304
     52 O          -0.2957    0.8730   20.5646 O.3     1  UNL1       -0.3508
     53 C           0.4911   -0.3976   20.4353 C.3     1  UNL1        0.1741
     54 O          -1.6108    3.4260   19.6972 O.3     1  UNL1       -0.3279
     55 C          -2.8250    3.5229   20.5726 C.3     1  UNL1        0.2377
     56 C          -4.1794    3.7176   19.9578 C.3     1  UNL1        0.0934
     57 C          -5.3935    3.8145   20.8332 C.3     1  UNL1        0.1494
     58 C          -5.2534    3.7167   22.3235 C.3     1  UNL1        0.1647
     59 O          -6.4676    3.8136   23.1988 O.3     1  UNL1       -0.3795
     60 C          -3.8992    3.5220   22.9383 C.3     1  UNL1        0.1469
     61 C          -3.7591    3.4243   24.4285 C.3     1  UNL1        0.0348
     62 O          -2.6850    3.4251   22.0629 O.3     1  UNL1       -0.3304
     63 H          -7.2553    3.9375   22.6465 H       1  UNL1        0.2105
     64 O          -6.7478    4.0091   20.2184 O.3     1  UNL1       -0.3508
     65 C          -6.9113    3.9456   18.7286 C.3     1  UNL1        0.1741
@<TRIPOS>BOND
     1    42    43    1
     2    43    40    1
     3    40    41    1
     4    40     1    1
     5     1     2    1
     6     2     3    1
     7     3     4    1
     8     4     5    1
     9     5     6    1
    10     6     7    1
    11     3     8    1
    12     9     8    1
    13     9    10    1
    14    10    11    1
    15    11    12    1
    16    12    13    1
    17    13    14    2
    18    14    15    1
    19    14    16    1
    20    16    44    1
    21    45    44    1
    22    45    46    1
    23    46    47    1
    24    47    52    1
    25    52    53    1
    26    47    48    1
    27    48    54    1
    28    55    54    1
    29    55    56    1
    30    56    57    1
    31    57    64    1
    32    64    65    1
    33    57    58    1
    34    58    59    1
    35    58    60    1
    36    60    61    1
    37    60    62    1
    38    48    49    1
    39    49    50    1
    40    49    51    1
    41    16    17    1
    42    17    18    1
    43    17    19    1
    44    19    20    2
    45    20    21    1
    46    21    22    2
    47    22    23    1
    48    23    24    1
    49    25    24    1
    50    25    26    1
    51    26    27    1
    52    26    28    1
    53    28    29    1
    54    28    30    2
    55    31    30    1
    56    31    32    1
    57    32    33    2
    58    32    34    1
    59    31    35    1
    60    35    36    1
    61    11    37    1
    62     6     1    1
    63    34     9    1
    64    37     3    1
    65    51    45    1
    66    35    22    1
    67    62    55    1
    68    35    25    1
    69    59    63    1
    70    27    38    1
    71    36    39    1
@<TRIPOS>MOLECULE
*****
 65 71 0 0 0
SMALL
GASTEIGER

@<TRIPOS>ATOM
      1 C          -4.2593    5.4286   21.5755 C.3     1  UNL1        0.1175
      2 O          -3.2234    4.5603   22.2259 O.3     1  UNL1       -0.3367
      3 C          -2.2388    3.8069   21.3816 C.3     1  UNL1        0.1902
      4 C          -2.2900    3.9218   19.8869 C.3     1  UNL1        0.0564
      5 C          -3.3258    4.7901   19.2365 C.3     1  UNL1        0.0074
      6 C          -4.3105    5.5435   20.0808 C.3     1  UNL1        0.0275
      7 C          -5.3463    6.4119   19.4304 C.3     1  UNL1        0.0025
      8 C          -1.2542    3.0534   20.5373 C.3     1  UNL1        0.0998
      9 C          -0.2183    2.1851   21.1877 C.3     1  UNL1        0.1762
     10 C          -0.1671    2.0702   22.6824 C.3     1  UNL1        0.0737
     11 C          -1.1518    2.8236   23.5267 C.3     1  UNL1        0.1255
     12 C          -1.1480    2.7323   25.3209 C.3     1  UNL1        0.0552
     13 C          -0.5861    2.2151   26.6120 C.2     1  UNL1       -0.0298
     14 C           0.3246    1.4354   27.5133 C.2     1  UNL1       -0.0211
     15 C          -0.2143    1.8041   28.8637 C.3     1  UNL1        0.0285
     16 C           1.4457    0.5118   27.8877 C.3     1  UNL1        0.1397
     17 C           2.6064   -0.4150   27.6783 C.3     1  UNL1        0.0532
     18 C           3.1557   -0.9140   28.8060 C.3     1  UNL1        0.0075
     19 C           3.6299   -1.2039   26.9167 C.2     1  UNL1       -0.0237
     20 C           4.3606   -1.7349   25.7192 C.2     1  UNL1       -0.0050
     21 C           4.6870   -1.9271   24.2679 C.2     1  UNL1       -0.0041
     22 C           4.5597   -1.7512   22.7836 C.2     1  UNL1        0.0122
     23 C           5.7067   -2.6613   22.4583 C.3     1  UNL1        0.1668
     24 O           5.8538   -2.7066   20.9663 O.3     1  UNL1       -0.3462
     25 C           4.7976   -1.8245   20.3694 C.3     1  UNL1        0.1749
     26 C           5.0227   -1.9309   18.8383 C.3     1  UNL1        0.1582
     27 O           5.9905   -2.6692   17.9619 O.3     1  UNL1       -0.3778
     28 C           3.9731   -1.0532   18.2235 C.2     1  UNL1       -0.0188
     29 C           3.8914   -0.9138   16.7322 C.3     1  UNL1        0.0285
     30 C           3.0052   -0.3149   19.0999 C.2     1  UNL1       -0.0188
     31 C           3.0870   -0.4543   20.5912 C.3     1  UNL1        0.1510
     32 C           1.9659    0.4693   20.2167 C.2     1  UNL1        0.3232
     33 O           2.0673    0.4610   18.7202 O.2     1  UNL1       -0.2497
     34 O           0.8052    1.3961   20.4262 O.3     1  UNL1       -0.4517
     35 C           3.9978   -1.2340   21.4926 C.3     1  UNL1        0.1467
     36 O           3.9160   -1.0946   20.0013 O.3     1  UNL1       -0.3795
     37 O          -2.1876    3.6919   22.8764 O.3     1  UNL1       -0.3362
     38 H           5.8010   -2.4704   17.0316 H       1  UNL1        0.2109
     39 H           3.1882   -0.4957   19.7719 H       1  UNL1        0.2108
     40 C          -5.2439    6.1821   22.4198 C.3     1  UNL1        0.0273
     41 C          -4.9009    7.5495   22.9320 C.3     1  UNL1        0.0025
     42 C          -6.7343    4.0770   22.7320 C.3     1  UNL1        0.0001
     43 C          -6.5715    5.5680   22.7520 C.3     1  UNL1        0.0024
     44 O           1.3442    0.5202   29.3843 O.3     1  UNL1       -0.3284
     45 C           2.2164    1.4368   30.1901 C.3     1  UNL1        0.2379
     46 C           2.3783    1.2140   31.6645 C.3     1  UNL1        0.0934
     47 C           3.2505    2.1307   32.4702 C.3     1  UNL1        0.1498
     48 C           3.9607    3.2701   31.8014 C.3     1  UNL1        0.1718
     49 C           3.7988    3.4928   30.3269 C.3     1  UNL1        0.1473
     50 C           4.5091    4.6322   29.6581 C.3     1  UNL1        0.0348
     51 O           2.9267    2.5762   29.5212 O.3     1  UNL1       -0.3304
     52 O           3.4124    1.9079   33.9447 O.3     1  UNL1       -0.3508
     53 C           4.6038    1.1587   34.4637 C.3     1  UNL1        0.1741
     54 O           4.8329    4.1867   32.6070 O.3     1  UNL1       -0.3279
     55 C           4.2453    4.9815   33.7352 C.3     1  UNL1        0.2377
     56 C           2.9472    5.7085   33.5442 C.3     1  UNL1        0.0934
     57 C           2.3596    6.5033   34.6724 C.3     1  UNL1        0.1494
     58 C           3.0701    6.5711   35.9918 C.3     1  UNL1        0.1647
     59 O           2.4825    7.3659   37.1200 O.3     1  UNL1       -0.3795
     60 C           4.3681    5.8441   36.1828 C.3     1  UNL1        0.1469
     61 C           5.0786    5.9120   37.5022 C.3     1  UNL1        0.0348
     62 O           4.9557    5.0493   35.0546 O.3     1  UNL1       -0.3304
     63 H           1.6488    7.7692   36.8315 H       1  UNL1        0.2105
     64 O           1.0615    7.2303   34.4814 O.3     1  UNL1       -0.3508
     65 C          -0.2263    6.5905   34.9083 C.3     1  UNL1        0.1741
@<TRIPOS>BOND
     1    42    43    1
     2    43    40    1
     3    40    41    1
     4    40     1    1
     5     1     2    1
     6     2     3    1
     7     3     4    1
     8     4     5    1
     9     5     6    1
    10     6     7    1
    11     3     8    1
    12     9     8    1
    13     9    10    1
    14    10    11    1
    15    11    12    1
    16    12    13    1
    17    13    14    2
    18    14    15    1
    19    14    16    1
    20    16    44    1
    21    45    44    1
    22    45    46    1
    23    46    47    1
    24    47    52    1
    25    52    53    1
    26    47    48    1
    27    48    54    1
    28    55    54    1
    29    55    56    1
    30    56    57    1
    31    57    64    1
    32    64    65    1
    33    57    58    1
    34    58    59    1
    35    58    60    1
    36    60    61    1
    37    60    62    1
    38    48    49    1
    39    49    50    1
    40    49    51    1
    41    16    17    1
    42    17    18    1
    43    17    19    1
    44    19    20    2
    45    20    21    1
    46    21    22    2
    47    22    23    1
    48    23    24    1
    49    25    24    1
    50    25    26    1
    51    26    27    1
    52    26    28    1
    53    28    29    1
    54    28    30    2
    55    31    30    1
    56    31    32    1
    57    32    33    2
    58    32    34    1
    59    31    35    1
    60    35    36    1
    61    11    37    1
    62     6     1    1
    63    34     9    1
    64    37     3    1
    65    51    45    1
    66    35    22    1
    67    62    55    1
    68    35    25    1
    69    59    63    1
    70    27    38    1
    71    36    39    1
@<TRIPOS>MOLECULE
*****
 65 71 0 0 0
SMALL
GASTEIGER

@<TRIPOS>ATOM
      1 C          -4.2970    5.5003   21.6437 C.3     1  UNL1        0.1175
      2 O          -3.2639    4.6223   22.2854 O.3     1  UNL1       -0.3367
      3 C          -2.2930    3.8603   21.4328 C.3     1  UNL1        0.1902
      4 C          -2.3553    3.9763   19.9386 C.3     1  UNL1        0.0564
      5 C          -3.3885    4.8543   19.2970 C.3     1  UNL1        0.0074
      6 C          -4.3593    5.6163   20.1495 C.3     1  UNL1        0.0275
      7 C          -5.3924    6.4943   19.5078 C.3     1  UNL1        0.0025
      8 C          -1.3222    3.0983   20.5803 C.3     1  UNL1        0.0998
      9 C          -0.2891    2.2203   21.2220 C.3     1  UNL1        0.1762
     10 C          -0.2268    2.1043   22.7162 C.3     1  UNL1        0.0737
     11 C          -1.1976    2.8663   23.5687 C.3     1  UNL1        0.1255
     12 C          -1.1801    2.7742   25.3628 C.3     1  UNL1        0.0552
     13 C          -0.6125    2.2514   26.6491 C.2     1  UNL1       -0.0298
     14 C           0.2984    1.4630   27.5426 C.2     1  UNL1       -0.0211
     15 C          -0.2261    1.8360   28.8976 C.3     1  UNL1        0.0285
     16 C           1.4140    0.5291   27.9077 C.3     1  UNL1        0.1397
     17 C           2.5645   -0.4081   27.6884 C.3     1  UNL1        0.0532
     18 C           3.1184   -0.9126   28.8115 C.3     1  UNL1        0.0075
     19 C           3.5746   -1.2060   26.9184 C.2     1  UNL1       -0.0237
     20 C           4.2906   -1.7432   25.7147 C.2     1  UNL1       -0.0050
     21 C           4.6035   -1.9377   24.2607 C.2     1  UNL1       -0.0041
     22 C           4.4657   -1.7600   22.7776 C.2     1  UNL1        0.0122
     23 C           5.6017   -2.6804   22.4427 C.3     1  UNL1        0.1668
     24 O           5.7362   -2.7264   20.9495 O.3     1  UNL1       -0.3462
     25 C           4.6833   -1.8345   20.3615 C.3     1  UNL1        0.1749
     26 C           4.8949   -1.9423   18.8286 C.3     1  UNL1        0.1582
     27 O           5.8489   -2.6890   17.9441 O.3     1  UNL1       -0.3778
     28 C           3.8484   -1.0548   18.2227 C.2     1  UNL1       -0.0188
     29 C           3.7559   -0.9141   16.7322 C.3     1  UNL1        0.0285
     30 C           2.8945   -0.3081   19.1071 C.2     1  UNL1       -0.0188
     31 C           2.9871   -0.4488   20.5977 C.3     1  UNL1        0.1510
     32 C           1.8715    0.4851   20.2327 C.2     1  UNL1        0.3232
     33 O           1.9607    0.4765   18.7354 O.2     1  UNL1       -0.2497
     34 O           0.7210    1.4223   20.4519 O.3     1  UNL1       -0.4517
     35 C           3.8981   -1.2372   21.4914 C.3     1  UNL1        0.1467
     36 O           3.8054   -1.0964   20.0008 O.3     1  UNL1       -0.3795
     37 O          -2.2307    3.7443   22.9271 O.3     1  UNL1       -0.3362
     38 H           5.6536   -2.4881   17.0155 H       1  UNL1        0.2109
     39 H           3.0813   -0.4908   19.7776 H       1  UNL1        0.2108
     40 C          -5.2678    6.2623   22.4963 C.3     1  UNL1        0.0273
     41 C          -4.9073    7.6254   23.0081 C.3     1  UNL1        0.0025
     42 C          -6.8904    4.2333   22.4820 C.3     1  UNL1        0.0001
     43 C          -6.5992    5.6613   22.8370 C.3     1  UNL1        0.0024
     44 O           1.3248    0.5377   29.4050 O.3     1  UNL1       -0.3284
     45 C           2.2724    1.3788   30.2080 C.3     1  UNL1        0.2379
     46 C           2.1174    1.4694   31.6971 C.3     1  UNL1        0.0934
     47 C           3.0651    2.3105   32.5001 C.3     1  UNL1        0.1498
     48 C           4.1677    3.0609   31.8137 C.3     1  UNL1        0.1718
     49 C           4.3227    2.9702   30.3245 C.3     1  UNL1        0.1473
     50 C           5.4254    3.7206   29.6382 C.3     1  UNL1        0.0348
     51 O           3.3751    2.1292   29.5216 O.3     1  UNL1       -0.3304
     52 O           2.9101    2.4011   33.9892 O.3     1  UNL1       -0.3508
     53 C           2.0357    3.4621   34.5892 C.3     1  UNL1        0.1741
     54 O           5.1154    3.9019   32.6165 O.3     1  UNL1       -0.3279
     55 C           6.1911    3.2485   33.4324 C.3     1  UNL1        0.2377
     56 C           6.3226    1.7542   33.4415 C.3     1  UNL1        0.0934
     57 C           7.3984    1.1009   34.2574 C.3     1  UNL1        0.1494
     58 C           8.3428    1.9417   35.0643 C.3     1  UNL1        0.1647
     59 O           9.4186    1.2883   35.8801 O.3     1  UNL1       -0.3795
     60 C           8.2114    3.4359   35.0552 C.3     1  UNL1        0.1469
     61 C           9.1558    4.2767   35.8621 C.3     1  UNL1        0.0348
     62 O           7.1356    4.0893   34.2394 O.3     1  UNL1       -0.3304
     63 H           9.3643    0.3256   35.7752 H       1  UNL1        0.2105
     64 O           7.5298   -0.3933   34.2664 O.3     1  UNL1       -0.3508
     65 C           8.6415   -1.0531   33.5055 C.3     1  UNL1        0.1741
@<TRIPOS>BOND
     1    42    43    1
     2    43    40    1
     3    40    41    1
     4    40     1    1
     5     1     2    1
     6     2     3    1
     7     3     4    1
     8     4     5    1
     9     5     6    1
    10     6     7    1
    11     3     8    1
    12     9     8    1
    13     9    10    1
    14    10    11    1
    15    11    12    1
    16    12    13    1
    17    13    14    2
    18    14    15    1
    19    14    16    1
    20    16    44    1
    21    45    44    1
    22    45    46    1
    23    46    47    1
    24    47    52    1
    25    52    53    1
    26    47    48    1
    27    48    54    1
    28    55    54    1
    29    55    56    1
    30    56    57    1
    31    57    64    1
    32    64    65    1
    33    57    58    1
    34    58    59    1
    35    58    60    1
    36    60    61    1
    37    60    62    1
    38    48    49    1
    39    49    50    1
    40    49    51    1
    41    16    17    1
    42    17    18    1
    43    17    19    1
    44    19    20    2
    45    20    21    1
    46    21    22    2
    47    22    23    1
    48    23    24    1
    49    25    24    1
    50    25    26    1
    51    26    27    1
    52    26    28    1
    53    28    29    1
    54    28    30    2
    55    31    30    1
    56    31    32    1
    57    32    33    2
    58    32    34    1
    59    31    35    1
    60    35    36    1
    61    11    37    1
    62     6     1    1
    63    34     9    1
    64    37     3    1
    65    51    45    1
    66    35    22    1
    67    62    55    1
    68    35    25    1
    69    59    63    1
    70    27    38    1
    71    36    39    1
@<TRIPOS>MOLECULE
*****
 65 71 0 0 0
SMALL
GASTEIGER

@<TRIPOS>ATOM
      1 C           3.7296    2.5779   36.7513 C.3     1  UNL1        0.1175
      2 O           3.8789    2.3098   35.2830 O.3     1  UNL1       -0.3367
      3 C           4.4644    1.0111   34.8135 C.3     1  UNL1        0.1902
      4 C           4.9005   -0.0196   35.8121 C.3     1  UNL1        0.0564
      5 C           4.7512    0.2485   37.2804 C.3     1  UNL1        0.0074
      6 C           4.1657    1.5472   37.7500 C.3     1  UNL1        0.0275
      7 C           4.0164    1.8152   39.2183 C.3     1  UNL1        0.0025
      8 C           5.0499   -0.2876   34.3439 C.3     1  UNL1        0.0998
      9 C           5.1992   -0.5556   32.8755 C.3     1  UNL1        0.1762
     10 C           4.7630    0.4751   31.8769 C.3     1  UNL1        0.0737
     11 C           4.1775    1.7738   32.3464 C.3     1  UNL1        0.1255
     12 C           3.6347    3.0518   31.2065 C.3     1  UNL1        0.0552
     13 C           3.4311    3.5762   29.8160 C.2     1  UNL1       -0.0298
     14 C           3.4625    3.5756   28.3164 C.2     1  UNL1       -0.0211
     15 C           2.8727    4.9206   28.0109 C.3     1  UNL1        0.0285
     16 C           3.7241    3.0504   26.9359 C.3     1  UNL1        0.1397
     17 C           4.1759    2.0803   25.8848 C.3     1  UNL1        0.0532
     18 C           4.0177    2.4969   24.6104 C.3     1  UNL1        0.0075
     19 C           4.7493    0.8132   25.3231 C.2     1  UNL1       -0.0237
     20 C           5.3570   -0.5582   25.3362 C.2     1  UNL1       -0.0050
     21 C           5.9063   -1.8249   25.9222 C.2     1  UNL1       -0.0041
     22 C           6.3138   -2.7943   26.9919 C.2     1  UNL1        0.0122
     23 C           6.7962   -3.8374   26.0280 C.3     1  UNL1        0.1668
     24 O           7.2979   -5.0063   26.8229 O.3     1  UNL1       -0.3462
     25 C           7.1256   -4.6857   28.2781 C.3     1  UNL1        0.1749
     26 C           7.6652   -5.9377   29.0180 C.3     1  UNL1        0.1582
     27 O           8.2548   -7.2475   28.5858 O.3     1  UNL1       -0.3778
     28 C           7.5005   -5.6345   30.4777 C.2     1  UNL1       -0.0188
     29 C           7.9254   -6.6412   31.5053 C.3     1  UNL1        0.0285
     30 C           6.9109   -4.3248   30.9099 C.2     1  UNL1       -0.0188
     31 C           6.4860   -3.3181   29.8822 C.3     1  UNL1        0.1510
     32 C           6.2244   -2.7928   31.2627 C.2     1  UNL1        0.3232
     33 O           6.7122   -3.9327   32.1068 O.2     1  UNL1       -0.2497
     34 O           5.7726   -1.8228   32.3138 O.3     1  UNL1       -0.4517
     35 C           6.5174   -3.3186   28.3825 C.3     1  UNL1        0.1467
     36 O           6.9423   -4.3253   29.4103 O.3     1  UNL1       -0.3795
     37 O           4.0282    2.0418   33.8147 O.3     1  UNL1       -0.3362
     38 H           8.4735   -7.7775   29.3682 H       1  UNL1        0.2109
     39 H           6.7683   -3.9744   30.2977 H       1  UNL1        0.2108
     40 C           3.1441    3.8766   37.2209 C.3     1  UNL1        0.0273
     41 C           1.6586    4.0180   37.3736 C.3     1  UNL1        0.0025
     42 C           4.1477    5.5399   38.9460 C.3     1  UNL1        0.0001
     43 C           4.0441    5.0340   37.5377 C.3     1  UNL1        0.0024
     44 O           3.2362    4.1904   26.0918 O.3     1  UNL1       -0.3284
     45 C           1.7673    4.3635   25.8417 C.3     1  UNL1        0.2379
     46 C           1.2688    5.5732   25.1084 C.3     1  UNL1        0.0934
     47 C          -0.2001    5.7463   24.8584 C.3     1  UNL1        0.1498
     48 C          -1.1704    4.7095   25.3417 C.3     1  UNL1        0.1718
     49 C          -0.6718    3.4997   26.0751 C.3     1  UNL1        0.1473
     50 C          -1.6421    2.4629   26.5584 C.3     1  UNL1        0.0348
     51 O           0.7970    3.3266   26.3251 O.3     1  UNL1       -0.3304
     52 O          -0.6987    6.9560   24.1250 O.3     1  UNL1       -0.3508
     53 C          -0.5118    7.0632   22.6406 C.3     1  UNL1        0.1741
     54 O          -2.6392    4.8825   25.0917 O.3     1  UNL1       -0.3279
     55 C          -3.2468    4.3819   23.8149 C.3     1  UNL1        0.2377
     56 C          -2.3849    3.7111   22.7867 C.3     1  UNL1        0.0934
     57 C          -2.9925    3.2105   21.5099 C.3     1  UNL1        0.1494
     58 C          -4.4619    3.3808   21.2612 C.3     1  UNL1        0.1647
     59 O          -5.0695    2.8803   19.9844 O.3     1  UNL1       -0.3795
     60 C          -5.3237    4.0516   22.2894 C.3     1  UNL1        0.1469
     61 C          -6.7932    4.2219   22.0408 C.3     1  UNL1        0.0348
     62 O          -4.7162    4.5522   23.5662 O.3     1  UNL1       -0.3304
     63 H          -4.3798    2.4763   19.4348 H       1  UNL1        0.2105
     64 O          -2.1307    2.5397   20.4817 O.3     1  UNL1       -0.3508
     65 C          -0.6461    2.4622   20.6824 C.3     1  UNL1        0.1741
@<TRIPOS>BOND
     1    42    43    1
     2    43    40    1
     3    40    41    1
     4    40     1    1
     5     1     2    1
     6     2     3    1
     7     3     4    1
     8     4     5    1
     9     5     6    1
    10     6     7    1
    11     3     8    1
    12     9     8    1
    13     9    10    1
    14    10    11    1
    15    11    12    1
    16    12    13    1
    17    13    14    2
    18    14    15    1
    19    14    16    1
    20    16    44    1
    21    45    44    1
    22    45    46    1
    23    46    47    1
    24    47    52    1
    25    52    53    1
    26    47    48    1
    27    48    54    1
    28    55    54    1
    29    55    56    1
    30    56    57    1
    31    57    64    1
    32    64    65    1
    33    57    58    1
    34    58    59    1
    35    58    60    1
    36    60    61    1
    37    60    62    1
    38    48    49    1
    39    49    50    1
    40    49    51    1
    41    16    17    1
    42    17    18    1
    43    17    19    1
    44    19    20    2
    45    20    21    1
    46    21    22    2
    47    22    23    1
    48    23    24    1
    49    25    24    1
    50    25    26    1
    51    26    27    1
    52    26    28    1
    53    28    29    1
    54    28    30    2
    55    31    30    1
    56    31    32    1
    57    32    33    2
    58    32    34    1
    59    31    35    1
    60    35    36    1
    61    11    37    1
    62     6     1    1
    63    34     9    1
    64    37     3    1
    65    51    45    1
    66    35    22    1
    67    62    55    1
    68    35    25    1
    69    59    63    1
    70    27    38    1
    71    36    39    1
@<TRIPOS>MOLECULE
*****
 65 71 0 0 0
SMALL
GASTEIGER

@<TRIPOS>ATOM
      1 C           7.4934   -4.3246   23.0147 C.3     1  UNL1        0.1175
      2 O           6.4694   -3.4493   23.6744 O.3     1  UNL1       -0.3367
      3 C           5.5499   -2.6095   22.8382 C.3     1  UNL1        0.1902
      4 C           5.6544   -2.6450   21.3423 C.3     1  UNL1        0.0564
      5 C           6.6784   -3.5203   20.6826 C.3     1  UNL1        0.0074
      6 C           7.5979   -4.3601   21.5188 C.3     1  UNL1        0.0275
      7 C           8.6220   -5.2354   20.8591 C.3     1  UNL1        0.0025
      8 C           4.6304   -1.7697   22.0020 C.3     1  UNL1        0.0998
      9 C           3.6063   -0.8944   22.6618 C.3     1  UNL1        0.1762
     10 C           3.5018   -0.8589   24.1577 C.3     1  UNL1        0.0737
     11 C           4.4213   -1.6987   24.9939 C.3     1  UNL1        0.1255
     12 C           4.3516   -1.7051   26.7890 C.3     1  UNL1        0.0552
     13 C           3.7616   -1.2353   28.0856 C.2     1  UNL1       -0.0298
     14 C           2.8491   -0.4674   28.9953 C.2     1  UNL1       -0.0211
     15 C           3.3196   -0.9318   30.3418 C.3     1  UNL1        0.0285
     16 C           1.7529    0.4816   29.3797 C.3     1  UNL1        0.1397
     17 C           0.6400    1.4674   29.1801 C.3     1  UNL1        0.0532
     18 C           0.0681    1.9274   30.3132 C.3     1  UNL1        0.0075
     19 C          -0.3201    2.3398   28.4271 C.2     1  UNL1       -0.0237
     20 C          -0.9814    2.9660   27.2352 C.2     1  UNL1       -0.0050
     21 C          -1.2431    3.2506   25.7860 C.2     1  UNL1       -0.0041
     22 C          -1.0655    3.1505   24.2999 C.2     1  UNL1        0.0122
     23 C          -2.1609    4.1253   23.9844 C.3     1  UNL1        0.1668
     24 O          -2.2479    4.2579   22.4928 O.3     1  UNL1       -0.3462
     25 C          -1.2062    3.3651   21.8864 C.3     1  UNL1        0.1749
     26 C          -1.3671    3.5642   20.3565 C.3     1  UNL1        0.1582
     27 O          -2.2693    4.3900   19.4880 O.3     1  UNL1       -0.3778
     28 C          -0.3311    2.6771   19.7323 C.2     1  UNL1       -0.0188
     29 C          -0.1973    2.6157   18.2396 C.3     1  UNL1        0.0285
     30 C           0.5710    1.8513   20.6007 C.2     1  UNL1       -0.0188
     31 C           0.4372    1.9128   22.0936 C.3     1  UNL1        0.1510
     32 C           1.5333    0.9637   21.7092 C.2     1  UNL1        0.3232
     33 O           1.4905    1.0577   20.2128 O.2     1  UNL1       -0.2497
     34 O           2.6462   -0.0220   21.9087 O.3     1  UNL1       -0.4517
     35 C          -0.4754    2.6807   23.0033 C.3     1  UNL1        0.1467
     36 O          -0.3415    2.6192   21.5105 O.3     1  UNL1       -0.3795
     37 O           5.4454   -2.5740   24.3342 O.3     1  UNL1       -0.3362
     38 H          -2.0520    4.2341   18.5556 H       1  UNL1        0.2109
     39 H           0.3696    2.0030   21.2747 H       1  UNL1        0.2108
     40 C           8.4130   -5.1644   23.8510 C.3     1  UNL1        0.0273
     41 C           9.5360   -4.5201   24.6084 C.3     1  UNL1        0.0025
     42 C           9.1933   -7.5019   24.6737 C.3     1  UNL1        0.0001
     43 C           8.2094   -6.6484   23.9298 C.3     1  UNL1        0.0024
     44 O           1.7958    0.3876   30.8761 O.3     1  UNL1       -0.3284
     45 C           2.6506    1.3365   31.6630 C.3     1  UNL1        0.2379
     46 C           2.8510    1.1217   33.1339 C.3     1  UNL1        0.0934
     47 C           3.7057    2.0706   33.9208 C.3     1  UNL1        0.1498
     48 C           4.3600    3.2342   33.2366 C.3     1  UNL1        0.1718
     49 C           4.1596    3.4488   31.7657 C.3     1  UNL1        0.1473
     50 C           4.8139    4.6124   31.0815 C.3     1  UNL1        0.0348
     51 O           3.3049    2.5000   30.9788 O.3     1  UNL1       -0.3304
     52 O           3.9062    1.8559   35.3917 O.3     1  UNL1       -0.3508
     53 C           2.7886    2.1415   36.3506 C.3     1  UNL1        0.1741
     54 O           5.2147    4.1830   34.0234 O.3     1  UNL1       -0.3279
     55 C           4.5929    5.0650   35.0652 C.3     1  UNL1        0.2377
     56 C           3.2634    5.7095   34.8059 C.3     1  UNL1        0.0934
     57 C           2.6415    6.5915   35.8476 C.3     1  UNL1        0.1494
     58 C           3.3491    6.8290   37.1488 C.3     1  UNL1        0.1647
     59 O           2.7272    7.7110   38.1905 O.3     1  UNL1       -0.3795
     60 C           4.6785    6.1845   37.4081 C.3     1  UNL1        0.1469
     61 C           5.3860    6.4220   38.7093 C.3     1  UNL1        0.0348
     62 O           5.3004    5.3025   36.3664 O.3     1  UNL1       -0.3304
     63 H           1.8762    8.0444   37.8658 H       1  UNL1        0.2105
     64 O           1.3122    7.2360   35.5883 O.3     1  UNL1       -0.3508
     65 C           0.1933    6.4340   34.9924 C.3     1  UNL1        0.1741
@<TRIPOS>BOND
     1    42    43    1
     2    43    40    1
     3    40    41    1
     4    40     1    1
     5     1     2    1
     6     2     3    1
     7     3     4    1
     8     4     5    1
     9     5     6    1
    10     6     7    1
    11     3     8    1
    12     9     8    1
    13     9    10    1
    14    10    11    1
    15    11    12    1
    16    12    13    1
    17    13    14    2
    18    14    15    1
    19    14    16    1
    20    16    44    1
    21    45    44    1
    22    45    46    1
    23    46    47    1
    24    47    52    1
    25    52    53    1
    26    47    48    1
    27    48    54    1
    28    55    54    1
    29    55    56    1
    30    56    57    1
    31    57    64    1
    32    64    65    1
    33    57    58    1
    34    58    59    1
    35    58    60    1
    36    60    61    1
    37    60    62    1
    38    48    49    1
    39    49    50    1
    40    49    51    1
    41    16    17    1
    42    17    18    1
    43    17    19    1
    44    19    20    2
    45    20    21    1
    46    21    22    2
    47    22    23    1
    48    23    24    1
    49    25    24    1
    50    25    26    1
    51    26    27    1
    52    26    28    1
    53    28    29    1
    54    28    30    2
    55    31    30    1
    56    31    32    1
    57    32    33    2
    58    32    34    1
    59    31    35    1
    60    35    36    1
    61    11    37    1
    62     6     1    1
    63    34     9    1
    64    37     3    1
    65    51    45    1
    66    35    22    1
    67    62    55    1
    68    35    25    1
    69    59    63    1
    70    27    38    1
    71    36    39    1
