@<TRIPOS>MOLECULE
*****
 30 32 0 0 0
SMALL
GASTEIGER

@<TRIPOS>ATOM
      1 C          -5.6795  -17.5927   22.9278 C.ar    1  UNL1        0.0942
      2 C          -5.9179  -16.4678   23.8911 C.ar    1  UNL1        0.1078
      3 N          -7.3164  -16.1214   24.3084 N.ar    1  UNL1       -0.2119
      4 C          -8.4766  -16.8998   23.7624 C.ar    1  UNL1        0.2206
      5 N          -8.2382  -18.0247   22.7991 N.ar    1  UNL1       -0.2094
      6 C          -6.8396  -18.3711   22.3819 C.ar    1  UNL1        0.1613
      7 O          -3.2625  -16.8534   22.3268 O.2     1  UNL1       -0.2700
      8 C          -4.2810  -17.9391   22.5105 C.2     1  UNL1        0.2490
      9 N          -3.9011  -19.3714   22.2770 N.am    1  UNL1       -0.2968
     10 H          -4.5696  -20.0839   22.3976 H       1  UNL1        0.1501
     11 C          -2.5026  -19.7178   21.8597 C.3     1  UNL1        0.1167
     12 C          -1.8833  -19.0379   20.6747 C.ar    1  UNL1        0.0005
     13 C          -0.4741  -18.5300   20.7532 C.ar    1  UNL1        0.0181
     14 C           0.1451  -17.8501   19.5682 C.ar    1  UNL1        0.0986
     15 N          -0.6448  -17.6781   18.3047 N.ar    1  UNL1       -0.2423
     16 C          -2.0540  -18.1860   18.2262 C.ar    1  UNL1        0.0986
     17 C          -2.6732  -18.8659   19.4112 C.ar    1  UNL1        0.0181
     18 C          -6.6013  -19.4960   21.4186 C.3     1  UNL1        0.4351
     19 F          -6.3629  -20.6208   20.4553 F       1  UNL1       -0.1644
     20 F          -6.4206  -18.5055   20.3067 F       1  UNL1       -0.1644
     21 F          -6.7820  -20.4864   22.5305 F       1  UNL1       -0.1644
     22 N          -9.8751  -16.5534   24.1797 N.pl3   1  UNL1       -0.2825
     23 H         -10.0378  -16.1333   25.0551 H       1  UNL1        0.1551
     24 C         -11.0257  -16.8469   23.2632 C.ar    1  UNL1        0.0513
     25 C         -12.1176  -17.7759   23.7041 C.ar    1  UNL1        0.0147
     26 C         -13.2683  -18.0694   22.7876 C.ar    1  UNL1        0.0021
     27 C         -13.3269  -17.4339   21.4302 C.ar    1  UNL1        0.0115
     28 C         -12.2350  -16.5048   20.9893 C.ar    1  UNL1        0.0589
     29 CL        -12.2936  -15.8692   19.6318 Cl      1  UNL1       -0.0822
     30 C         -11.0843  -16.2113   21.9058 C.ar    1  UNL1        0.0261
@<TRIPOS>BOND
     1     7     8    2
     2     8     9   am
     3     9    11    1
     4    11    12    1
     5    12    13   ar
     6    13    14   ar
     7    14    15   ar
     8    15    16   ar
     9    16    17   ar
    10     8     1    1
    11     1     2   ar
    12     2     3   ar
    13     3     4   ar
    14     4    22    1
    15    22    24    1
    16    24    25   ar
    17    25    26   ar
    18    26    27   ar
    19    27    28   ar
    20    28    29    1
    21    28    30   ar
    22     4     5   ar
    23     5     6   ar
    24     6    18    1
    25    18    19    1
    26    18    20    1
    27    18    21    1
    28    17    12   ar
    29     6     1   ar
    30    30    24   ar
    31     9    10    1
    32    22    23    1
@<TRIPOS>MOLECULE
*****
 30 32 0 0 0
SMALL
GASTEIGER

@<TRIPOS>ATOM
      1 C           6.1529   -2.4621   19.3136 C.ar    1  UNL1        0.0942
      2 C           7.5544   -2.0164   19.6089 C.ar    1  UNL1        0.1078
      3 N           8.4871   -2.9213   20.3581 N.ar    1  UNL1       -0.2119
      4 C           8.0182   -4.2720   20.8120 C.ar    1  UNL1        0.2206
      5 N           6.6167   -4.7177   20.5167 N.ar    1  UNL1       -0.2094
      6 C           5.6841   -3.8127   19.7675 C.ar    1  UNL1        0.1613
      7 O           4.9624   -1.7881   17.1050 O.2     1  UNL1       -0.2700
      8 C           5.2203   -1.5572   18.5645 C.2     1  UNL1        0.2490
      9 N           4.5454   -0.4214   19.2749 N.am    1  UNL1       -0.2968
     10 H           4.7147   -0.2699   20.2328 H       1  UNL1        0.1501
     11 C           3.6128    0.4835   18.5257 C.3     1  UNL1        0.1167
     12 C           2.2671    0.8150   19.0997 C.ar    1  UNL1        0.0005
     13 C           1.5828   -0.1555   20.0160 C.ar    1  UNL1        0.0181
     14 C           0.2372    0.1760   20.5899 C.ar    1  UNL1        0.0986
     15 N          -0.4241    1.4781   20.2475 N.ar    1  UNL1       -0.2423
     16 C           0.2602    2.4487   19.3312 C.ar    1  UNL1        0.0986
     17 C           1.6058    2.1171   18.7573 C.ar    1  UNL1        0.0181
     18 C           4.2826   -4.2584   19.4723 C.3     1  UNL1        0.4351
     19 F           2.8811   -4.7041   19.1770 F       1  UNL1       -0.1644
     20 F           4.7762   -5.0189   18.2773 F       1  UNL1       -0.1644
     21 F           3.7890   -3.4979   20.6672 F       1  UNL1       -0.1644
     22 N           8.9509   -5.1769   21.5611 N.pl3   1  UNL1       -0.2825
     23 H           9.8232   -5.4158   21.1722 H       1  UNL1        0.1551
     24 C           8.5546   -5.7178   22.9029 C.ar    1  UNL1        0.0513
     25 C           8.8677   -7.1405   23.2603 C.ar    1  UNL1        0.0147
     26 C           8.4714   -7.6814   24.6021 C.ar    1  UNL1        0.0021
     27 C           7.7619   -6.7996   25.5865 C.ar    1  UNL1        0.0115
     28 C           7.4488   -5.3768   25.2291 C.ar    1  UNL1        0.0589
     29 CL          6.7393   -4.4949   26.2134 Cl      1  UNL1       -0.0822
     30 C           7.8451   -4.8360   23.8873 C.ar    1  UNL1        0.0261
@<TRIPOS>BOND
     1     7     8    2
     2     8     9   am
     3     9    11    1
     4    11    12    1
     5    12    13   ar
     6    13    14   ar
     7    14    15   ar
     8    15    16   ar
     9    16    17   ar
    10     8     1    1
    11     1     2   ar
    12     2     3   ar
    13     3     4   ar
    14     4    22    1
    15    22    24    1
    16    24    25   ar
    17    25    26   ar
    18    26    27   ar
    19    27    28   ar
    20    28    29    1
    21    28    30   ar
    22     4     5   ar
    23     5     6   ar
    24     6    18    1
    25    18    19    1
    26    18    20    1
    27    18    21    1
    28    17    12   ar
    29     6     1   ar
    30    30    24   ar
    31     9    10    1
    32    22    23    1
@<TRIPOS>MOLECULE
*****
 30 32 0 0 0
SMALL
GASTEIGER

@<TRIPOS>ATOM
      1 C           6.9130   -2.3409   19.5129 C.ar    1  UNL1        0.0942
      2 C           8.3394   -2.2895   19.9744 C.ar    1  UNL1        0.1078
      3 N           8.8769   -3.3654   20.8708 N.ar    1  UNL1       -0.2119
      4 C           7.9880   -4.4927   21.3058 C.ar    1  UNL1        0.2206
      5 N           6.5617   -4.5441   20.8443 N.ar    1  UNL1       -0.2094
      6 C           6.0242   -3.4682   19.9478 C.ar    1  UNL1        0.1613
      7 O           6.4736   -1.4115   17.1270 O.2     1  UNL1       -0.2700
      8 C           6.3755   -1.2650   18.6166 C.2     1  UNL1        0.2490
      9 N           5.7399   -0.0426   19.2098 N.am    1  UNL1       -0.2968
     10 H           5.6755    0.0535   20.1875 H       1  UNL1        0.1501
     11 C           5.2024    1.0332   18.3134 C.3     1  UNL1        0.1167
     12 C           3.7447    1.3847   18.3543 C.ar    1  UNL1        0.0005
     13 C           3.3211    2.8227   18.4052 C.ar    1  UNL1        0.0181
     14 C           1.8634    3.1741   18.4460 C.ar    1  UNL1        0.0986
     15 N           0.8294    2.0875   18.4360 N.ar    1  UNL1       -0.2423
     16 C           1.2530    0.6495   18.3851 C.ar    1  UNL1        0.0986
     17 C           2.7107    0.2981   18.3442 C.ar    1  UNL1        0.0181
     18 C           4.5979   -3.5196   19.4863 C.3     1  UNL1        0.4351
     19 F           3.1716   -3.5710   19.0249 F       1  UNL1       -0.1644
     20 F           5.0108   -4.3422   18.3019 F       1  UNL1       -0.1644
     21 F           4.1850   -2.6970   20.6707 F       1  UNL1       -0.1644
     22 N           8.5255   -5.5686   22.2021 N.pl3   1  UNL1       -0.2825
     23 H           9.2128   -6.1896   21.8684 H       1  UNL1        0.1551
     24 C           8.0160   -5.6984   23.6070 C.ar    1  UNL1        0.0513
     25 C           7.3445   -4.5335   24.2718 C.ar    1  UNL1        0.0147
     26 C           6.8349   -4.6633   25.6766 C.ar    1  UNL1        0.0021
     27 C           6.9969   -5.9580   26.4166 C.ar    1  UNL1        0.0115
     28 C           7.6683   -7.1229   25.7517 C.ar    1  UNL1        0.0589
     29 CL          7.8303   -8.4176   26.4916 Cl      1  UNL1       -0.0822
     30 C           8.1779   -6.9931   24.3469 C.ar    1  UNL1        0.0261
@<TRIPOS>BOND
     1     7     8    2
     2     8     9   am
     3     9    11    1
     4    11    12    1
     5    12    13   ar
     6    13    14   ar
     7    14    15   ar
     8    15    16   ar
     9    16    17   ar
    10     8     1    1
    11     1     2   ar
    12     2     3   ar
    13     3     4   ar
    14     4    22    1
    15    22    24    1
    16    24    25   ar
    17    25    26   ar
    18    26    27   ar
    19    27    28   ar
    20    28    29    1
    21    28    30   ar
    22     4     5   ar
    23     5     6   ar
    24     6    18    1
    25    18    19    1
    26    18    20    1
    27    18    21    1
    28    17    12   ar
    29     6     1   ar
    30    30    24   ar
    31     9    10    1
    32    22    23    1
@<TRIPOS>MOLECULE
*****
 30 32 0 0 0
SMALL
GASTEIGER

@<TRIPOS>ATOM
      1 C         -12.9352   -4.9574   17.7986 C.ar    1  UNL1        0.0942
      2 C         -12.4743   -6.2155   17.1243 C.ar    1  UNL1        0.1078
      3 N         -12.9948   -7.5457   17.5820 N.ar    1  UNL1       -0.2119
      4 C         -13.9763   -7.6179   18.7141 C.ar    1  UNL1        0.2206
      5 N         -14.4372   -6.3598   19.3884 N.ar    1  UNL1       -0.2094
      6 C         -13.9166   -5.0295   18.9306 C.ar    1  UNL1        0.1613
      7 O         -12.7794   -3.1062   15.9824 O.2     1  UNL1       -0.2700
      8 C         -12.4147   -3.6272   17.3409 C.2     1  UNL1        0.2490
      9 N         -11.5294   -2.8179   18.2417 N.am    1  UNL1       -0.2968
     10 H         -11.2900   -3.1598   19.1334 H       1  UNL1        0.1501
     11 C         -11.0089   -1.4877   17.7840 C.3     1  UNL1        0.1167
     12 C         -11.9202   -0.2966   17.7514 C.ar    1  UNL1        0.0005
     13 C         -11.5964    0.8715   16.8678 C.ar    1  UNL1        0.0181
     14 C         -12.5076    2.0625   16.8353 C.ar    1  UNL1        0.0986
     15 N         -13.7426    2.0855   17.6862 N.ar    1  UNL1       -0.2423
     16 C         -14.0664    0.9174   18.5698 C.ar    1  UNL1        0.0986
     17 C         -13.1552   -0.2736   18.6024 C.ar    1  UNL1        0.0181
     18 C         -14.3776   -3.7714   19.6050 C.3     1  UNL1        0.4351
     19 F         -14.8385   -2.5133   20.2793 F       1  UNL1       -0.1644
     20 F         -13.3713   -3.9876   20.6962 F       1  UNL1       -0.1644
     21 F         -15.3838   -3.5552   18.5137 F       1  UNL1       -0.1644
     22 N         -14.4968   -8.9481   19.1718 N.pl3   1  UNL1       -0.2825
     23 H         -13.8741   -9.6278   19.5175 H       1  UNL1        0.1551
     24 C         -15.9659   -9.2427   19.1027 C.ar    1  UNL1        0.0513
     25 C         -16.4688  -10.3467   18.2204 C.ar    1  UNL1        0.0147
     26 C         -17.9379  -10.6413   18.1513 C.ar    1  UNL1        0.0021
     27 C         -18.9042   -9.8320   18.9644 C.ar    1  UNL1        0.0115
     28 C         -18.4014   -8.7281   19.8467 C.ar    1  UNL1        0.0589
     29 CL        -19.3677   -7.9187   20.6599 Cl      1  UNL1       -0.0822
     30 C         -16.9322   -8.4334   19.9158 C.ar    1  UNL1        0.0261
@<TRIPOS>BOND
     1     7     8    2
     2     8     9   am
     3     9    11    1
     4    11    12    1
     5    12    13   ar
     6    13    14   ar
     7    14    15   ar
     8    15    16   ar
     9    16    17   ar
    10     8     1    1
    11     1     2   ar
    12     2     3   ar
    13     3     4   ar
    14     4    22    1
    15    22    24    1
    16    24    25   ar
    17    25    26   ar
    18    26    27   ar
    19    27    28   ar
    20    28    29    1
    21    28    30   ar
    22     4     5   ar
    23     5     6   ar
    24     6    18    1
    25    18    19    1
    26    18    20    1
    27    18    21    1
    28    17    12   ar
    29     6     1   ar
    30    30    24   ar
    31     9    10    1
    32    22    23    1
@<TRIPOS>MOLECULE
*****
 30 32 0 0 0
SMALL
GASTEIGER

@<TRIPOS>ATOM
      1 C           4.9697   -2.1308   20.7951 C.ar    1  UNL1        0.0942
      2 C           5.6322   -1.3335   21.8792 C.ar    1  UNL1        0.1078
      3 N           6.7197   -1.9516   22.7070 N.ar    1  UNL1       -0.2119
      4 C           7.1448   -3.3671   22.4505 C.ar    1  UNL1        0.2206
      5 N           6.4823   -4.1644   21.3664 N.ar    1  UNL1       -0.2094
      6 C           5.3947   -3.5462   20.5386 C.ar    1  UNL1        0.1613
      7 O           2.4588   -1.5676   20.4374 O.2     1  UNL1       -0.2700
      8 C           3.8822   -1.5127   19.9674 C.2     1  UNL1        0.2490
      9 N           4.2180   -0.8395   18.6696 N.am    1  UNL1       -0.2968
     10 H           5.1522   -0.8035   18.3611 H       1  UNL1        0.1501
     11 C           3.1305   -0.2214   17.8419 C.3     1  UNL1        0.1167
     12 C           2.5178    1.0820   18.2611 C.ar    1  UNL1        0.0005
     13 C           3.3920    2.2737   18.5174 C.ar    1  UNL1        0.0181
     14 C           2.7793    3.5770   18.9366 C.ar    1  UNL1        0.0986
     15 N           1.2923    3.6887   19.0995 N.ar    1  UNL1       -0.2423
     16 C           0.4181    2.4971   18.8432 C.ar    1  UNL1        0.0986
     17 C           1.0308    1.1938   18.4240 C.ar    1  UNL1        0.0181
     18 C           4.7323   -4.3436   19.4545 C.3     1  UNL1        0.4351
     19 F           4.0698   -5.1409   18.3703 F       1  UNL1       -0.1644
     20 F           5.6838   -3.7665   18.4487 F       1  UNL1       -0.1644
     21 F           3.7808   -4.9206   20.4603 F       1  UNL1       -0.1644
     22 N           8.2323   -3.9852   23.2782 N.pl3   1  UNL1       -0.2825
     23 H           9.1607   -3.6711   23.1851 H       1  UNL1        0.1551
     24 C           7.9054   -5.0819   24.2480 C.ar    1  UNL1        0.0513
     25 C           8.3114   -6.4943   23.9477 C.ar    1  UNL1        0.0147
     26 C           7.9845   -7.5910   24.9174 C.ar    1  UNL1        0.0021
     27 C           7.2515   -7.2753   26.1874 C.ar    1  UNL1        0.0115
     28 C           6.8455   -5.8629   26.4877 C.ar    1  UNL1        0.0589
     29 CL          6.1125   -5.5472   27.7578 Cl      1  UNL1       -0.0822
     30 C           7.1724   -4.7662   25.5180 C.ar    1  UNL1        0.0261
@<TRIPOS>BOND
     1     7     8    2
     2     8     9   am
     3     9    11    1
     4    11    12    1
     5    12    13   ar
     6    13    14   ar
     7    14    15   ar
     8    15    16   ar
     9    16    17   ar
    10     8     1    1
    11     1     2   ar
    12     2     3   ar
    13     3     4   ar
    14     4    22    1
    15    22    24    1
    16    24    25   ar
    17    25    26   ar
    18    26    27   ar
    19    27    28   ar
    20    28    29    1
    21    28    30   ar
    22     4     5   ar
    23     5     6   ar
    24     6    18    1
    25    18    19    1
    26    18    20    1
    27    18    21    1
    28    17    12   ar
    29     6     1   ar
    30    30    24   ar
    31     9    10    1
    32    22    23    1
@<TRIPOS>MOLECULE
*****
 30 32 0 0 0
SMALL
GASTEIGER

@<TRIPOS>ATOM
      1 C          -5.9152  -17.1338   23.4516 C.ar    1  UNL1        0.0942
      2 C          -6.8307  -18.0394   22.6823 C.ar    1  UNL1        0.1078
      3 N          -8.2801  -18.1342   23.0565 N.ar    1  UNL1       -0.2119
      4 C          -8.8142  -17.3233   24.1999 C.ar    1  UNL1        0.2206
      5 N          -7.8987  -16.4177   24.9692 N.ar    1  UNL1       -0.2094
      6 C          -6.4491  -16.3230   24.5950 C.ar    1  UNL1        0.1613
      7 O          -3.8699  -15.7111   22.7151 O.2     1  UNL1       -0.2700
      8 C          -4.4657  -17.0391   23.0775 C.2     1  UNL1        0.2490
      9 N          -3.6119  -18.2724   23.0658 N.am    1  UNL1       -0.2968
     10 H          -4.0030  -19.1441   23.3036 H       1  UNL1        0.1501
     11 C          -2.1625  -18.1777   22.6916 C.3     1  UNL1        0.1167
     12 C          -1.7632  -18.1162   21.2470 C.ar    1  UNL1        0.0005
     13 C          -0.4018  -17.6151   20.8659 C.ar    1  UNL1        0.0181
     14 C          -0.0026  -17.5536   19.4213 C.ar    1  UNL1        0.0986
     15 N          -0.9648  -17.9932   18.3579 N.ar    1  UNL1       -0.2423
     16 C          -2.3262  -18.4944   18.7391 C.ar    1  UNL1        0.0986
     17 C          -2.7254  -18.5559   20.1836 C.ar    1  UNL1        0.0181
     18 C          -5.5336  -15.4174   25.3643 C.3     1  UNL1        0.4351
     19 F          -4.6181  -14.5118   26.1335 F       1  UNL1       -0.1644
     20 F          -6.0850  -14.2334   24.6266 F       1  UNL1       -0.1644
     21 F          -4.9822  -16.6014   26.1019 F       1  UNL1       -0.1644
     22 N         -10.2637  -17.4180   24.5740 N.pl3   1  UNL1       -0.2825
     23 H         -10.5249  -17.4732   25.5216 H       1  UNL1        0.1551
     24 C         -11.3152  -17.4287   23.5044 C.ar    1  UNL1        0.0513
     25 C         -12.5904  -18.1902   23.7139 C.ar    1  UNL1        0.0147
     26 C         -13.6420  -18.2009   22.6442 C.ar    1  UNL1        0.0021
     27 C         -13.4182  -17.4501   21.3651 C.ar    1  UNL1        0.0115
     28 C         -12.1430  -16.6887   21.1555 C.ar    1  UNL1        0.0589
     29 CL        -11.9192  -15.9379   19.8763 Cl      1  UNL1       -0.0822
     30 C         -11.0915  -16.6780   22.2252 C.ar    1  UNL1        0.0261
@<TRIPOS>BOND
     1     7     8    2
     2     8     9   am
     3     9    11    1
     4    11    12    1
     5    12    13   ar
     6    13    14   ar
     7    14    15   ar
     8    15    16   ar
     9    16    17   ar
    10     8     1    1
    11     1     2   ar
    12     2     3   ar
    13     3     4   ar
    14     4    22    1
    15    22    24    1
    16    24    25   ar
    17    25    26   ar
    18    26    27   ar
    19    27    28   ar
    20    28    29    1
    21    28    30   ar
    22     4     5   ar
    23     5     6   ar
    24     6    18    1
    25    18    19    1
    26    18    20    1
    27    18    21    1
    28    17    12   ar
    29     6     1   ar
    30    30    24   ar
    31     9    10    1
    32    22    23    1
@<TRIPOS>MOLECULE
*****
 30 32 0 0 0
SMALL
GASTEIGER

@<TRIPOS>ATOM
      1 C          -6.6264  -19.2717   20.2210 C.ar    1  UNL1        0.0942
      2 C          -7.4358  -19.9808   19.1761 C.ar    1  UNL1        0.1078
      3 N          -8.9310  -20.0249   19.2876 N.ar    1  UNL1       -0.2119
      4 C          -9.6168  -19.3598   20.4442 C.ar    1  UNL1        0.2206
      5 N          -8.8073  -18.6507   21.4891 N.ar    1  UNL1       -0.2094
      6 C          -7.3120  -18.6066   21.3775 C.ar    1  UNL1        0.1613
      7 O          -4.4776  -18.2607   19.1672 O.2     1  UNL1       -0.2700
      8 C          -5.1312  -19.2276   20.1095 C.2     1  UNL1        0.2490
      9 N          -4.2896  -20.1505   20.9402 N.am    1  UNL1       -0.2968
     10 H          -4.7185  -20.7851   21.5587 H       1  UNL1        0.1501
     11 C          -2.7944  -20.1064   20.8287 C.3     1  UNL1        0.1167
     12 C          -2.0811  -18.7867   20.8251 C.ar    1  UNL1        0.0005
     13 C          -2.5118  -17.6989   21.7637 C.ar    1  UNL1        0.0181
     14 C          -1.7985  -16.3794   21.7601 C.ar    1  UNL1        0.0986
     15 N          -0.6546  -16.1477   20.8179 N.ar    1  UNL1       -0.2423
     16 C          -0.2239  -17.2355   19.8793 C.ar    1  UNL1        0.0986
     17 C          -0.9372  -18.5551   19.8829 C.ar    1  UNL1        0.0181
     18 C          -6.5026  -17.8975   22.4224 C.3     1  UNL1        0.4351
     19 F          -5.6931  -17.1883   23.4673 F       1  UNL1       -0.1644
     20 F          -5.8070  -19.1837   22.7565 F       1  UNL1       -0.1644
     21 F          -7.1982  -16.6112   22.0883 F       1  UNL1       -0.1644
     22 N         -11.1119  -19.4039   20.5557 N.pl3   1  UNL1       -0.2825
     23 H         -11.6220  -20.0897   20.0670 H       1  UNL1        0.1551
     24 C         -11.8300  -18.4032   21.4119 C.ar    1  UNL1        0.0513
     25 C         -11.8781  -16.9616   21.0005 C.ar    1  UNL1        0.0147
     26 C         -12.5961  -15.9609   21.8566 C.ar    1  UNL1        0.0021
     27 C         -13.2661  -16.4018   23.1241 C.ar    1  UNL1        0.0115
     28 C         -13.2180  -17.8435   23.5355 C.ar    1  UNL1        0.0589
     29 CL        -13.8881  -18.2845   24.8031 Cl      1  UNL1       -0.0822
     30 C         -12.5000  -18.8442   22.6794 C.ar    1  UNL1        0.0261
@<TRIPOS>BOND
     1     7     8    2
     2     8     9   am
     3     9    11    1
     4    11    12    1
     5    12    13   ar
     6    13    14   ar
     7    14    15   ar
     8    15    16   ar
     9    16    17   ar
    10     8     1    1
    11     1     2   ar
    12     2     3   ar
    13     3     4   ar
    14     4    22    1
    15    22    24    1
    16    24    25   ar
    17    25    26   ar
    18    26    27   ar
    19    27    28   ar
    20    28    29    1
    21    28    30   ar
    22     4     5   ar
    23     5     6   ar
    24     6    18    1
    25    18    19    1
    26    18    20    1
    27    18    21    1
    28    17    12   ar
    29     6     1   ar
    30    30    24   ar
    31     9    10    1
    32    22    23    1
@<TRIPOS>MOLECULE
*****
 30 32 0 0 0
SMALL
GASTEIGER

@<TRIPOS>ATOM
      1 C           4.8008   -2.5430   20.9387 C.ar    1  UNL1        0.0942
      2 C           4.3436   -1.3285   21.6911 C.ar    1  UNL1        0.1078
      3 N           3.0627   -0.6478   21.3093 N.ar    1  UNL1       -0.2119
      4 C           2.2389   -1.1815   20.1750 C.ar    1  UNL1        0.2206
      5 N           2.6960   -2.3960   19.4226 N.ar    1  UNL1       -0.2094
      6 C           3.9770   -3.0767   19.8045 C.ar    1  UNL1        0.1613
      7 O           7.2658   -3.1636   20.4017 O.2     1  UNL1       -0.2700
      8 C           6.0817   -3.2237   21.3205 C.2     1  UNL1        0.2490
      9 N           6.1785   -3.9646   22.6213 N.am    1  UNL1       -0.2968
     10 H           5.4014   -4.0041   23.2243 H       1  UNL1        0.1501
     11 C           7.4594   -4.6453   23.0031 C.3     1  UNL1        0.1167
     12 C           7.5156   -5.5027   24.2327 C.ar    1  UNL1        0.0005
     13 C           8.1453   -6.8626   24.1706 C.ar    1  UNL1        0.0181
     14 C           8.2014   -7.7199   25.4002 C.ar    1  UNL1        0.0986
     15 N           7.6278   -7.2172   26.6918 N.ar    1  UNL1       -0.2423
     16 C           6.9981   -5.8573   26.7539 C.ar    1  UNL1        0.0986
     17 C           6.9420   -5.0000   25.5243 C.ar    1  UNL1        0.0181
     18 C           4.4341   -4.2912   19.0521 C.3     1  UNL1        0.4351
     19 F           4.8913   -5.5057   18.2998 F       1  UNL1       -0.1644
     20 F           3.6715   -5.1666   20.0019 F       1  UNL1       -0.1644
     21 F           5.1967   -3.4158   18.1024 F       1  UNL1       -0.1644
     22 N           0.9580   -0.5008   19.7932 N.pl3   1  UNL1       -0.2825
     23 H           0.1536   -1.0360   19.6038 H       1  UNL1        0.1551
     24 C           0.9025    0.9953   19.7000 C.ar    1  UNL1        0.0513
     25 C          -0.1427    1.7559   20.4608 C.ar    1  UNL1        0.0147
     26 C          -0.1981    3.2520   20.3675 C.ar    1  UNL1        0.0021
     27 C           0.7917    3.9874   19.5135 C.ar    1  UNL1        0.0115
     28 C           1.8369    3.2267   18.7527 C.ar    1  UNL1        0.0589
     29 CL          2.8268    3.9622   17.8986 Cl      1  UNL1       -0.0822
     30 C           1.8923    1.7307   18.8459 C.ar    1  UNL1        0.0261
@<TRIPOS>BOND
     1     7     8    2
     2     8     9   am
     3     9    11    1
     4    11    12    1
     5    12    13   ar
     6    13    14   ar
     7    14    15   ar
     8    15    16   ar
     9    16    17   ar
    10     8     1    1
    11     1     2   ar
    12     2     3   ar
    13     3     4   ar
    14     4    22    1
    15    22    24    1
    16    24    25   ar
    17    25    26   ar
    18    26    27   ar
    19    27    28   ar
    20    28    29    1
    21    28    30   ar
    22     4     5   ar
    23     5     6   ar
    24     6    18    1
    25    18    19    1
    26    18    20    1
    27    18    21    1
    28    17    12   ar
    29     6     1   ar
    30    30    24   ar
    31     9    10    1
    32    22    23    1
@<TRIPOS>MOLECULE
*****
 30 32 0 0 0
SMALL
GASTEIGER

@<TRIPOS>ATOM
      1 C           1.6459    1.7247   19.0787 C.ar    1  UNL1        0.0942
      2 C           1.0156    2.9307   18.4477 C.ar    1  UNL1        0.1078
      3 N          -0.2336    3.5179   19.0349 N.ar    1  UNL1       -0.2119
      4 C          -0.8524    2.8991   20.2532 C.ar    1  UNL1        0.2206
      5 N          -0.2220    1.6931   20.8842 N.ar    1  UNL1       -0.2094
      6 C           1.0272    1.1059   20.2970 C.ar    1  UNL1        0.1613
      7 O           4.2237    1.7804   18.7592 O.2     1  UNL1       -0.2700
      8 C           2.8951    1.1376   18.4916 C.2     1  UNL1        0.2490
      9 N           2.8157   -0.0925   17.6367 N.am    1  UNL1       -0.2968
     10 H           1.9437   -0.5144   17.4610 H       1  UNL1        0.1501
     11 C           4.0648   -0.6796   17.0495 C.3     1  UNL1        0.1167
     12 C           4.9958   -1.4784   17.9128 C.ar    1  UNL1        0.0005
     13 C           6.4757   -1.2461   17.8350 C.ar    1  UNL1        0.0181
     14 C           7.4066   -2.0448   18.6983 C.ar    1  UNL1        0.0986
     15 N           6.8577   -3.0758   19.6394 N.ar    1  UNL1       -0.2423
     16 C           5.3779   -3.3081   19.7173 C.ar    1  UNL1        0.0986
     17 C           4.4469   -2.5094   18.8540 C.ar    1  UNL1        0.0181
     18 C           1.6575   -0.1001   20.9280 C.3     1  UNL1        0.4351
     19 F           2.2879   -1.3061   21.5590 F       1  UNL1       -0.1644
     20 F           2.5051    0.7919   21.7860 F       1  UNL1       -0.1644
     21 F           0.8100   -0.9920   20.0700 F       1  UNL1       -0.1644
     22 N          -2.1016    3.4862   20.8404 N.pl3   1  UNL1       -0.2825
     23 H          -2.0962    3.8341   21.7614 H       1  UNL1        0.1551
     24 C          -3.3589    3.5434   20.0244 C.ar    1  UNL1        0.0513
     25 C          -4.6796    3.2213   20.6583 C.ar    1  UNL1        0.0147
     26 C          -5.9370    3.2784   19.8423 C.ar    1  UNL1        0.0021
     27 C          -5.8736    3.6577   18.3924 C.ar    1  UNL1        0.0115
     28 C          -4.5528    3.9798   17.7586 C.ar    1  UNL1        0.0589
     29 CL         -4.4894    4.3590   16.3086 Cl      1  UNL1       -0.0822
     30 C          -3.2955    3.9226   18.5746 C.ar    1  UNL1        0.0261
@<TRIPOS>BOND
     1     7     8    2
     2     8     9   am
     3     9    11    1
     4    11    12    1
     5    12    13   ar
     6    13    14   ar
     7    14    15   ar
     8    15    16   ar
     9    16    17   ar
    10     8     1    1
    11     1     2   ar
    12     2     3   ar
    13     3     4   ar
    14     4    22    1
    15    22    24    1
    16    24    25   ar
    17    25    26   ar
    18    26    27   ar
    19    27    28   ar
    20    28    29    1
    21    28    30   ar
    22     4     5   ar
    23     5     6   ar
    24     6    18    1
    25    18    19    1
    26    18    20    1
    27    18    21    1
    28    17    12   ar
    29     6     1   ar
    30    30    24   ar
    31     9    10    1
    32    22    23    1
