@<TRIPOS>MOLECULE
*****
 17 19 0 0 0
SMALL
GASTEIGER

@<TRIPOS>ATOM
      1 C          -8.0019  -19.5197   19.8554 C.3     1  UNL1        0.0896
      2 N          -9.0841  -18.6980   20.4906 N.3     1  UNL1       -0.2712
      3 C         -10.5109  -18.6156   20.0351 C.3     1  UNL1        0.0725
      4 C         -11.2382  -17.6810   20.9558 C.3     1  UNL1        0.0210
      5 C         -12.5695  -17.0525   21.2432 C.3     1  UNL1        0.0018
      6 C         -12.4150  -16.1689   22.4454 C.3     1  UNL1        0.0004
      7 C         -10.9882  -16.2512   22.9009 C.3     1  UNL1        0.0054
      8 C         -10.2609  -17.1858   21.9803 C.3     1  UNL1        0.0349
      9 C          -8.9296  -17.8142   21.6928 C.3     1  UNL1        0.0762
     10 C          -9.2836  -16.6906   23.0048 C.ar    1  UNL1       -0.0206
     11 C          -8.1180  -15.8459   22.5827 C.ar    1  UNL1       -0.0033
     12 C          -7.1407  -15.3507   23.6073 C.ar    1  UNL1        0.0119
     13 C          -7.3290  -15.7002   25.0538 C.ar    1  UNL1        0.0682
     14 CL         -6.3517  -15.2049   26.0783 Cl      1  UNL1       -0.0814
     15 C          -8.4946  -16.5448   25.4759 C.ar    1  UNL1        0.0679
     16 CL         -8.6828  -16.8942   26.9224 Cl      1  UNL1       -0.0814
     17 C          -9.4719  -17.0400   24.4513 C.ar    1  UNL1        0.0080
@<TRIPOS>BOND
     1     1     2    1
     2     2     3    1
     3     4     3    1
     4     4     5    1
     5     5     6    1
     6     6     7    1
     7     7     8    1
     8     8    10    1
     9    10    11   ar
    10    11    12   ar
    11    12    13   ar
    12    13    14    1
    13    13    15   ar
    14    15    16    1
    15    15    17   ar
    16     8     9    1
    17     9     2    1
    18     8     4    1
    19    17    10   ar
@<TRIPOS>MOLECULE
*****
 17 19 0 0 0
SMALL
GASTEIGER

@<TRIPOS>ATOM
      1 C         -11.0137  -15.5756   19.9951 C.3     1  UNL1        0.0896
      2 N         -10.7661  -16.7370   20.9114 N.3     1  UNL1       -0.2712
      3 C         -11.4535  -18.0690   20.8522 C.3     1  UNL1        0.0725
      4 C         -10.8998  -18.9257   21.9520 C.3     1  UNL1        0.0210
      5 C         -10.9825  -20.2783   22.5951 C.3     1  UNL1        0.0018
      6 C         -10.0039  -20.3118   23.7314 C.3     1  UNL1        0.0004
      7 C          -9.3164  -18.9799   23.7906 C.3     1  UNL1        0.0054
      8 C          -9.8701  -18.1232   22.6908 C.3     1  UNL1        0.0349
      9 C          -9.7874  -16.7706   22.0478 C.3     1  UNL1        0.0762
     10 C          -8.8405  -17.3208   23.4297 C.ar    1  UNL1       -0.0206
     11 C          -7.4764  -17.1240   22.8377 C.ar    1  UNL1       -0.0033
     12 C          -6.4468  -16.3216   23.5766 C.ar    1  UNL1        0.0119
     13 C          -6.7813  -15.7160   24.9075 C.ar    1  UNL1        0.0682
     14 CL         -5.7516  -14.9135   25.6463 Cl      1  UNL1       -0.0814
     15 C          -8.1453  -15.9127   25.4995 C.ar    1  UNL1        0.0679
     16 CL         -8.4798  -15.3071   26.8304 Cl      1  UNL1       -0.0814
     17 C          -9.1750  -16.7152   24.7606 C.ar    1  UNL1        0.0080
@<TRIPOS>BOND
     1     1     2    1
     2     2     3    1
     3     4     3    1
     4     4     5    1
     5     5     6    1
     6     6     7    1
     7     7     8    1
     8     8    10    1
     9    10    11   ar
    10    11    12   ar
    11    12    13   ar
    12    13    14    1
    13    13    15   ar
    14    15    16    1
    15    15    17   ar
    16     8     9    1
    17     9     2    1
    18     8     4    1
    19    17    10   ar
@<TRIPOS>MOLECULE
*****
 17 19 0 0 0
SMALL
GASTEIGER

@<TRIPOS>ATOM
      1 C         -11.4321  -15.5974   19.2995 C.3     1  UNL1        0.0896
      2 N         -11.5277  -16.3739   20.5793 N.3     1  UNL1       -0.2712
      3 C         -12.7827  -16.6431   21.3556 C.3     1  UNL1        0.0725
      4 C         -12.4157  -17.4531   22.5636 C.3     1  UNL1        0.0210
      5 C         -12.9646  -18.1200   23.7900 C.3     1  UNL1        0.0018
      6 C         -11.8220  -18.7637   24.5182 C.3     1  UNL1        0.0004
      7 C         -10.5671  -18.4945   23.7419 C.3     1  UNL1        0.0054
      8 C         -10.9340  -17.6845   22.5339 C.3     1  UNL1        0.0349
      9 C         -10.3851  -17.0175   21.3076 C.3     1  UNL1        0.0762
     10 C          -9.4522  -17.9159   22.5042 C.ar    1  UNL1       -0.0206
     11 C          -8.8991  -19.1527   21.8606 C.ar    1  UNL1       -0.0033
     12 C          -7.4173  -19.3841   21.8309 C.ar    1  UNL1        0.0119
     13 C          -6.4888  -18.3786   22.4448 C.ar    1  UNL1        0.0682
     14 CL         -5.0070  -18.6100   22.4151 Cl      1  UNL1       -0.0814
     15 C          -7.0420  -17.1418   23.0884 C.ar    1  UNL1        0.0679
     16 CL         -6.1134  -16.1364   23.7022 Cl      1  UNL1       -0.0814
     17 C          -8.5238  -16.9104   23.1181 C.ar    1  UNL1        0.0080
@<TRIPOS>BOND
     1     1     2    1
     2     2     3    1
     3     4     3    1
     4     4     5    1
     5     5     6    1
     6     6     7    1
     7     7     8    1
     8     8    10    1
     9    10    11   ar
    10    11    12   ar
    11    12    13   ar
    12    13    14    1
    13    13    15   ar
    14    15    16    1
    15    15    17   ar
    16     8     9    1
    17     9     2    1
    18     8     4    1
    19    17    10   ar
@<TRIPOS>MOLECULE
*****
 17 19 0 0 0
SMALL
GASTEIGER

@<TRIPOS>ATOM
      1 C          -5.0983  -16.2594   24.0423 C.3     1  UNL1        0.0896
      2 N          -4.8655  -17.3706   23.0620 N.3     1  UNL1       -0.2712
      3 C          -3.5301  -17.8991   22.6290 C.3     1  UNL1        0.0725
      4 C          -3.7665  -19.0036   21.6420 C.3     1  UNL1        0.0210
      5 C          -3.0873  -20.0127   20.7644 C.3     1  UNL1        0.0018
      6 C          -4.1491  -20.7907   20.0450 C.3     1  UNL1        0.0004
      7 C          -5.4845  -20.2623   20.4780 C.3     1  UNL1        0.0054
      8 C          -5.2481  -19.1578   21.4650 C.3     1  UNL1        0.0349
      9 C          -5.9273  -18.1486   22.3426 C.3     1  UNL1        0.0762
     10 C          -6.7296  -19.3120   21.2880 C.ar    1  UNL1       -0.0206
     11 C          -7.3379  -19.1955   19.9219 C.ar    1  UNL1       -0.0033
     12 C          -8.8195  -19.3497   19.7450 C.ar    1  UNL1        0.0119
     13 C          -9.6926  -19.6204   20.9342 C.ar    1  UNL1        0.0682
     14 CL        -11.1741  -19.7746   20.7573 Cl      1  UNL1       -0.0814
     15 C          -9.0843  -19.7370   22.3004 C.ar    1  UNL1        0.0679
     16 CL         -9.9575  -20.0077   23.4896 Cl      1  UNL1       -0.0814
     17 C          -7.6027  -19.5827   22.4773 C.ar    1  UNL1        0.0080
@<TRIPOS>BOND
     1     1     2    1
     2     2     3    1
     3     4     3    1
     4     4     5    1
     5     5     6    1
     6     6     7    1
     7     7     8    1
     8     8    10    1
     9    10    11   ar
    10    11    12   ar
    11    12    13   ar
    12    13    14    1
    13    13    15   ar
    14    15    16    1
    15    15    17   ar
    16     8     9    1
    17     9     2    1
    18     8     4    1
    19    17    10   ar
@<TRIPOS>MOLECULE
*****
 17 19 0 0 0
SMALL
GASTEIGER

@<TRIPOS>ATOM
      1 C          -6.4731  -20.1539   21.3616 C.3     1  UNL1        0.0896
      2 N          -6.6820  -18.8884   22.1392 N.3     1  UNL1       -0.2712
      3 C          -5.6088  -17.9399   22.5848 C.3     1  UNL1        0.0725
      4 C          -6.2644  -16.8144   23.3288 C.3     1  UNL1        0.0210
      5 C          -6.0062  -15.5327   24.0640 C.3     1  UNL1        0.0018
      6 C          -7.3252  -14.9934   24.5326 C.3     1  UNL1        0.0004
      7 C          -8.3985  -15.9419   24.0870 C.3     1  UNL1        0.0054
      8 C          -7.7429  -17.0673   23.3430 C.3     1  UNL1        0.0349
      9 C          -8.0010  -18.3491   22.6078 C.3     1  UNL1        0.0762
     10 C          -9.2213  -17.3202   23.3572 C.ar    1  UNL1       -0.0206
     11 C          -9.8203  -18.2082   24.4073 C.ar    1  UNL1       -0.0033
     12 C         -11.2988  -18.4610   24.4215 C.ar    1  UNL1        0.0119
     13 C         -12.1782  -17.8259   23.3855 C.ar    1  UNL1        0.0682
     14 CL        -13.6567  -18.0788   23.3997 Cl      1  UNL1       -0.0814
     15 C         -11.5793  -16.9380   22.3354 C.ar    1  UNL1        0.0679
     16 CL        -12.4588  -16.3029   21.2995 Cl      1  UNL1       -0.0814
     17 C         -10.1008  -16.6851   22.3213 C.ar    1  UNL1        0.0080
@<TRIPOS>BOND
     1     1     2    1
     2     2     3    1
     3     4     3    1
     4     4     5    1
     5     5     6    1
     6     6     7    1
     7     7     8    1
     8     8    10    1
     9    10    11   ar
    10    11    12   ar
    11    12    13   ar
    12    13    14    1
    13    13    15   ar
    14    15    16    1
    15    15    17   ar
    16     8     9    1
    17     9     2    1
    18     8     4    1
    19    17    10   ar
@<TRIPOS>MOLECULE
*****
 17 19 0 0 0
SMALL
GASTEIGER

@<TRIPOS>ATOM
      1 C          -5.9845  -20.1742   20.6870 C.3     1  UNL1        0.0896
      2 N          -7.3699  -19.5994   20.6798 N.3     1  UNL1       -0.2712
      3 C          -8.3750  -19.7350   19.5747 C.3     1  UNL1        0.0725
      4 C          -9.6199  -19.0075   19.9884 C.3     1  UNL1        0.0210
      5 C         -11.0104  -18.6417   19.5610 C.3     1  UNL1        0.0018
      6 C         -11.6340  -17.8304   20.6577 C.3     1  UNL1        0.0004
      7 C         -10.6290  -17.6948   21.7629 C.3     1  UNL1        0.0054
      8 C          -9.3841  -18.4223   21.3492 C.3     1  UNL1        0.0349
      9 C          -7.9936  -18.7881   21.7766 C.3     1  UNL1        0.0762
     10 C          -9.1484  -17.8371   22.7101 C.ar    1  UNL1       -0.0206
     11 C          -9.7517  -18.4861   23.9204 C.ar    1  UNL1       -0.0033
     12 C          -9.5159  -17.9009   25.2813 C.ar    1  UNL1        0.0119
     13 C          -8.6769  -16.6667   25.4318 C.ar    1  UNL1        0.0682
     14 CL         -8.4411  -16.0815   26.7927 Cl      1  UNL1       -0.0814
     15 C          -8.0735  -16.0177   24.2215 C.ar    1  UNL1        0.0679
     16 CL         -7.2345  -14.7835   24.3722 Cl      1  UNL1       -0.0814
     17 C          -8.3093  -16.6029   22.8607 C.ar    1  UNL1        0.0080
@<TRIPOS>BOND
     1     1     2    1
     2     2     3    1
     3     4     3    1
     4     4     5    1
     5     5     6    1
     6     6     7    1
     7     7     8    1
     8     8    10    1
     9    10    11   ar
    10    11    12   ar
    11    12    13   ar
    12    13    14    1
    13    13    15   ar
    14    15    16    1
    15    15    17   ar
    16     8     9    1
    17     9     2    1
    18     8     4    1
    19    17    10   ar
@<TRIPOS>MOLECULE
*****
 17 19 0 0 0
SMALL
GASTEIGER

@<TRIPOS>ATOM
      1 C          -5.1050  -15.8961   24.2440 C.3     1  UNL1        0.0896
      2 N          -5.3336  -17.0644   23.3316 N.3     1  UNL1       -0.2712
      3 C          -4.2704  -17.8561   22.6294 C.3     1  UNL1        0.0725
      4 C          -4.9453  -18.9273   21.8250 C.3     1  UNL1        0.0210
      5 C          -4.7053  -20.0785   20.8938 C.3     1  UNL1        0.0018
      6 C          -6.0373  -20.6605   20.5234 C.3     1  UNL1        0.0004
      7 C          -7.1004  -19.8689   21.2256 C.3     1  UNL1        0.0054
      8 C          -6.4256  -18.7977   22.0300 C.3     1  UNL1        0.0349
      9 C          -6.6656  -17.6465   22.9611 C.3     1  UNL1        0.0762
     10 C          -7.9058  -18.6681   22.2351 C.ar    1  UNL1       -0.0206
     11 C          -8.6667  -19.7638   22.9211 C.ar    1  UNL1       -0.0033
     12 C         -10.1470  -19.6341   23.1261 C.ar    1  UNL1        0.0119
     13 C         -10.8663  -18.4089   22.6451 C.ar    1  UNL1        0.0682
     14 CL        -12.3466  -18.2793   22.8502 Cl      1  UNL1       -0.0814
     15 C         -10.1054  -17.3133   21.9591 C.ar    1  UNL1        0.0679
     16 CL        -10.8248  -16.0881   21.4781 Cl      1  UNL1       -0.0814
     17 C          -8.6251  -17.4429   21.7541 C.ar    1  UNL1        0.0080
@<TRIPOS>BOND
     1     1     2    1
     2     2     3    1
     3     4     3    1
     4     4     5    1
     5     5     6    1
     6     6     7    1
     7     7     8    1
     8     8    10    1
     9    10    11   ar
    10    11    12   ar
    11    12    13   ar
    12    13    14    1
    13    13    15   ar
    14    15    16    1
    15    15    17   ar
    16     8     9    1
    17     9     2    1
    18     8     4    1
    19    17    10   ar
@<TRIPOS>MOLECULE
*****
 17 19 0 0 0
SMALL
GASTEIGER

@<TRIPOS>ATOM
      1 C          -9.4473  -17.9603   24.6115 C.3     1  UNL1        0.0896
      2 N          -9.3492  -18.4298   23.1903 N.3     1  UNL1       -0.2712
      3 C         -10.4947  -18.6010   22.2371 C.3     1  UNL1        0.0725
      4 C          -9.9418  -19.0876   20.9304 C.3     1  UNL1        0.0210
      5 C         -10.3081  -19.4941   19.5338 C.3     1  UNL1        0.0018
      6 C          -9.0472  -19.8749   18.8162 C.3     1  UNL1        0.0004
      7 C          -7.9016  -19.7038   19.7693 C.3     1  UNL1        0.0054
      8 C          -8.4545  -19.2172   21.0760 C.3     1  UNL1        0.0349
      9 C          -8.0882  -18.8107   22.4726 C.3     1  UNL1        0.0762
     10 C          -6.9672  -19.3468   21.2215 C.ar    1  UNL1       -0.0206
     11 C          -6.2128  -20.3253   20.3710 C.ar    1  UNL1       -0.0033
     12 C          -4.7255  -20.4548   20.5166 C.ar    1  UNL1        0.0119
     13 C          -3.9927  -19.6059   21.5127 C.ar    1  UNL1        0.0682
     14 CL         -2.5054  -19.7355   21.6582 Cl      1  UNL1       -0.0814
     15 C          -4.7471  -18.6274   22.3632 C.ar    1  UNL1        0.0679
     16 CL         -4.0142  -17.7784   23.3593 Cl      1  UNL1       -0.0814
     17 C          -6.2344  -18.4978   22.2176 C.ar    1  UNL1        0.0080
@<TRIPOS>BOND
     1     1     2    1
     2     2     3    1
     3     4     3    1
     4     4     5    1
     5     5     6    1
     6     6     7    1
     7     7     8    1
     8     8    10    1
     9    10    11   ar
    10    11    12   ar
    11    12    13   ar
    12    13    14    1
    13    13    15   ar
    14    15    16    1
    15    15    17   ar
    16     8     9    1
    17     9     2    1
    18     8     4    1
    19    17    10   ar
@<TRIPOS>MOLECULE
*****
 17 19 0 0 0
SMALL
GASTEIGER

@<TRIPOS>ATOM
      1 C          -6.1670  -17.6095   22.7018 C.3     1  UNL1        0.0896
      2 N          -7.0518  -18.2811   21.6939 N.3     1  UNL1       -0.2712
      3 C          -6.5973  -18.9671   20.4397 C.3     1  UNL1        0.0725
      4 C          -7.8112  -19.4946   19.7339 C.3     1  UNL1        0.0210
      5 C          -8.2805  -20.2445   18.5225 C.3     1  UNL1        0.0018
      6 C          -9.7753  -20.3480   18.5918 C.3     1  UNL1        0.0004
      7 C         -10.2299  -19.6621   19.8460 C.3     1  UNL1        0.0054
      8 C          -9.0160  -19.1346   20.5518 C.3     1  UNL1        0.0349
      9 C          -8.5467  -18.3846   21.7631 C.3     1  UNL1        0.0762
     10 C         -10.2208  -18.7746   21.3697 C.ar    1  UNL1       -0.0206
     11 C         -11.3579  -18.0257   20.7405 C.ar    1  UNL1       -0.0033
     12 C         -12.5627  -17.6657   21.5585 C.ar    1  UNL1        0.0119
     13 C         -12.6302  -18.0547   23.0056 C.ar    1  UNL1        0.0682
     14 CL        -13.8349  -17.6948   23.8235 Cl      1  UNL1       -0.0814
     15 C         -11.4930  -18.8037   23.6348 C.ar    1  UNL1        0.0679
     16 CL        -11.5606  -19.1926   25.0819 Cl      1  UNL1       -0.0814
     17 C         -10.2882  -19.1636   22.8168 C.ar    1  UNL1        0.0080
@<TRIPOS>BOND
     1     1     2    1
     2     2     3    1
     3     4     3    1
     4     4     5    1
     5     5     6    1
     6     6     7    1
     7     7     8    1
     8     8    10    1
     9    10    11   ar
    10    11    12   ar
    11    12    13   ar
    12    13    14    1
    13    13    15   ar
    14    15    16    1
    15    15    17   ar
    16     8     9    1
    17     9     2    1
    18     8     4    1
    19    17    10   ar
