@<TRIPOS>MOLECULE
*****
 38 41 0 0 0
SMALL
GASTEIGER

@<TRIPOS>ATOM
      1 C          -2.3893  -18.3837   20.5875 C.ar    1  UNL1        0.1689
      2 N          -2.3005  -19.5893   19.6995 N.ar    1  UNL1       -0.1421
      3 N          -3.4765  -20.5107   19.5660 N.ar    1  UNL1       -0.1478
      4 C          -4.7415  -20.2265   20.3204 C.ar    1  UNL1        0.1041
      5 C          -5.9176  -21.1479   20.1869 C.ar    1  UNL1        0.0209
      6 C          -7.1824  -20.8636   20.9414 C.ar    1  UNL1        0.0017
      7 C          -7.2713  -19.6580   21.8293 C.ar    1  UNL1        0.0016
      8 C          -6.0952  -18.7366   21.9628 C.ar    1  UNL1        0.0029
      9 C          -4.8303  -19.0208   21.2084 C.ar    1  UNL1        0.0342
     10 C          -3.6542  -18.0994   21.3419 C.ar    1  UNL1        0.0702
     11 C          -8.5362  -19.3737   22.5838 C.ar    1  UNL1        0.0194
     12 C          -9.6133  -20.4148   22.6612 C.ar    1  UNL1        0.0063
     13 C         -10.8783  -20.1305   23.4157 C.ar    1  UNL1        0.0577
     14 C         -11.0661  -18.8052   24.0927 C.ar    1  UNL1        0.2249
     15 N          -9.9889  -17.7641   24.0152 N.ar    1  UNL1       -0.2101
     16 C          -8.7240  -18.0484   23.2607 C.ar    1  UNL1        0.1020
     17 O         -12.3310  -18.5209   24.8471 O.3     1  UNL1       -0.4602
     18 C         -13.5316  -17.9869   24.1239 C.3     1  UNL1        0.2085
     19 C         -13.3534  -17.0952   22.9308 C.3     1  UNL1        0.0647
     20 C         -13.0041  -17.6872   21.5976 C.3     1  UNL1        0.0760
     21 N         -11.7235  -17.3019   20.9183 N.3     1  UNL1       -0.2702
     22 C         -11.1064  -15.9611   21.1859 C.3     1  UNL1        0.0897
     23 C         -11.0599  -18.2574   19.9714 C.3     1  UNL1        0.0897
     24 C           1.3118  -16.9698   20.3582 C.3     1  UNL1        0.1110
     25 N           0.1358  -17.8912   20.2247 N.am    1  UNL1       -0.2978
     26 C          -1.2132  -17.4622   20.7210 C.2     1  UNL1        0.2666
     27 O          -1.3861  -16.1119   21.3508 O.2     1  UNL1       -0.2684
     28 H           0.2492  -18.7775   19.8114 H       1  UNL1        0.1498
     29 N          -3.7430  -16.8937   22.2299 N.pl3   1  UNL1       -0.3327
     30 H          -3.6503  -15.9918   21.8461 H       1  UNL1        0.1468
     31 C          -3.9732  -17.0622   23.7026 C.3     1  UNL1        0.0692
     32 C          -3.1142  -18.0042   24.4930 C.3     1  UNL1        0.0212
     33 C          -5.0623  -16.2887   24.3847 C.3     1  UNL1        0.0229
     34 C          -5.0654  -16.1563   25.8789 C.3     1  UNL1        0.0338
     35 C          -6.1545  -15.3828   26.5611 C.3     1  UNL1        0.1422
     36 O          -7.2406  -14.7416   25.7491 O.3     1  UNL1       -0.3538
     37 C          -7.2376  -14.8739   24.2549 C.3     1  UNL1        0.1422
     38 C          -6.1484  -15.6475   23.5727 C.3     1  UNL1        0.0338
@<TRIPOS>BOND
     1    24    25    1
     2    25    26   am
     3    26    27    2
     4    26     1    1
     5     1     2   ar
     6     2     3   ar
     7     3     4   ar
     8     4     5   ar
     9     5     6   ar
    10     6     7   ar
    11     7    11    1
    12    11    12   ar
    13    12    13   ar
    14    13    14   ar
    15    14    17    1
    16    17    18    1
    17    18    19    1
    18    19    20    1
    19    20    21    1
    20    21    22    1
    21    21    23    1
    22    14    15   ar
    23    15    16   ar
    24     7     8   ar
    25     8     9   ar
    26     9    10   ar
    27    10    29    1
    28    29    31    1
    29    31    32    1
    30    31    33    1
    31    33    34    1
    32    34    35    1
    33    35    36    1
    34    36    37    1
    35    37    38    1
    36    10     1   ar
    37    38    33    1
    38     9     4   ar
    39    16    11   ar
    40    25    28    1
    41    29    30    1
@<TRIPOS>MOLECULE
*****
 38 41 0 0 0
SMALL
GASTEIGER

@<TRIPOS>ATOM
      1 C           4.6666    1.0029   18.1843 C.ar    1  UNL1        0.1689
      2 N           5.3646    2.2965   17.8853 N.ar    1  UNL1       -0.1421
      3 N           4.5955    3.5842   17.8986 N.ar    1  UNL1       -0.1478
      4 C           3.1283    3.5784   18.2109 C.ar    1  UNL1        0.1041
      5 C           2.3593    4.8661   18.2242 C.ar    1  UNL1        0.0209
      6 C           0.8922    4.8603   18.5365 C.ar    1  UNL1        0.0017
      7 C           0.1942    3.5667   18.8355 C.ar    1  UNL1        0.0016
      8 C           0.9632    2.2789   18.8222 C.ar    1  UNL1        0.0029
      9 C           2.4303    2.2848   18.5099 C.ar    1  UNL1        0.0342
     10 C           3.1995    0.9970   18.4966 C.ar    1  UNL1        0.0702
     11 C          -1.2730    3.5608   19.1478 C.ar    1  UNL1        0.0194
     12 C          -2.2504    4.1418   18.1695 C.ar    1  UNL1        0.0063
     13 C          -3.7175    4.1360   18.4818 C.ar    1  UNL1        0.0577
     14 C          -4.2072    3.5492   19.7725 C.ar    1  UNL1        0.2249
     15 N          -3.2298    2.9682   20.7508 N.ar    1  UNL1       -0.2101
     16 C          -1.7627    2.9741   20.4385 C.ar    1  UNL1        0.1020
     17 O          -5.6743    3.5434   20.0848 O.3     1  UNL1       -0.4602
     18 C          -6.2534    4.5935   20.9858 C.3     1  UNL1        0.2085
     19 C          -6.7358    4.2224   22.3569 C.3     1  UNL1        0.0647
     20 C          -5.7597    3.7486   23.3926 C.3     1  UNL1        0.0760
     21 N          -5.7104    4.4132   24.7363 N.3     1  UNL1       -0.2702
     22 C          -4.7316    3.9420   25.7708 C.3     1  UNL1        0.0897
     23 C          -6.6400    5.5491   25.0458 C.3     1  UNL1        0.0897
     24 C           7.2456   -1.8355   19.2052 C.3     1  UNL1        0.1110
     25 N           6.4765   -0.5477   19.2186 N.am    1  UNL1       -0.2978
     26 C           5.4357   -0.2849   18.1710 C.2     1  UNL1        0.2666
     27 O           5.1640   -1.3098   17.1099 O.2     1  UNL1       -0.2684
     28 H           6.6548    0.1249   19.9150 H       1  UNL1        0.1498
     29 N           2.5015   -0.2966   18.7956 N.pl3   1  UNL1       -0.3327
     30 H           1.9951   -0.7576   18.0883 H       1  UNL1        0.1468
     31 C           2.5750   -0.8877   20.1723 C.3     1  UNL1        0.0692
     32 C           1.8558   -0.2278   21.3112 C.3     1  UNL1        0.0212
     33 C           3.3677   -2.1388   20.4099 C.3     1  UNL1        0.0229
     34 C           3.3939   -3.2190   19.3696 C.3     1  UNL1        0.0338
     35 C           4.1866   -4.4701   19.6072 C.3     1  UNL1        0.1422
     36 O           4.9530   -4.6409   20.8852 O.3     1  UNL1       -0.3538
     37 C           4.9268   -3.5607   21.9257 C.3     1  UNL1        0.1422
     38 C           4.1341   -2.3096   21.6880 C.3     1  UNL1        0.0338
@<TRIPOS>BOND
     1    24    25    1
     2    25    26   am
     3    26    27    2
     4    26     1    1
     5     1     2   ar
     6     2     3   ar
     7     3     4   ar
     8     4     5   ar
     9     5     6   ar
    10     6     7   ar
    11     7    11    1
    12    11    12   ar
    13    12    13   ar
    14    13    14   ar
    15    14    17    1
    16    17    18    1
    17    18    19    1
    18    19    20    1
    19    20    21    1
    20    21    22    1
    21    21    23    1
    22    14    15   ar
    23    15    16   ar
    24     7     8   ar
    25     8     9   ar
    26     9    10   ar
    27    10    29    1
    28    29    31    1
    29    31    32    1
    30    31    33    1
    31    33    34    1
    32    34    35    1
    33    35    36    1
    34    36    37    1
    35    37    38    1
    36    10     1   ar
    37    38    33    1
    38     9     4   ar
    39    16    11   ar
    40    25    28    1
    41    29    30    1
@<TRIPOS>MOLECULE
*****
 38 41 0 0 0
SMALL
GASTEIGER

@<TRIPOS>ATOM
      1 C           6.5395   -4.0993   24.6181 C.ar    1  UNL1        0.1689
      2 N           7.4642   -4.8809   23.7326 N.ar    1  UNL1       -0.1421
      3 N           7.3605   -4.7537   22.2417 N.ar    1  UNL1       -0.1478
      4 C           6.3322   -3.8449   21.6361 C.ar    1  UNL1        0.1041
      5 C           6.2286   -3.7177   20.1452 C.ar    1  UNL1        0.0209
      6 C           5.2003   -2.8088   19.5397 C.ar    1  UNL1        0.0017
      7 C           4.2756   -2.0272   20.4252 C.ar    1  UNL1        0.0016
      8 C           4.3793   -2.1544   21.9162 C.ar    1  UNL1        0.0029
      9 C           5.4076   -3.0633   22.5216 C.ar    1  UNL1        0.0342
     10 C           5.5112   -3.1905   24.0127 C.ar    1  UNL1        0.0702
     11 C           3.2473   -1.1184   19.8197 C.ar    1  UNL1        0.0194
     12 C           1.9054   -0.9642   20.4719 C.ar    1  UNL1        0.0063
     13 C           0.8771   -0.0553   19.8664 C.ar    1  UNL1        0.0577
     14 C           1.1907    0.6993   18.6086 C.ar    1  UNL1        0.2249
     15 N           2.5327    0.5450   17.9563 N.ar    1  UNL1       -0.2101
     16 C           3.5609   -0.3638   18.5618 C.ar    1  UNL1        0.1020
     17 O           0.1625    1.6081   18.0030 O.3     1  UNL1       -0.4602
     18 C           0.1185    3.0558   18.3929 C.3     1  UNL1        0.2085
     19 C          -0.9587    3.5529   19.3109 C.3     1  UNL1        0.0647
     20 C          -1.2843    2.7960   20.5643 C.3     1  UNL1        0.0760
     21 N          -2.0554    3.4631   21.6644 N.3     1  UNL1       -0.2702
     22 C          -1.3393    3.9732   22.8798 C.3     1  UNL1        0.0897
     23 C          -3.5427    3.6202   21.5492 C.3     1  UNL1        0.0897
     24 C           6.4979   -5.6781   28.2590 C.3     1  UNL1        0.1110
     25 N           6.3942   -5.5509   26.7680 N.am    1  UNL1       -0.2978
     26 C           6.6432   -4.2265   26.1092 C.2     1  UNL1        0.2666
     27 O           6.9959   -3.0294   26.9413 O.2     1  UNL1       -0.2684
     28 H           6.1627   -6.3366   26.2219 H       1  UNL1        0.1498
     29 N           4.5866   -2.4089   24.8982 N.pl3   1  UNL1       -0.3327
     30 H           3.9228   -2.8784   25.4533 H       1  UNL1        0.1468
     31 C           4.6733   -0.9119   24.9378 C.3     1  UNL1        0.0692
     32 C           6.0047   -0.2339   24.8041 C.3     1  UNL1        0.0212
     33 C           3.4287   -0.0928   25.1112 C.3     1  UNL1        0.0229
     34 C           3.0610    0.4351   26.4662 C.3     1  UNL1        0.0338
     35 C           1.8163    1.2541   26.6396 C.3     1  UNL1        0.1422
     36 O           0.9394    1.5452   25.4580 O.3     1  UNL1       -0.3538
     37 C           1.3071    1.0172   24.1029 C.3     1  UNL1        0.1422
     38 C           2.5517    0.1982   23.9295 C.3     1  UNL1        0.0338
@<TRIPOS>BOND
     1    24    25    1
     2    25    26   am
     3    26    27    2
     4    26     1    1
     5     1     2   ar
     6     2     3   ar
     7     3     4   ar
     8     4     5   ar
     9     5     6   ar
    10     6     7   ar
    11     7    11    1
    12    11    12   ar
    13    12    13   ar
    14    13    14   ar
    15    14    17    1
    16    17    18    1
    17    18    19    1
    18    19    20    1
    19    20    21    1
    20    21    22    1
    21    21    23    1
    22    14    15   ar
    23    15    16   ar
    24     7     8   ar
    25     8     9   ar
    26     9    10   ar
    27    10    29    1
    28    29    31    1
    29    31    32    1
    30    31    33    1
    31    33    34    1
    32    34    35    1
    33    35    36    1
    34    36    37    1
    35    37    38    1
    36    10     1   ar
    37    38    33    1
    38     9     4   ar
    39    16    11   ar
    40    25    28    1
    41    29    30    1
@<TRIPOS>MOLECULE
*****
 38 41 0 0 0
SMALL
GASTEIGER

@<TRIPOS>ATOM
      1 C           1.9123    0.2368   19.2621 C.ar    1  UNL1        0.1689
      2 N           2.3636    0.2367   17.8316 N.ar    1  UNL1       -0.1421
      3 N           3.5624   -0.5672   17.4234 N.ar    1  UNL1       -0.1478
      4 C           4.3099   -1.3710   18.4458 C.ar    1  UNL1        0.1041
      5 C           5.5087   -2.1749   18.0376 C.ar    1  UNL1        0.0209
      6 C           6.2561   -2.9787   19.0599 C.ar    1  UNL1        0.0017
      7 C           5.8048   -2.9786   20.4904 C.ar    1  UNL1        0.0016
      8 C           4.6060   -2.1747   20.8986 C.ar    1  UNL1        0.0029
      9 C           3.8586   -1.3709   19.8763 C.ar    1  UNL1        0.0342
     10 C           2.6597   -0.5670   20.2844 C.ar    1  UNL1        0.0702
     11 C           6.5523   -3.7825   21.5128 C.ar    1  UNL1        0.0194
     12 C           6.0936   -3.7923   22.9409 C.ar    1  UNL1        0.0063
     13 C           6.8411   -4.5962   23.9632 C.ar    1  UNL1        0.0577
     14 C           8.0473   -5.3902   23.5574 C.ar    1  UNL1        0.2249
     15 N           8.5059   -5.3803   22.1292 N.ar    1  UNL1       -0.2101
     16 C           7.7585   -4.5765   21.1070 C.ar    1  UNL1        0.1020
     17 O           8.7948   -6.1940   24.5796 O.3     1  UNL1       -0.4602
     18 C           8.3113   -7.5628   24.9573 C.3     1  UNL1        0.2085
     19 C           7.4936   -7.7529   26.2005 C.3     1  UNL1        0.0647
     20 C           8.0593   -7.3705   27.5360 C.3     1  UNL1        0.0760
     21 N           7.4310   -6.2616   28.3269 N.3     1  UNL1       -0.2702
     22 C           7.7814   -6.0808   29.7742 C.3     1  UNL1        0.0897
     23 C           6.4523   -5.3334   27.6706 C.3     1  UNL1        0.0897
     24 C          -0.6819    3.2280   19.5326 C.3     1  UNL1        0.1110
     25 N           0.5169    2.4241   19.1245 N.am    1  UNL1       -0.2978
     26 C           0.7134    1.0408   19.6702 C.2     1  UNL1        0.2666
     27 O          -0.2888    0.4614   20.6241 O.2     1  UNL1       -0.2684
     28 H           1.1747    2.8043   18.4984 H       1  UNL1        0.1498
     29 N           2.2084   -0.5669   21.7149 N.pl3   1  UNL1       -0.3327
     30 H           1.5312   -1.2143   22.0175 H       1  UNL1        0.1468
     31 C           2.7888    0.4197   22.6844 C.3     1  UNL1        0.0692
     32 C           3.1556    1.7987   22.2220 C.3     1  UNL1        0.0212
     33 C           3.0024    0.0272   24.1163 C.3     1  UNL1        0.0229
     34 C           2.3514    0.8142   25.2148 C.3     1  UNL1        0.0338
     35 C           2.5650    0.4217   26.6467 C.3     1  UNL1        0.1422
     36 O           3.4296   -0.7578   26.9801 O.3     1  UNL1       -0.3538
     37 C           4.0807   -1.5448   25.8816 C.3     1  UNL1        0.1422
     38 C           3.8671   -1.1523   24.4497 C.3     1  UNL1        0.0338
@<TRIPOS>BOND
     1    24    25    1
     2    25    26   am
     3    26    27    2
     4    26     1    1
     5     1     2   ar
     6     2     3   ar
     7     3     4   ar
     8     4     5   ar
     9     5     6   ar
    10     6     7   ar
    11     7    11    1
    12    11    12   ar
    13    12    13   ar
    14    13    14   ar
    15    14    17    1
    16    17    18    1
    17    18    19    1
    18    19    20    1
    19    20    21    1
    20    21    22    1
    21    21    23    1
    22    14    15   ar
    23    15    16   ar
    24     7     8   ar
    25     8     9   ar
    26     9    10   ar
    27    10    29    1
    28    29    31    1
    29    31    32    1
    30    31    33    1
    31    33    34    1
    32    34    35    1
    33    35    36    1
    34    36    37    1
    35    37    38    1
    36    10     1   ar
    37    38    33    1
    38     9     4   ar
    39    16    11   ar
    40    25    28    1
    41    29    30    1
@<TRIPOS>MOLECULE
*****
 38 41 0 0 0
SMALL
GASTEIGER

@<TRIPOS>ATOM
      1 C         -11.0963  -18.9289   22.4210 C.ar    1  UNL1        0.1689
      2 N         -11.8162  -19.4416   21.2090 N.ar    1  UNL1       -0.1421
      3 N         -11.0408  -19.8358   19.9870 N.ar    1  UNL1       -0.1478
      4 C          -9.5454  -19.7172   19.9770 C.ar    1  UNL1        0.1041
      5 C          -8.7700  -20.1114   18.7550 C.ar    1  UNL1        0.0209
      6 C          -7.2748  -19.9928   18.7450 C.ar    1  UNL1        0.0017
      7 C          -6.5549  -19.4801   19.9570 C.ar    1  UNL1        0.0016
      8 C          -7.3303  -19.0859   21.1790 C.ar    1  UNL1        0.0029
      9 C          -8.8256  -19.2045   21.1890 C.ar    1  UNL1        0.0342
     10 C          -9.6011  -18.8103   22.4110 C.ar    1  UNL1        0.0702
     11 C          -5.0596  -19.3616   19.9469 C.ar    1  UNL1        0.0194
     12 C          -4.3918  -18.3715   19.0393 C.ar    1  UNL1        0.0063
     13 C          -2.8965  -18.2530   19.0292 C.ar    1  UNL1        0.0577
     14 C          -2.0690  -19.1245   19.9269 C.ar    1  UNL1        0.2249
     15 N          -2.7369  -20.1146   20.8346 N.ar    1  UNL1       -0.2101
     16 C          -4.2322  -20.2331   20.8446 C.ar    1  UNL1        0.1020
     17 O          -0.5738  -19.0060   19.9169 O.3     1  UNL1       -0.4602
     18 C           0.0724  -17.6575   20.0344 C.3     1  UNL1        0.2085
     19 C          -0.3331  -16.7250   21.1372 C.3     1  UNL1        0.0647
     20 C          -1.7229  -16.1617   21.1700 C.3     1  UNL1        0.0760
     21 N          -2.6319  -16.4747   22.3214 N.3     1  UNL1       -0.2702
     22 C          -3.7747  -15.5586   22.6453 C.3     1  UNL1        0.0897
     23 C          -2.3981  -17.7037   23.1490 C.3     1  UNL1        0.0897
     24 C         -14.1038  -17.8009   24.7518 C.3     1  UNL1        0.1110
     25 N         -13.3284  -18.1951   23.5298 N.am    1  UNL1       -0.2978
     26 C         -11.8718  -18.5347   23.6431 C.2     1  UNL1        0.2666
     27 O         -11.1906  -18.4802   24.9783 O.2     1  UNL1       -0.2684
     28 H         -13.7755  -18.2309   22.6534 H       1  UNL1        0.1498
     29 N          -8.8812  -18.2976   23.6230 N.pl3   1  UNL1       -0.3327
     30 H          -8.6666  -18.9096   24.3637 H       1  UNL1        0.1468
     31 C          -8.4884  -16.8523   23.7065 C.3     1  UNL1        0.0692
     32 C          -8.7197  -15.9434   22.5359 C.3     1  UNL1        0.0212
     33 C          -7.8642  -16.3160   24.9606 C.3     1  UNL1        0.0229
     34 C          -8.6085  -16.3923   26.2607 C.3     1  UNL1        0.0338
     35 C          -7.9843  -15.8560   27.5148 C.3     1  UNL1        0.1422
     36 O          -6.6159  -15.2434   27.4689 O.3     1  UNL1       -0.3538
     37 C          -5.8716  -15.1671   26.1688 C.3     1  UNL1        0.1422
     38 C          -6.4957  -15.7034   24.9146 C.3     1  UNL1        0.0338
@<TRIPOS>BOND
     1    24    25    1
     2    25    26   am
     3    26    27    2
     4    26     1    1
     5     1     2   ar
     6     2     3   ar
     7     3     4   ar
     8     4     5   ar
     9     5     6   ar
    10     6     7   ar
    11     7    11    1
    12    11    12   ar
    13    12    13   ar
    14    13    14   ar
    15    14    17    1
    16    17    18    1
    17    18    19    1
    18    19    20    1
    19    20    21    1
    20    21    22    1
    21    21    23    1
    22    14    15   ar
    23    15    16   ar
    24     7     8   ar
    25     8     9   ar
    26     9    10   ar
    27    10    29    1
    28    29    31    1
    29    31    32    1
    30    31    33    1
    31    33    34    1
    32    34    35    1
    33    35    36    1
    34    36    37    1
    35    37    38    1
    36    10     1   ar
    37    38    33    1
    38     9     4   ar
    39    16    11   ar
    40    25    28    1
    41    29    30    1
@<TRIPOS>MOLECULE
*****
 38 41 0 0 0
SMALL
GASTEIGER

@<TRIPOS>ATOM
      1 C           7.5818   -4.2701   21.3367 C.ar    1  UNL1        0.1689
      2 N           8.2142   -5.5790   20.9668 N.ar    1  UNL1       -0.1421
      3 N           8.5647   -6.5713   22.0356 N.ar    1  UNL1       -0.1478
      4 C           8.2827   -6.2548   23.4745 C.ar    1  UNL1        0.1041
      5 C           8.6332   -7.2471   24.5433 C.ar    1  UNL1        0.0209
      6 C           8.3512   -6.9305   25.9821 C.ar    1  UNL1        0.0017
      7 C           7.7188   -5.6217   26.3521 C.ar    1  UNL1        0.0016
      8 C           7.3683   -4.6294   25.2833 C.ar    1  UNL1        0.0029
      9 C           7.6503   -4.9459   23.8445 C.ar    1  UNL1        0.0342
     10 C           7.2998   -3.9536   22.7756 C.ar    1  UNL1        0.0702
     11 C           7.4368   -5.3052   27.7910 C.ar    1  UNL1        0.0194
     12 C           6.8705   -3.9683   28.1678 C.ar    1  UNL1        0.0063
     13 C           6.5885   -3.6518   29.6068 C.ar    1  UNL1        0.0577
     14 C           6.8728   -4.6722   30.6688 C.ar    1  UNL1        0.2249
     15 N           7.4391   -6.0092   30.2919 N.ar    1  UNL1       -0.2101
     16 C           7.7211   -6.3256   28.8530 C.ar    1  UNL1        0.1020
     17 O           6.5909   -4.3558   32.1076 O.3     1  UNL1       -0.4602
     18 C           6.3520   -2.9366   32.5305 C.3     1  UNL1        0.2085
     19 C           4.9955   -2.5161   33.0134 C.3     1  UNL1        0.0647
     20 C           4.0890   -1.7307   32.1127 C.3     1  UNL1        0.0760
     21 N           3.6525   -0.3507   32.5064 N.3     1  UNL1       -0.2702
     22 C           4.0267    0.1993   33.8509 C.3     1  UNL1        0.0897
     23 C           2.8419    0.4794   31.5557 C.3     1  UNL1        0.0897
     24 C           5.7354   -2.5574   18.2696 C.3     1  UNL1        0.1110
     25 N           6.0858   -3.5497   19.3384 N.am    1  UNL1       -0.2978
     26 C           7.2313   -3.2778   20.2678 C.2     1  UNL1        0.2666
     27 O           8.0264   -2.0135   20.1284 O.2     1  UNL1       -0.2684
     28 H           5.5640   -4.3795   19.4300 H       1  UNL1        0.1498
     29 N           6.6673   -2.6447   23.1456 N.pl3   1  UNL1       -0.3327
     30 H           7.2297   -1.8496   23.2896 H       1  UNL1        0.1468
     31 C           5.1780   -2.5474   23.2961 C.3     1  UNL1        0.0692
     32 C           4.2795   -3.3351   22.3894 C.3     1  UNL1        0.0212
     33 C           4.5873   -1.6624   24.3534 C.3     1  UNL1        0.0229
     34 C           3.4388   -0.7576   24.0184 C.3     1  UNL1        0.0338
     35 C           2.8481    0.1274   25.0757 C.3     1  UNL1        0.1422
     36 O           3.4060    0.1076   26.4680 O.3     1  UNL1       -0.3538
     37 C           4.5545   -0.7972   26.8030 C.3     1  UNL1        0.1422
     38 C           5.1452   -1.6822   25.7457 C.3     1  UNL1        0.0338
@<TRIPOS>BOND
     1    24    25    1
     2    25    26   am
     3    26    27    2
     4    26     1    1
     5     1     2   ar
     6     2     3   ar
     7     3     4   ar
     8     4     5   ar
     9     5     6   ar
    10     6     7   ar
    11     7    11    1
    12    11    12   ar
    13    12    13   ar
    14    13    14   ar
    15    14    17    1
    16    17    18    1
    17    18    19    1
    18    19    20    1
    19    20    21    1
    20    21    22    1
    21    21    23    1
    22    14    15   ar
    23    15    16   ar
    24     7     8   ar
    25     8     9   ar
    26     9    10   ar
    27    10    29    1
    28    29    31    1
    29    31    32    1
    30    31    33    1
    31    33    34    1
    32    34    35    1
    33    35    36    1
    34    36    37    1
    35    37    38    1
    36    10     1   ar
    37    38    33    1
    38     9     4   ar
    39    16    11   ar
    40    25    28    1
    41    29    30    1
@<TRIPOS>MOLECULE
*****
 38 41 0 0 0
SMALL
GASTEIGER

@<TRIPOS>ATOM
      1 C           6.6625   -4.2973   23.5854 C.ar    1  UNL1        0.1689
      2 N           7.1127   -4.8148   22.2513 N.ar    1  UNL1       -0.1421
      3 N           6.4595   -4.3191   20.9953 N.ar    1  UNL1       -0.1478
      4 C           5.3561   -3.3059   21.0733 C.ar    1  UNL1        0.1041
      5 C           4.7029   -2.8102   19.8173 C.ar    1  UNL1        0.0209
      6 C           3.5996   -1.7970   19.8953 C.ar    1  UNL1        0.0017
      7 C           3.1494   -1.2796   21.2293 C.ar    1  UNL1        0.0016
      8 C           3.8026   -1.7753   22.4853 C.ar    1  UNL1        0.0029
      9 C           4.9059   -2.7884   22.4073 C.ar    1  UNL1        0.0342
     10 C           5.5592   -3.2842   23.6634 C.ar    1  UNL1        0.0702
     11 C           2.0460   -0.2664   21.3073 C.ar    1  UNL1        0.0194
     12 C           2.1075    0.8325   22.3264 C.ar    1  UNL1        0.0063
     13 C           1.0040    1.8457   22.4044 C.ar    1  UNL1        0.0577
     14 C          -0.1608    1.7599   21.4632 C.ar    1  UNL1        0.2249
     15 N          -0.2222    0.6610   20.4440 N.ar    1  UNL1       -0.2101
     16 C           0.8812   -0.3521   20.3661 C.ar    1  UNL1        0.1020
     17 O          -1.2641    2.7730   21.5411 O.3     1  UNL1       -0.4602
     18 C          -2.0120    3.1643   20.3011 C.3     1  UNL1        0.2085
     19 C          -3.5065    3.2884   20.3344 C.3     1  UNL1        0.0647
     20 C          -4.1482    4.4311   21.0641 C.3     1  UNL1        0.0760
     21 N          -4.3615    4.3491   22.5465 N.3     1  UNL1       -0.2702
     22 C          -5.5657    3.6408   23.0929 C.3     1  UNL1        0.0897
     23 C          -3.3708    4.9753   23.4827 C.3     1  UNL1        0.0897
     24 C           8.3015   -6.7439   26.2458 C.3     1  UNL1        0.1110
     25 N           7.6483   -6.2482   24.9898 N.am    1  UNL1       -0.2978
     26 C           7.3157   -4.7931   24.8414 C.2     1  UNL1        0.2666
     27 O           7.6364   -3.8337   25.9490 O.2     1  UNL1       -0.2684
     28 H           7.4379   -6.8779   24.2629 H       1  UNL1        0.1498
     29 N           5.1090   -2.7668   24.9974 N.pl3   1  UNL1       -0.3327
     30 H           4.7011   -3.3797   25.6510 H       1  UNL1        0.1468
     31 C           5.2804   -1.3154   25.3356 C.3     1  UNL1        0.0692
     32 C           6.5159   -0.5847   24.9004 C.3     1  UNL1        0.0212
     33 C           4.2161   -0.5949   26.1090 C.3     1  UNL1        0.0229
     34 C           3.7374    0.7508   25.6511 C.3     1  UNL1        0.0338
     35 C           2.6731    1.4714   26.4245 C.3     1  UNL1        0.1422
     36 O           2.0877    0.8463   27.6559 O.3     1  UNL1       -0.3538
     37 C           2.5665   -0.4995   28.1140 C.3     1  UNL1        0.1422
     38 C           3.6307   -1.2201   27.3405 C.3     1  UNL1        0.0338
@<TRIPOS>BOND
     1    24    25    1
     2    25    26   am
     3    26    27    2
     4    26     1    1
     5     1     2   ar
     6     2     3   ar
     7     3     4   ar
     8     4     5   ar
     9     5     6   ar
    10     6     7   ar
    11     7    11    1
    12    11    12   ar
    13    12    13   ar
    14    13    14   ar
    15    14    17    1
    16    17    18    1
    17    18    19    1
    18    19    20    1
    19    20    21    1
    20    21    22    1
    21    21    23    1
    22    14    15   ar
    23    15    16   ar
    24     7     8   ar
    25     8     9   ar
    26     9    10   ar
    27    10    29    1
    28    29    31    1
    29    31    32    1
    30    31    33    1
    31    33    34    1
    32    34    35    1
    33    35    36    1
    34    36    37    1
    35    37    38    1
    36    10     1   ar
    37    38    33    1
    38     9     4   ar
    39    16    11   ar
    40    25    28    1
    41    29    30    1
@<TRIPOS>MOLECULE
*****
 38 41 0 0 0
SMALL
GASTEIGER

@<TRIPOS>ATOM
      1 C           7.4738   -2.4354   19.9443 C.ar    1  UNL1        0.1689
      2 N           7.7441   -2.5253   18.4716 N.ar    1  UNL1       -0.1421
      3 N           6.7736   -1.9329   17.4933 N.ar    1  UNL1       -0.1478
      4 C           5.5327   -1.2504   17.9877 C.ar    1  UNL1        0.1041
      5 C           4.5622   -0.6579   17.0095 C.ar    1  UNL1        0.0209
      6 C           3.3213    0.0245   17.5039 C.ar    1  UNL1        0.0017
      7 C           3.0509    0.1144   18.9766 C.ar    1  UNL1        0.0016
      8 C           4.0214   -0.4781   19.9549 C.ar    1  UNL1        0.0029
      9 C           5.2623   -1.1605   19.4604 C.ar    1  UNL1        0.0342
     10 C           6.2329   -1.7531   20.4387 C.ar    1  UNL1        0.0702
     11 C           1.8099    0.7968   19.4710 C.ar    1  UNL1        0.0194
     12 C           1.2742    1.9960   18.7466 C.ar    1  UNL1        0.0063
     13 C           0.0332    2.6784   19.2410 C.ar    1  UNL1        0.0577
     14 C          -0.6719    2.1616   20.4598 C.ar    1  UNL1        0.2249
     15 N          -0.1361    0.9624   21.1843 N.ar    1  UNL1       -0.2101
     16 C           1.1048    0.2800   20.6899 C.ar    1  UNL1        0.1020
     17 O          -1.9128    2.8440   20.9543 O.3     1  UNL1       -0.4602
     18 C          -2.7201    3.6990   20.0231 C.3     1  UNL1        0.2085
     19 C          -4.2066    3.8007   20.1971 C.3     1  UNL1        0.0647
     20 C          -4.9013    2.9548   21.2227 C.3     1  UNL1        0.0760
     21 N          -5.2366    3.5300   22.5668 N.3     1  UNL1       -0.2702
     22 C          -4.2261    3.4863   23.6746 C.3     1  UNL1        0.0897
     23 C          -6.5824    4.1489   22.8032 C.3     1  UNL1        0.0897
     24 C           9.5350   -5.1101   22.0294 C.3     1  UNL1        0.1110
     25 N           8.5644   -4.5176   21.0511 N.am    1  UNL1       -0.2978
     26 C           8.4443   -3.0280   20.9225 C.2     1  UNL1        0.2666
     27 O           9.2948   -2.1308   21.7722 O.2     1  UNL1       -0.2684
     28 H           8.0063   -5.1064   20.4935 H       1  UNL1        0.1498
     29 N           5.9625   -1.6632   21.9114 N.pl3   1  UNL1       -0.3327
     30 H           6.1131   -0.8154   22.3887 H       1  UNL1        0.1468
     31 C           5.4627   -2.8651   22.6569 C.3     1  UNL1        0.0692
     32 C           4.5844   -3.8650   21.9651 C.3     1  UNL1        0.0212
     33 C           5.8412   -3.0669   24.0942 C.3     1  UNL1        0.0229
     34 C           6.6166   -4.2845   24.5017 C.3     1  UNL1        0.0338
     35 C           6.9951   -4.4864   25.9391 C.3     1  UNL1        0.1422
     36 O           6.5982   -3.4706   26.9690 O.3     1  UNL1       -0.3538
     37 C           5.8228   -2.2529   26.5615 C.3     1  UNL1        0.1422
     38 C           5.4443   -2.0511   25.1241 C.3     1  UNL1        0.0338
@<TRIPOS>BOND
     1    24    25    1
     2    25    26   am
     3    26    27    2
     4    26     1    1
     5     1     2   ar
     6     2     3   ar
     7     3     4   ar
     8     4     5   ar
     9     5     6   ar
    10     6     7   ar
    11     7    11    1
    12    11    12   ar
    13    12    13   ar
    14    13    14   ar
    15    14    17    1
    16    17    18    1
    17    18    19    1
    18    19    20    1
    19    20    21    1
    20    21    22    1
    21    21    23    1
    22    14    15   ar
    23    15    16   ar
    24     7     8   ar
    25     8     9   ar
    26     9    10   ar
    27    10    29    1
    28    29    31    1
    29    31    32    1
    30    31    33    1
    31    33    34    1
    32    34    35    1
    33    35    36    1
    34    36    37    1
    35    37    38    1
    36    10     1   ar
    37    38    33    1
    38     9     4   ar
    39    16    11   ar
    40    25    28    1
    41    29    30    1
@<TRIPOS>MOLECULE
*****
 38 41 0 0 0
SMALL
GASTEIGER

@<TRIPOS>ATOM
      1 C           6.6982   -3.1727   31.3625 C.ar    1  UNL1        0.1689
      2 N           6.8907   -4.5892   31.8170 N.ar    1  UNL1       -0.1421
      3 N           7.0385   -5.6877   30.8064 N.ar    1  UNL1       -0.1478
      4 C           6.9938   -5.3697   29.3411 C.ar    1  UNL1        0.1041
      5 C           7.1415   -6.4682   28.3305 C.ar    1  UNL1        0.0209
      6 C           7.0968   -6.1503   26.8653 C.ar    1  UNL1        0.0017
      7 C           6.9043   -4.7339   26.4107 C.ar    1  UNL1        0.0016
      8 C           6.7565   -3.6354   27.4213 C.ar    1  UNL1        0.0029
      9 C           6.8013   -3.9533   28.8865 C.ar    1  UNL1        0.0342
     10 C           6.6535   -2.8548   29.8973 C.ar    1  UNL1        0.0702
     11 C           6.8596   -4.4159   24.9454 C.ar    1  UNL1        0.0194
     12 C           6.1045   -3.2136   24.4615 C.ar    1  UNL1        0.0063
     13 C           6.0598   -2.8957   22.9963 C.ar    1  UNL1        0.0577
     14 C           6.7701   -3.7802   22.0149 C.ar    1  UNL1        0.2249
     15 N           7.5252   -4.9826   22.4988 N.ar    1  UNL1       -0.2101
     16 C           7.5699   -5.3005   23.9641 C.ar    1  UNL1        0.1020
     17 O           6.7254   -3.4623   20.5497 O.3     1  UNL1       -0.4602
     18 C           5.6048   -3.9875   19.7022 C.3     1  UNL1        0.2085
     19 C           4.1830   -3.8164   20.1488 C.3     1  UNL1        0.0647
     20 C           3.4175   -2.5865   19.7600 C.3     1  UNL1        0.0760
     21 N           3.6621   -1.2926   20.4783 N.3     1  UNL1       -0.2702
     22 C           4.8152   -0.4198   20.0797 C.3     1  UNL1        0.0897
     23 C           2.7537   -0.8714   21.5951 C.3     1  UNL1        0.0897
     24 C           5.2044   -0.9422   34.2853 C.3     1  UNL1        0.1110
     25 N           5.3521   -2.0407   33.2747 N.am    1  UNL1       -0.2978
     26 C           6.5504   -2.0742   32.3732 C.2     1  UNL1        0.2666
     27 O           7.6011   -1.0092   32.4823 O.2     1  UNL1       -0.2684
     28 H           4.6625   -2.7397   33.2030 H       1  UNL1        0.1498
     29 N           6.4610   -1.4383   29.4427 N.pl3   1  UNL1       -0.3327
     30 H           7.2134   -0.8043   29.4754 H       1  UNL1        0.1468
     31 C           5.1220   -0.9879   28.9382 C.3     1  UNL1        0.0692
     32 C           3.9640   -0.8729   29.8846 C.3     1  UNL1        0.0212
     33 C           4.9412   -0.6526   27.4874 C.3     1  UNL1        0.0229
     34 C           3.6755   -1.0379   26.7807 C.3     1  UNL1        0.0338
     35 C           3.4946   -0.7026   25.3299 C.3     1  UNL1        0.1422
     36 O           4.5795    0.0180   24.5858 O.3     1  UNL1       -0.3538
     37 C           5.8453    0.4033   25.2925 C.3     1  UNL1        0.1422
     38 C           6.0262    0.0680   26.7433 C.3     1  UNL1        0.0338
@<TRIPOS>BOND
     1    24    25    1
     2    25    26   am
     3    26    27    2
     4    26     1    1
     5     1     2   ar
     6     2     3   ar
     7     3     4   ar
     8     4     5   ar
     9     5     6   ar
    10     6     7   ar
    11     7    11    1
    12    11    12   ar
    13    12    13   ar
    14    13    14   ar
    15    14    17    1
    16    17    18    1
    17    18    19    1
    18    19    20    1
    19    20    21    1
    20    21    22    1
    21    21    23    1
    22    14    15   ar
    23    15    16   ar
    24     7     8   ar
    25     8     9   ar
    26     9    10   ar
    27    10    29    1
    28    29    31    1
    29    31    32    1
    30    31    33    1
    31    33    34    1
    32    34    35    1
    33    35    36    1
    34    36    37    1
    35    37    38    1
    36    10     1   ar
    37    38    33    1
    38     9     4   ar
    39    16    11   ar
    40    25    28    1
    41    29    30    1
