@<TRIPOS>MOLECULE
*****
 26 29 0 0 0
SMALL
GASTEIGER

@<TRIPOS>ATOM
      1 C         -11.9776  -17.9210   23.2406 C.2     1  UNL1        0.0919
      2 C         -11.6370  -16.5674   22.6913 C.2     1  UNL1        0.0183
      3 C         -10.3269  -16.3488   21.9945 C.2     1  UNL1        0.0511
      4 C          -9.3573  -17.4837   21.8469 C.2     1  UNL1        0.2322
      5 N          -8.0002  -17.5686   21.2136 N.2     1  UNL1       -0.0295
      6 C          -7.5021  -18.9746   21.3714 C.2     1  UNL1        0.3932
      7 N          -8.5513  -19.7588   22.1024 N.2     1  UNL1       -0.0333
      8 C          -9.6979  -18.8373   22.3962 C.2     1  UNL1        0.2192
      9 C         -11.0080  -19.0559   23.0931 C.3     1  UNL1        0.1226
     10 C          -6.1858  -19.5036   20.8839 C.ar    1  UNL1        0.1694
     11 C          -6.0866  -20.9090   20.3690 C.ar    1  UNL1        0.0270
     12 C          -4.7704  -21.4380   19.8815 C.ar    1  UNL1        0.0033
     13 C          -3.5534  -20.5617   19.9089 C.ar    1  UNL1        0.0192
     14 C          -3.6526  -19.1563   20.4237 C.ar    1  UNL1        0.0815
     15 N          -4.9688  -18.6273   20.9112 N.ar    1  UNL1       -0.2376
     16 C          -2.4354  -18.2799   20.4511 C.ar    1  UNL1        0.0177
     17 C          -1.2142  -18.6680   19.6713 C.ar    1  UNL1        0.0015
     18 C           0.0028  -17.7916   19.6987 C.ar    1  UNL1        0.0000
     19 C          -0.0014  -16.5272   20.5058 C.ar    1  UNL1        0.0000
     20 C          -1.2226  -16.1392   21.2855 C.ar    1  UNL1        0.0000
     21 C          -2.4396  -17.0156   21.2581 C.ar    1  UNL1        0.0015
     22 S         -13.2878  -18.1397   23.9375 S.O2    1  UNL1        0.0054
     23 O         -12.5575  -18.5493   25.1820 O.2     1  UNL1       -0.1689
     24 O         -14.0181  -17.7300   22.6929 O.2     1  UNL1       -0.1689
     25 C         -14.6392  -18.4990   26.1271 C.3     1  UNL1        0.0276
     26 C         -14.5980  -18.3583   24.6343 C.3     1  UNL1        0.1556
@<TRIPOS>BOND
     1    25    26    1
     2    26    22    1
     3    22    23    2
     4    22    24    2
     5    22     1    1
     6     1     2    2
     7     2     3    1
     8     3     4    2
     9     4     5    1
    10     5     6    2
    11     6    10    1
    12    10    11   ar
    13    11    12   ar
    14    12    13   ar
    15    13    14   ar
    16    14    16    1
    17    16    17   ar
    18    17    18   ar
    19    18    19   ar
    20    19    20   ar
    21    20    21   ar
    22    14    15   ar
    23     6     7    1
    24     7     8    2
    25     8     9    1
    26     9     1    1
    27     8     4    1
    28    15    10   ar
    29    21    16   ar
@<TRIPOS>MOLECULE
*****
 26 29 0 0 0
SMALL
GASTEIGER

@<TRIPOS>ATOM
      1 C          -1.7632  -18.1977   20.7796 C.2     1  UNL1        0.0919
      2 C          -1.9163  -18.7251   22.1755 C.2     1  UNL1        0.0183
      3 C          -3.2679  -19.1401   22.6764 C.2     1  UNL1        0.0511
      4 C          -4.4664  -19.0278   21.7815 C.2     1  UNL1        0.2322
      5 N          -5.9139  -19.3569   21.9964 N.2     1  UNL1       -0.0295
      6 C          -6.6555  -19.0329   20.7334 C.2     1  UNL1        0.3932
      7 N          -5.6663  -18.5035   19.7379 N.2     1  UNL1       -0.0333
      8 C          -4.3133  -18.5004   20.3857 C.2     1  UNL1        0.2192
      9 C          -2.9617  -18.0853   19.8847 C.3     1  UNL1        0.1226
     10 C          -8.1279  -19.2077   20.5060 C.ar    1  UNL1        0.1694
     11 C          -8.6298  -19.6839   19.1751 C.ar    1  UNL1        0.0270
     12 C         -10.1021  -19.8586   18.9476 C.ar    1  UNL1        0.0033
     13 C         -11.0724  -19.5572   20.0510 C.ar    1  UNL1        0.0192
     14 C         -10.5705  -19.0810   21.3818 C.ar    1  UNL1        0.0815
     15 N          -9.0982  -18.9062   21.6093 N.ar    1  UNL1       -0.2376
     16 C         -11.5409  -18.7795   22.4853 C.ar    1  UNL1        0.0177
     17 C         -12.7910  -18.0037   22.1934 C.ar    1  UNL1        0.0015
     18 C         -13.7614  -17.7022   23.2968 C.ar    1  UNL1        0.0000
     19 C         -13.4816  -18.1766   24.6921 C.ar    1  UNL1        0.0000
     20 C         -12.2315  -18.9525   24.9839 C.ar    1  UNL1        0.0000
     21 C         -11.2611  -19.2539   23.8805 C.ar    1  UNL1        0.0015
     22 S          -0.4116  -17.7827   20.2787 S.O2    1  UNL1        0.0054
     23 O          -0.1508  -19.1865   19.8192 O.2     1  UNL1       -0.1689
     24 O          -0.6723  -16.3788   20.7382 O.2     1  UNL1       -0.1689
     25 C           2.1273  -17.4189   20.6930 C.3     1  UNL1        0.0276
     26 C           0.9401  -17.3676   19.7778 C.3     1  UNL1        0.1556
@<TRIPOS>BOND
     1    25    26    1
     2    26    22    1
     3    22    23    2
     4    22    24    2
     5    22     1    1
     6     1     2    2
     7     2     3    1
     8     3     4    2
     9     4     5    1
    10     5     6    2
    11     6    10    1
    12    10    11   ar
    13    11    12   ar
    14    12    13   ar
    15    13    14   ar
    16    14    16    1
    17    16    17   ar
    18    17    18   ar
    19    18    19   ar
    20    19    20   ar
    21    20    21   ar
    22    14    15   ar
    23     6     7    1
    24     7     8    2
    25     8     9    1
    26     9     1    1
    27     8     4    1
    28    15    10   ar
    29    21    16   ar
@<TRIPOS>MOLECULE
*****
 26 29 0 0 0
SMALL
GASTEIGER

@<TRIPOS>ATOM
      1 C           3.4585   -1.1017   18.9733 C.2     1  UNL1        0.0919
      2 C           3.9711    0.0953   18.2287 C.2     1  UNL1        0.0183
      3 C           3.1931    1.3777   18.2438 C.2     1  UNL1        0.0511
      4 C           1.9025    1.4631   19.0035 C.2     1  UNL1        0.2322
      5 N           0.9251    2.5840   19.1988 N.2     1  UNL1       -0.0295
      6 C          -0.1916    2.0797   20.0642 C.2     1  UNL1        0.3932
      7 N           0.0957    0.6472   20.4036 N.2     1  UNL1       -0.0333
      8 C           1.3900    0.2661   19.7481 C.2     1  UNL1        0.2192
      9 C           2.1680   -1.0163   19.7330 C.3     1  UNL1        0.1226
     10 C          -1.3859    2.8694   20.5115 C.ar    1  UNL1        0.1694
     11 C          -2.2268    3.5939   19.5025 C.ar    1  UNL1        0.0270
     12 C          -3.4210    4.3836   19.9497 C.ar    1  UNL1        0.0033
     13 C          -3.7745    4.4488   21.4060 C.ar    1  UNL1        0.0192
     14 C          -2.9337    3.7243   22.4150 C.ar    1  UNL1        0.0815
     15 N          -1.7394    2.9346   21.9678 N.ar    1  UNL1       -0.2376
     16 C          -3.2872    3.7895   23.8713 C.ar    1  UNL1        0.0177
     17 C          -2.2406    3.5147   24.9102 C.ar    1  UNL1        0.0015
     18 C          -2.5942    3.5799   26.3664 C.ar    1  UNL1        0.0000
     19 C          -3.9942    3.9200   26.7838 C.ar    1  UNL1        0.0000
     20 C          -5.0408    4.1948   25.7450 C.ar    1  UNL1        0.0000
     21 C          -4.6872    4.1295   24.2888 C.ar    1  UNL1        0.0015
     22 S           4.2365   -2.3841   18.9582 S.O2    1  UNL1        0.0054
     23 O           4.8196   -2.0146   17.6265 O.2     1  UNL1       -0.1689
     24 O           3.6534   -2.7535   20.2899 O.2     1  UNL1       -0.1689
     25 C           4.2932   -4.9815   18.9596 C.3     1  UNL1        0.0276
     26 C           5.0145   -3.6664   18.9431 C.3     1  UNL1        0.1556
@<TRIPOS>BOND
     1    25    26    1
     2    26    22    1
     3    22    23    2
     4    22    24    2
     5    22     1    1
     6     1     2    2
     7     2     3    1
     8     3     4    2
     9     4     5    1
    10     5     6    2
    11     6    10    1
    12    10    11   ar
    13    11    12   ar
    14    12    13   ar
    15    13    14   ar
    16    14    16    1
    17    16    17   ar
    18    17    18   ar
    19    18    19   ar
    20    19    20   ar
    21    20    21   ar
    22    14    15   ar
    23     6     7    1
    24     7     8    2
    25     8     9    1
    26     9     1    1
    27     8     4    1
    28    15    10   ar
    29    21    16   ar
@<TRIPOS>MOLECULE
*****
 26 29 0 0 0
SMALL
GASTEIGER

@<TRIPOS>ATOM
      1 C           7.4902   -5.7310   26.7638 C.2     1  UNL1        0.0919
      2 C           8.1813   -6.7868   25.9528 C.2     1  UNL1        0.0183
      3 C           8.2535   -6.6584   24.4600 C.2     1  UNL1        0.0511
      4 C           7.6346   -5.4743   23.7783 C.2     1  UNL1        0.2322
      5 N           7.5480   -5.0798   22.3337 N.2     1  UNL1       -0.0295
      6 C           6.8033   -3.7803   22.2518 C.2     1  UNL1        0.3932
      7 N           6.4297   -3.3715   23.6459 N.2     1  UNL1       -0.0333
      8 C           6.9435   -4.4185   24.5893 C.2     1  UNL1        0.2192
      9 C           6.8713   -4.5469   26.0820 C.3     1  UNL1        0.1226
     10 C           6.4877   -3.0225   20.9963 C.ar    1  UNL1        0.1694
     11 C           7.4893   -2.9686   19.8810 C.ar    1  UNL1        0.0270
     12 C           7.1737   -2.2109   18.6255 C.ar    1  UNL1        0.0033
     13 C           5.8566   -1.5070   18.4854 C.ar    1  UNL1        0.0192
     14 C           4.8550   -1.5608   19.6008 C.ar    1  UNL1        0.0815
     15 N           5.1706   -2.3186   20.8562 N.ar    1  UNL1       -0.2376
     16 C           3.5378   -0.8569   19.4606 C.ar    1  UNL1        0.0177
     17 C           2.3766   -1.2604   20.3201 C.ar    1  UNL1        0.0015
     18 C           1.0595   -0.5564   20.1799 C.ar    1  UNL1        0.0000
     19 C           0.9037    0.5510   19.1802 C.ar    1  UNL1        0.0000
     20 C           2.0649    0.9545   18.3207 C.ar    1  UNL1        0.0000
     21 C           3.3820    0.2505   18.4609 C.ar    1  UNL1        0.0015
     22 S           7.4180   -5.8594   28.2565 S.O2    1  UNL1        0.0054
     23 O           6.0231   -5.3082   28.2364 O.2     1  UNL1       -0.1689
     24 O           8.8129   -6.4106   28.2766 O.2     1  UNL1       -0.1689
     25 C           6.8935   -4.8244   30.5811 C.3     1  UNL1        0.0276
     26 C           7.3458   -5.9878   29.7493 C.3     1  UNL1        0.1556
@<TRIPOS>BOND
     1    25    26    1
     2    26    22    1
     3    22    23    2
     4    22    24    2
     5    22     1    1
     6     1     2    2
     7     2     3    1
     8     3     4    2
     9     4     5    1
    10     5     6    2
    11     6    10    1
    12    10    11   ar
    13    11    12   ar
    14    12    13   ar
    15    13    14   ar
    16    14    16    1
    17    16    17   ar
    18    17    18   ar
    19    18    19   ar
    20    19    20   ar
    21    20    21   ar
    22    14    15   ar
    23     6     7    1
    24     7     8    2
    25     8     9    1
    26     9     1    1
    27     8     4    1
    28    15    10   ar
    29    21    16   ar
@<TRIPOS>MOLECULE
*****
 26 29 0 0 0
SMALL
GASTEIGER

@<TRIPOS>ATOM
      1 C           1.8304    0.3982   19.6641 C.2     1  UNL1        0.0919
      2 C           2.3529    0.2852   18.2626 C.2     1  UNL1        0.0183
      3 C           3.5882   -0.5193   17.9853 C.2     1  UNL1        0.0511
      4 C           4.3010   -1.2108   19.1094 C.2     1  UNL1        0.2322
      5 N           5.5321   -2.0671   19.1414 N.2     1  UNL1       -0.0295
      6 C           5.7705   -2.4833   20.5626 C.2     1  UNL1        0.3932
      7 N           4.6867   -1.8843   21.4091 N.2     1  UNL1       -0.0333
      8 C           3.7785   -1.0978   20.5109 C.2     1  UNL1        0.2192
      9 C           2.5432   -0.2933   20.7882 C.3     1  UNL1        0.1226
     10 C           6.8952   -3.3471   21.0515 C.ar    1  UNL1        0.1694
     11 C           8.1667   -3.4413   20.2612 C.ar    1  UNL1        0.0270
     12 C           9.2914   -4.3049   20.7500 C.ar    1  UNL1        0.0033
     13 C           9.1447   -5.0744   22.0292 C.ar    1  UNL1        0.0192
     14 C           7.8733   -4.9802   22.8196 C.ar    1  UNL1        0.0815
     15 N           6.7486   -4.1165   22.3307 N.ar    1  UNL1       -0.2376
     16 C           7.7267   -5.7497   24.0988 C.ar    1  UNL1        0.0177
     17 C           7.0204   -5.1318   25.2690 C.ar    1  UNL1        0.0015
     18 C           6.8738   -5.9013   26.5482 C.ar    1  UNL1        0.0000
     19 C           7.4335   -7.2887   26.6572 C.ar    1  UNL1        0.0000
     20 C           8.1397   -7.9066   25.4870 C.ar    1  UNL1        0.0000
     21 C           8.2863   -7.1371   24.2078 C.ar    1  UNL1        0.0015
     22 S           0.5951    1.2026   19.9414 S.O2    1  UNL1        0.0054
     23 O           1.1074    2.2961   19.0516 O.2     1  UNL1       -0.1689
     24 O           0.0828    0.1092   20.8313 O.2     1  UNL1       -0.1689
     25 C          -0.7810    3.3865   19.6467 C.3     1  UNL1        0.0276
     26 C          -0.6402    2.0071   20.2188 C.3     1  UNL1        0.1556
@<TRIPOS>BOND
     1    25    26    1
     2    26    22    1
     3    22    23    2
     4    22    24    2
     5    22     1    1
     6     1     2    2
     7     2     3    1
     8     3     4    2
     9     4     5    1
    10     5     6    2
    11     6    10    1
    12    10    11   ar
    13    11    12   ar
    14    12    13   ar
    15    13    14   ar
    16    14    16    1
    17    16    17   ar
    18    17    18   ar
    19    18    19   ar
    20    19    20   ar
    21    20    21   ar
    22    14    15   ar
    23     6     7    1
    24     7     8    2
    25     8     9    1
    26     9     1    1
    27     8     4    1
    28    15    10   ar
    29    21    16   ar
@<TRIPOS>MOLECULE
*****
 26 29 0 0 0
SMALL
GASTEIGER

@<TRIPOS>ATOM
      1 C           3.3596   -1.6431   20.6129 C.2     1  UNL1        0.0919
      2 C           3.4549   -1.2164   22.0478 C.2     1  UNL1        0.0183
      3 C           2.5590   -0.1321   22.5689 C.2     1  UNL1        0.0511
      4 C           1.5678    0.5256   21.6551 C.2     1  UNL1        0.2322
      5 N           0.5611    1.6140   21.8828 N.2     1  UNL1       -0.0295
      6 C          -0.1564    1.8600   20.5887 C.2     1  UNL1        0.3932
      7 N           0.4069    0.9237   19.5611 N.2     1  UNL1       -0.0333
      8 C           1.4726    0.0990   20.2202 C.2     1  UNL1        0.2192
      9 C           2.3685   -0.9854   19.6992 C.3     1  UNL1        0.1226
     10 C          -1.2459    2.8658   20.3620 C.ar    1  UNL1        0.1694
     11 C          -1.2097    3.7506   19.1513 C.ar    1  UNL1        0.0270
     12 C          -2.2992    4.7564   18.9245 C.ar    1  UNL1        0.0033
     13 C          -3.4248    4.8774   19.9085 C.ar    1  UNL1        0.0192
     14 C          -3.4610    3.9926   21.1192 C.ar    1  UNL1        0.0815
     15 N          -2.3716    2.9868   21.3459 N.ar    1  UNL1       -0.2376
     16 C          -4.5868    4.1136   22.1032 C.ar    1  UNL1        0.0177
     17 C          -5.9541    4.5127   21.6331 C.ar    1  UNL1        0.0015
     18 C          -7.0798    4.6337   22.6171 C.ar    1  UNL1        0.0000
     19 C          -6.8380    4.3556   24.0711 C.ar    1  UNL1        0.0000
     20 C          -5.4707    3.9565   24.5412 C.ar    1  UNL1        0.0000
     21 C          -4.3450    3.8355   23.5572 C.ar    1  UNL1        0.0015
     22 S           4.2555   -2.7275   20.0919 S.O2    1  UNL1        0.0054
     23 O           4.2201   -3.4006   21.4318 O.2     1  UNL1       -0.1689
     24 O           4.2909   -2.0543   18.7519 O.2     1  UNL1       -0.1689
     25 C           4.5607   -5.0071   18.8835 C.3     1  UNL1        0.0276
     26 C           5.1514   -3.8118   19.5708 C.3     1  UNL1        0.1556
@<TRIPOS>BOND
     1    25    26    1
     2    26    22    1
     3    22    23    2
     4    22    24    2
     5    22     1    1
     6     1     2    2
     7     2     3    1
     8     3     4    2
     9     4     5    1
    10     5     6    2
    11     6    10    1
    12    10    11   ar
    13    11    12   ar
    14    12    13   ar
    15    13    14   ar
    16    14    16    1
    17    16    17   ar
    18    17    18   ar
    19    18    19   ar
    20    19    20   ar
    21    20    21   ar
    22    14    15   ar
    23     6     7    1
    24     7     8    2
    25     8     9    1
    26     9     1    1
    27     8     4    1
    28    15    10   ar
    29    21    16   ar
@<TRIPOS>MOLECULE
*****
 26 29 0 0 0
SMALL
GASTEIGER

@<TRIPOS>ATOM
      1 C           3.1275   -1.1820   20.9091 C.2     1  UNL1        0.0919
      2 C           3.6550   -2.1382   19.8808 C.2     1  UNL1        0.0183
      3 C           4.6093   -3.2227   20.2848 C.2     1  UNL1        0.0511
      4 C           5.0362   -3.3509   21.7170 C.2     1  UNL1        0.2322
      5 N           5.9576   -4.3123   22.4075 N.2     1  UNL1       -0.0295
      6 C           5.9996   -3.9502   23.8626 C.2     1  UNL1        0.3932
      7 N           5.1042   -2.7651   24.0713 N.2     1  UNL1       -0.0333
      8 C           4.5088   -2.3947   22.7453 C.2     1  UNL1        0.2192
      9 C           3.5544   -1.3102   22.3413 C.3     1  UNL1        0.1226
     10 C           6.7971   -4.6504   24.9227 C.ar    1  UNL1        0.1694
     11 C           7.8280   -5.6689   24.5357 C.ar    1  UNL1        0.0270
     12 C           8.6255   -6.3691   25.5957 C.ar    1  UNL1        0.0033
     13 C           8.3921   -6.0507   27.0428 C.ar    1  UNL1        0.0192
     14 C           7.3612   -5.0322   27.4298 C.ar    1  UNL1        0.0815
     15 N           6.5637   -4.3320   26.3698 N.ar    1  UNL1       -0.2376
     16 C           7.1277   -4.7138   28.8770 C.ar    1  UNL1        0.0177
     17 C           7.2721   -5.7879   29.9140 C.ar    1  UNL1        0.0015
     18 C           7.0387   -5.4695   31.3611 C.ar    1  UNL1        0.0000
     19 C           6.6609   -4.0770   31.7712 C.ar    1  UNL1        0.0000
     20 C           6.5165   -3.0029   30.7342 C.ar    1  UNL1        0.0000
     21 C           6.7499   -3.3213   29.2871 C.ar    1  UNL1        0.0015
     22 S           2.1732   -0.0975   20.5051 S.O2    1  UNL1        0.0054
     23 O           1.1656   -1.1337   20.1039 O.2     1  UNL1       -0.1689
     24 O           3.1808    0.9386   20.9064 O.2     1  UNL1       -0.1689
     25 C           0.9110    1.2130   18.6507 C.3     1  UNL1        0.0276
     26 C           1.2189    0.9869   20.1012 C.3     1  UNL1        0.1556
@<TRIPOS>BOND
     1    25    26    1
     2    26    22    1
     3    22    23    2
     4    22    24    2
     5    22     1    1
     6     1     2    2
     7     2     3    1
     8     3     4    2
     9     4     5    1
    10     5     6    2
    11     6    10    1
    12    10    11   ar
    13    11    12   ar
    14    12    13   ar
    15    13    14   ar
    16    14    16    1
    17    16    17   ar
    18    17    18   ar
    19    18    19   ar
    20    19    20   ar
    21    20    21   ar
    22    14    15   ar
    23     6     7    1
    24     7     8    2
    25     8     9    1
    26     9     1    1
    27     8     4    1
    28    15    10   ar
    29    21    16   ar
@<TRIPOS>MOLECULE
*****
 26 29 0 0 0
SMALL
GASTEIGER

@<TRIPOS>ATOM
      1 C           6.8826   -4.5226   28.8847 C.2     1  UNL1        0.0919
      2 C           7.2739   -5.8962   28.4265 C.2     1  UNL1        0.0183
      3 C           7.3735   -6.1978   26.9605 C.2     1  UNL1        0.0511
      4 C           7.0819   -5.1258   25.9528 C.2     1  UNL1        0.2322
      5 N           7.0974   -5.1272   24.4529 N.2     1  UNL1       -0.0295
      6 C           6.7157   -3.7544   23.9840 C.2     1  UNL1        0.3932
      7 N           6.4643   -2.9046   25.1942 N.2     1  UNL1       -0.0333
      8 C           6.6907   -3.7522   26.4110 C.2     1  UNL1        0.2192
      9 C           6.5910   -3.4506   27.8769 C.3     1  UNL1        0.1226
     10 C           6.6048   -3.3096   22.5557 C.ar    1  UNL1        0.1694
     11 C           7.7153   -3.6023   21.5908 C.ar    1  UNL1        0.0270
     12 C           7.6045   -3.1575   20.1626 C.ar    1  UNL1        0.0033
     13 C           6.3833   -2.4201   19.6993 C.ar    1  UNL1        0.0192
     14 C           5.2728   -2.1274   20.6643 C.ar    1  UNL1        0.0815
     15 N           5.3836   -2.5722   22.0925 N.ar    1  UNL1       -0.2376
     16 C           4.0514   -1.3900   20.2010 C.ar    1  UNL1        0.0177
     17 C           4.0177   -0.7814   18.8304 C.ar    1  UNL1        0.0015
     18 C           2.7964   -0.0440   18.3671 C.ar    1  UNL1        0.0000
     19 C           1.6089    0.0848   19.2745 C.ar    1  UNL1        0.0000
     20 C           1.6426   -0.5237   20.6450 C.ar    1  UNL1        0.0000
     21 C           2.8639   -1.2611   21.1083 C.ar    1  UNL1        0.0015
     22 S           6.7830   -4.2210   30.3507 S.O2    1  UNL1        0.0054
     23 O           6.8181   -2.7517   30.0508 O.2     1  UNL1       -0.1689
     24 O           6.7479   -5.6903   30.6506 O.2     1  UNL1       -0.1689
     25 C           5.7134   -2.8849   32.3053 C.3     1  UNL1        0.0276
     26 C           6.6834   -3.9194   31.8167 C.3     1  UNL1        0.1556
@<TRIPOS>BOND
     1    25    26    1
     2    26    22    1
     3    22    23    2
     4    22    24    2
     5    22     1    1
     6     1     2    2
     7     2     3    1
     8     3     4    2
     9     4     5    1
    10     5     6    2
    11     6    10    1
    12    10    11   ar
    13    11    12   ar
    14    12    13   ar
    15    13    14   ar
    16    14    16    1
    17    16    17   ar
    18    17    18   ar
    19    18    19   ar
    20    19    20   ar
    21    20    21   ar
    22    14    15   ar
    23     6     7    1
    24     7     8    2
    25     8     9    1
    26     9     1    1
    27     8     4    1
    28    15    10   ar
    29    21    16   ar
@<TRIPOS>MOLECULE
*****
 26 29 0 0 0
SMALL
GASTEIGER

@<TRIPOS>ATOM
      1 C           1.4219    0.9266   29.0899 C.2     1  UNL1        0.0919
      2 C          -0.0332    1.2876   29.1374 C.2     1  UNL1        0.0183
      3 C          -0.7828    1.5501   27.8650 C.2     1  UNL1        0.0511
      4 C          -0.0773    1.4516   26.5449 C.2     1  UNL1        0.2322
      5 N          -0.5511    1.6532   25.1361 N.2     1  UNL1       -0.0295
      6 C           0.6112    1.4168   24.2178 C.2     1  UNL1        0.3932
      7 N           1.8034    1.0691   25.0591 N.2     1  UNL1       -0.0333
      8 C           1.3778    1.0906   26.4974 C.2     1  UNL1        0.2192
      9 C           2.1274    0.8281   27.7699 C.3     1  UNL1        0.1226
     10 C           0.5857    1.5115   22.7210 C.ar    1  UNL1        0.1694
     11 C          -0.3454    2.4747   22.0462 C.ar    1  UNL1        0.0270
     12 C          -0.3709    2.5694   20.5494 C.ar    1  UNL1        0.0033
     13 C           0.5348    1.7010   19.7275 C.ar    1  UNL1        0.0192
     14 C           1.4659    0.7379   20.4023 C.ar    1  UNL1        0.0815
     15 N           1.4914    0.6432   21.8990 N.ar    1  UNL1       -0.2376
     16 C           2.3716   -0.1305   19.5802 C.ar    1  UNL1        0.0177
     17 C           2.8244    0.3283   18.2258 C.ar    1  UNL1        0.0015
     18 C           3.7300   -0.5401   17.4039 C.ar    1  UNL1        0.0000
     19 C           4.1829   -1.8673   17.9363 C.ar    1  UNL1        0.0000
     20 C           3.7301   -2.3261   19.2907 C.ar    1  UNL1        0.0000
     21 C           2.8245   -1.4577   20.1127 C.ar    1  UNL1        0.0015
     22 S           2.1715    0.6641   30.3624 S.O2    1  UNL1        0.0054
     23 O           3.3413    0.1612   29.5695 O.2     1  UNL1       -0.1689
     24 O           1.0017    1.1670   31.1552 O.2     1  UNL1       -0.1689
     25 C           3.6248   -0.9080   31.8343 C.3     1  UNL1        0.0276
     26 C           2.9211    0.4016   31.6349 C.3     1  UNL1        0.1556
@<TRIPOS>BOND
     1    25    26    1
     2    26    22    1
     3    22    23    2
     4    22    24    2
     5    22     1    1
     6     1     2    2
     7     2     3    1
     8     3     4    2
     9     4     5    1
    10     5     6    2
    11     6    10    1
    12    10    11   ar
    13    11    12   ar
    14    12    13   ar
    15    13    14   ar
    16    14    16    1
    17    16    17   ar
    18    17    18   ar
    19    18    19   ar
    20    19    20   ar
    21    20    21   ar
    22    14    15   ar
    23     6     7    1
    24     7     8    2
    25     8     9    1
    26     9     1    1
    27     8     4    1
    28    15    10   ar
    29    21    16   ar
