@<TRIPOS>MOLECULE
*****
 45 49 0 0 0
SMALL
GASTEIGER

@<TRIPOS>ATOM
      1 C           4.4729    0.7103   26.9193 C.3     1  UNL1        0.0771
      2 C           3.5087    1.0819   28.0066 C.3     1  UNL1        0.0370
      3 C           2.1454    1.5994   27.6554 C.3     1  UNL1        0.0737
      4 N           1.7461    1.7453   26.2169 N.3     1  UNL1       -0.2737
      5 C           2.7103    1.3737   25.1296 C.3     1  UNL1        0.0750
      6 C           4.0736    0.8562   25.4808 C.3     1  UNL1        0.0500
      7 C           0.3827    2.2628   25.8657 C.3     1  UNL1        0.0609
      8 C          -0.6175    2.5370   26.9494 C.3     1  UNL1        0.0375
      9 C          -1.9809    3.0546   26.5982 C.3     1  UNL1        0.0948
     10 N          -2.3441    3.2978   25.1634 N.am    1  UNL1       -0.2794
     11 C          -3.7075    3.8153   24.8122 C.2     1  UNL1        0.2261
     12 C          -4.7077    4.0896   25.8959 C.3     1  UNL1        0.0948
     13 O          -4.0707    4.0586   23.3773 O.2     1  UNL1       -0.2749
     14 C          -1.3439    3.0236   24.0796 C.3     1  UNL1        0.0948
     15 C           0.0195    2.5061   24.4308 C.3     1  UNL1        0.0375
     16 N           7.3694   -1.7451   28.0732 N.am    1  UNL1       -0.2485
     17 C           6.0060   -1.2275   27.7220 C.2     1  UNL1        0.3058
     18 O           4.8123   -2.1303   27.8224 O.2     1  UNL1       -0.2524
     19 N           5.8363    0.1928   27.2705 N.am    1  UNL1       -0.2901
     20 H           8.1528   -1.1526   28.0073 H       1  UNL1        0.1583
     21 H           6.6198    0.7853   27.2046 H       1  UNL1        0.1509
     22 C           7.7662   -5.1277   29.9348 C.ar    1  UNL1        0.0803
     23 S           7.5838   -3.6389   29.9473 S.2     1  UNL1       -0.0488
     24 C           7.5391   -3.1654   28.5247 C.ar    1  UNL1        0.1664
     25 N           7.6938   -4.3616   27.6330 N.ar    1  UNL1       -0.2282
     26 C           7.8342   -5.5744   28.5045 C.ar    1  UNL1        0.0701
     27 C           8.0115   -6.9859   28.0290 C.3     1  UNL1        0.0528
     28 C           9.1476   -6.7269   31.4462 C.3     1  UNL1        0.0779
     29 C           7.8635   -6.0143   31.1409 C.2     1  UNL1        0.1807
     30 O           6.6769   -6.1881   32.0416 O.2     1  UNL1       -0.2908
     31 C           5.0379    0.4846   24.3934 C.3     1  UNL1        0.0751
     32 N           4.9048   -0.8344   23.6916 N.3     1  UNL1       -0.2726
     33 C           5.4581   -2.0783   24.3215 C.3     1  UNL1        0.0721
     34 C           5.3251   -3.3973   23.6196 C.3     1  UNL1        0.0174
     35 C           4.6387   -3.4724   22.2879 C.3     1  UNL1        0.0031
     36 C           4.0854   -2.2285   21.6581 C.3     1  UNL1        0.0204
     37 C           4.2185   -0.9095   22.3600 C.3     1  UNL1        0.0724
     38 C           3.3991   -2.3036   20.3265 C.3     1  UNL1        0.0277
     39 C           2.6697   -1.1077   19.7902 C.ar    1  UNL1       -0.0220
     40 C           1.2991   -0.7741   20.3004 C.ar    1  UNL1       -0.0020
     41 C           0.5697    0.4219   19.7641 C.ar    1  UNL1        0.0293
     42 C           1.2109    1.2843   18.7176 C.ar    1  UNL1        0.1401
     43 F           0.4815    2.4803   18.1813 F       1  UNL1       -0.2042
     44 C           2.5814    0.9507   18.2074 C.ar    1  UNL1        0.0293
     45 C           3.3108   -0.2453   18.7437 C.ar    1  UNL1       -0.0020
@<TRIPOS>BOND
     1    28    29    1
     2    29    30    2
     3    29    22    1
     4    22    23   ar
     5    23    24   ar
     6    24    16    1
     7    16    17   am
     8    17    18    2
     9    17    19   am
    10     1    19    1
    11     1     2    1
    12     2     3    1
    13     3     4    1
    14     4     7    1
    15     7     8    1
    16     8     9    1
    17     9    10    1
    18    10    11   am
    19    11    12    1
    20    11    13    2
    21    10    14    1
    22    14    15    1
    23     4     5    1
    24     5     6    1
    25     6    31    1
    26    31    32    1
    27    32    33    1
    28    33    34    1
    29    34    35    1
    30    35    36    1
    31    36    38    1
    32    38    39    1
    33    39    40   ar
    34    40    41   ar
    35    41    42   ar
    36    42    43    1
    37    42    44   ar
    38    44    45   ar
    39    36    37    1
    40    24    25   ar
    41    25    26   ar
    42    26    27    1
    43    26    22   ar
    44     6     1    1
    45    37    32    1
    46    15     7    1
    47    45    39   ar
    48    16    20    1
    49    19    21    1
@<TRIPOS>MOLECULE
*****
 45 49 0 0 0
SMALL
GASTEIGER

@<TRIPOS>ATOM
      1 C           2.3106    1.5298   19.4006 C.3     1  UNL1        0.0771
      2 C           2.4202    0.2946   18.5567 C.3     1  UNL1        0.0370
      3 C           3.4124   -0.7721   18.9139 C.3     1  UNL1        0.0737
      4 N           4.2950   -0.6036   20.1150 N.3     1  UNL1       -0.2737
      5 C           4.1854    0.6316   20.9589 C.3     1  UNL1        0.0750
      6 C           3.1932    1.6983   20.6017 C.3     1  UNL1        0.0500
      7 C           5.2873   -1.6704   20.4721 C.3     1  UNL1        0.0609
      8 C           6.5594   -1.8040   19.6887 C.3     1  UNL1        0.0375
      9 C           7.5517   -2.8708   20.0459 C.3     1  UNL1        0.0948
     10 N           7.2717   -3.8039   21.1865 N.am    1  UNL1       -0.2794
     11 C           8.2639   -4.8706   21.5437 C.2     1  UNL1        0.2261
     12 C           9.5360   -5.0043   20.7603 C.3     1  UNL1        0.0948
     13 O           7.9839   -5.8037   22.6843 O.2     1  UNL1       -0.2749
     14 C           5.9995   -3.6702   21.9699 C.3     1  UNL1        0.0948
     15 C           5.0073   -2.6035   21.6127 C.3     1  UNL1        0.0375
     16 N          -1.0532    3.6320   19.2750 N.am    1  UNL1       -0.2485
     17 C          -0.0610    2.5653   19.6321 C.2     1  UNL1        0.3058
     18 O          -0.4480    1.4672   20.5779 O.2     1  UNL1       -0.2524
     19 N           1.3183    2.5966   19.0434 N.am    1  UNL1       -0.2901
     20 H          -0.7992    4.3527   18.6542 H       1  UNL1        0.1583
     21 H           1.5724    3.3172   18.4227 H       1  UNL1        0.1509
     22 C          -4.8393    3.7864   20.1161 C.ar    1  UNL1        0.0803
     23 S          -3.7031    3.9606   19.1523 S.2     1  UNL1       -0.0488
     24 C          -2.4325    3.6007   19.8637 C.ar    1  UNL1        0.1664
     25 N          -2.7834    3.2040   21.2670 N.ar    1  UNL1       -0.2282
     26 C          -4.2709    3.3188   21.4230 C.ar    1  UNL1        0.0701
     27 C          -5.0526    3.0186   22.6675 C.3     1  UNL1        0.0528
     28 C          -6.9714    3.2864   18.7182 C.3     1  UNL1        0.0779
     29 C          -6.2893    4.0359   19.8240 C.2     1  UNL1        0.1807
     30 O          -7.0571    5.0350   20.6378 O.2     1  UNL1       -0.2908
     31 C           3.0836    2.9336   21.4456 C.3     1  UNL1        0.0751
     32 N           1.9315    3.0952   22.3925 N.3     1  UNL1       -0.2726
     33 C           1.1169    4.3547   22.3746 C.3     1  UNL1        0.0721
     34 C          -0.0351    4.5162   23.3215 C.3     1  UNL1        0.0174
     35 C          -0.3726    3.4183   24.2863 C.3     1  UNL1        0.0031
     36 C           0.4420    2.1589   24.3042 C.3     1  UNL1        0.0204
     37 C           1.5940    1.9974   23.3573 C.3     1  UNL1        0.0724
     38 C           0.1045    1.0610   25.2690 C.3     1  UNL1        0.0277
     39 C           0.2558    1.2863   26.7443 C.ar    1  UNL1       -0.0220
     40 C          -0.7185    0.6661   27.7015 C.ar    1  UNL1       -0.0020
     41 C          -0.5672    0.8913   29.1767 C.ar    1  UNL1        0.0293
     42 C           0.5584    1.7368   29.6948 C.ar    1  UNL1        0.1401
     43 F           0.7097    1.9620   31.1700 F       1  UNL1       -0.2042
     44 C           1.5327    2.3569   28.7376 C.ar    1  UNL1        0.0293
     45 C           1.3814    2.1316   27.2623 C.ar    1  UNL1       -0.0020
@<TRIPOS>BOND
     1    28    29    1
     2    29    30    2
     3    29    22    1
     4    22    23   ar
     5    23    24   ar
     6    24    16    1
     7    16    17   am
     8    17    18    2
     9    17    19   am
    10     1    19    1
    11     1     2    1
    12     2     3    1
    13     3     4    1
    14     4     7    1
    15     7     8    1
    16     8     9    1
    17     9    10    1
    18    10    11   am
    19    11    12    1
    20    11    13    2
    21    10    14    1
    22    14    15    1
    23     4     5    1
    24     5     6    1
    25     6    31    1
    26    31    32    1
    27    32    33    1
    28    33    34    1
    29    34    35    1
    30    35    36    1
    31    36    38    1
    32    38    39    1
    33    39    40   ar
    34    40    41   ar
    35    41    42   ar
    36    42    43    1
    37    42    44   ar
    38    44    45   ar
    39    36    37    1
    40    24    25   ar
    41    25    26   ar
    42    26    27    1
    43    26    22   ar
    44     6     1    1
    45    37    32    1
    46    15     7    1
    47    45    39   ar
    48    16    20    1
    49    19    21    1
@<TRIPOS>MOLECULE
*****
 45 49 0 0 0
SMALL
GASTEIGER

@<TRIPOS>ATOM
      1 C           1.1806    2.9082   24.9993 C.3     1  UNL1        0.0771
      2 C           0.2912    2.7100   26.1908 C.3     1  UNL1        0.0370
      3 C          -1.1655    3.0571   26.1053 C.3     1  UNL1        0.0737
      4 N          -1.7330    3.6022   24.8282 N.3     1  UNL1       -0.2737
      5 C          -0.8436    3.8003   23.6367 C.3     1  UNL1        0.0750
      6 C           0.6131    3.4533   23.7222 C.3     1  UNL1        0.0500
      7 C          -3.1898    3.9492   24.7427 C.3     1  UNL1        0.0609
      8 C          -3.7696    4.9835   25.6614 C.3     1  UNL1        0.0375
      9 C          -5.2265    5.3305   25.5759 C.3     1  UNL1        0.0948
     10 N          -6.1035    4.6431   24.5717 N.am    1  UNL1       -0.2794
     11 C          -7.5602    4.9901   24.4862 C.2     1  UNL1        0.2261
     12 C          -8.1400    6.0244   25.4049 C.3     1  UNL1        0.0948
     13 O          -8.4372    4.3027   23.4820 O.2     1  UNL1       -0.2749
     14 C          -5.5236    3.6088   23.6530 C.3     1  UNL1        0.0948
     15 C          -4.0668    3.2618   23.7385 C.3     1  UNL1        0.0375
     16 N           4.5532    0.8215   24.8543 N.am    1  UNL1       -0.2485
     17 C           3.0965    1.1685   24.7688 C.2     1  UNL1        0.3058
     18 O           2.0986    0.1229   24.3674 O.2     1  UNL1       -0.2524
     19 N           2.6374    2.5611   25.0847 N.am    1  UNL1       -0.2901
     20 H           5.2081    1.5077   25.1177 H       1  UNL1        0.1583
     21 H           3.2923    3.2474   25.3482 H       1  UNL1        0.1509
     22 C           5.5141   -2.6194   23.3369 C.ar    1  UNL1        0.0803
     23 S           4.9511   -1.2363   23.1953 S.2     1  UNL1       -0.0488
     24 C           5.0123   -0.5712   24.5383 C.ar    1  UNL1        0.1664
     25 N           5.6131   -1.5432   25.5100 N.ar    1  UNL1       -0.2282
     26 C           5.9232   -2.8091   24.7675 C.ar    1  UNL1        0.0701
     27 C           6.5351   -4.0473   25.3528 C.3     1  UNL1        0.0528
     28 C           6.9162   -3.7244   21.4492 C.3     1  UNL1        0.0779
     29 C           5.6449   -3.6346   22.2404 C.2     1  UNL1        0.1807
     30 O           4.5046   -4.5599   21.9350 O.2     1  UNL1       -0.2908
     31 C           1.5026    3.6514   22.5306 C.3     1  UNL1        0.0751
     32 N           1.3055    2.8160   21.3005 N.3     1  UNL1       -0.2726
     33 C           0.7517    3.4375   20.0526 C.3     1  UNL1        0.0721
     34 C           0.5546    2.6021   18.8225 C.3     1  UNL1        0.0174
     35 C           0.9112    1.1452   18.8402 C.3     1  UNL1        0.0031
     36 C           1.4649    0.5237   20.0880 C.3     1  UNL1        0.0204
     37 C           1.6621    1.3591   21.3182 C.3     1  UNL1        0.0724
     38 C           1.8216   -0.9332   20.1058 C.3     1  UNL1        0.0277
     39 C           3.1115   -1.3971   19.4968 C.ar    1  UNL1       -0.0220
     40 C           4.1853   -0.4030   19.1667 C.ar    1  UNL1       -0.0020
     41 C           5.4752   -0.8668   18.5577 C.ar    1  UNL1        0.0293
     42 C           5.6914   -2.3247   18.2788 C.ar    1  UNL1        0.1401
     43 F           6.9814   -2.7886   17.6698 F       1  UNL1       -0.2042
     44 C           4.6177   -3.3188   18.6089 C.ar    1  UNL1        0.0293
     45 C           3.3278   -2.8549   19.2179 C.ar    1  UNL1       -0.0020
@<TRIPOS>BOND
     1    28    29    1
     2    29    30    2
     3    29    22    1
     4    22    23   ar
     5    23    24   ar
     6    24    16    1
     7    16    17   am
     8    17    18    2
     9    17    19   am
    10     1    19    1
    11     1     2    1
    12     2     3    1
    13     3     4    1
    14     4     7    1
    15     7     8    1
    16     8     9    1
    17     9    10    1
    18    10    11   am
    19    11    12    1
    20    11    13    2
    21    10    14    1
    22    14    15    1
    23     4     5    1
    24     5     6    1
    25     6    31    1
    26    31    32    1
    27    32    33    1
    28    33    34    1
    29    34    35    1
    30    35    36    1
    31    36    38    1
    32    38    39    1
    33    39    40   ar
    34    40    41   ar
    35    41    42   ar
    36    42    43    1
    37    42    44   ar
    38    44    45   ar
    39    36    37    1
    40    24    25   ar
    41    25    26   ar
    42    26    27    1
    43    26    22   ar
    44     6     1    1
    45    37    32    1
    46    15     7    1
    47    45    39   ar
    48    16    20    1
    49    19    21    1
@<TRIPOS>MOLECULE
*****
 45 49 0 0 0
SMALL
GASTEIGER

@<TRIPOS>ATOM
      1 C           0.5405    3.0128   26.9387 C.3     1  UNL1        0.0771
      2 C          -0.2172    4.0232   27.7479 C.3     1  UNL1        0.0370
      3 C          -1.6085    4.4145   27.3467 C.3     1  UNL1        0.0737
      4 N          -2.2421    3.7954   26.1362 N.3     1  UNL1       -0.2737
      5 C          -1.4844    2.7850   25.3269 C.3     1  UNL1        0.0750
      6 C          -0.0931    2.3937   25.7282 C.3     1  UNL1        0.0500
      7 C          -3.6335    4.1868   25.7349 C.3     1  UNL1        0.0609
      8 C          -4.4471    5.0802   26.6236 C.3     1  UNL1        0.0375
      9 C          -5.8385    5.4716   26.2224 C.3     1  UNL1        0.0948
     10 N          -6.4162    4.9695   24.9324 N.am    1  UNL1       -0.2794
     11 C          -7.8075    5.3608   24.5311 C.2     1  UNL1        0.2261
     12 C          -8.6211    6.2542   25.4198 C.3     1  UNL1        0.0948
     13 O          -8.3853    4.8587   23.2411 O.2     1  UNL1       -0.2749
     14 C          -5.6026    4.0760   24.0437 C.3     1  UNL1        0.0948
     15 C          -4.2113    3.6847   24.4449 C.3     1  UNL1        0.0375
     16 N           3.5578    1.5264   29.0450 N.am    1  UNL1       -0.2485
     17 C           2.1665    1.9177   28.6437 C.2     1  UNL1        0.3058
     18 O           1.0098    1.6054   29.5462 O.2     1  UNL1       -0.2524
     19 N           1.9319    2.6214   27.3400 N.am    1  UNL1       -0.2901
     20 H           4.3170    1.7314   28.4527 H       1  UNL1        0.1583
     21 H           2.6911    2.8264   26.7476 H       1  UNL1        0.1509
     22 C           4.2745   -0.9022   31.9868 C.ar    1  UNL1        0.0803
     23 S           4.1261   -0.6297   30.5192 S.2     1  UNL1       -0.0488
     24 C           3.7925    0.8227   30.3488 C.ar    1  UNL1        0.1664
     25 N           3.7346    1.4479   31.7110 N.ar    1  UNL1       -0.2282
     26 C           4.0325    0.3819   32.7234 C.ar    1  UNL1        0.0701
     27 C           4.0801    0.5674   34.2111 C.3     1  UNL1        0.0528
     28 C           5.8638   -2.9445   32.2168 C.3     1  UNL1        0.0779
     29 C           4.6066   -2.2263   32.6085 C.2     1  UNL1        0.1807
     30 O           3.6814   -2.8320   33.6219 O.2     1  UNL1       -0.2908
     31 C           0.6647    1.3833   24.9190 C.3     1  UNL1        0.0751
     32 N           1.2619    1.7743   23.5997 N.3     1  UNL1       -0.2726
     33 C           2.1239    2.9979   23.4998 C.3     1  UNL1        0.0721
     34 C           2.7210    3.3889   22.1805 C.3     1  UNL1        0.0174
     35 C           2.4561    2.5565   20.9611 C.3     1  UNL1        0.0031
     36 C           1.5941    1.3330   21.0610 C.3     1  UNL1        0.0204
     37 C           0.9970    0.9419   22.3803 C.3     1  UNL1        0.0724
     38 C           1.3292    0.5005   19.8416 C.3     1  UNL1        0.0277
     39 C           2.3925   -0.4166   19.3141 C.ar    1  UNL1       -0.0220
     40 C           2.7636   -1.6527   20.0787 C.ar    1  UNL1       -0.0020
     41 C           3.8269   -2.5698   19.5512 C.ar    1  UNL1        0.0293
     42 C           4.5191   -2.2509   18.2592 C.ar    1  UNL1        0.1401
     43 F           5.5824   -3.1680   17.7317 F       1  UNL1       -0.2042
     44 C           4.1480   -1.0148   17.4947 C.ar    1  UNL1        0.0293
     45 C           3.0847   -0.0977   18.0222 C.ar    1  UNL1       -0.0020
@<TRIPOS>BOND
     1    28    29    1
     2    29    30    2
     3    29    22    1
     4    22    23   ar
     5    23    24   ar
     6    24    16    1
     7    16    17   am
     8    17    18    2
     9    17    19   am
    10     1    19    1
    11     1     2    1
    12     2     3    1
    13     3     4    1
    14     4     7    1
    15     7     8    1
    16     8     9    1
    17     9    10    1
    18    10    11   am
    19    11    12    1
    20    11    13    2
    21    10    14    1
    22    14    15    1
    23     4     5    1
    24     5     6    1
    25     6    31    1
    26    31    32    1
    27    32    33    1
    28    33    34    1
    29    34    35    1
    30    35    36    1
    31    36    38    1
    32    38    39    1
    33    39    40   ar
    34    40    41   ar
    35    41    42   ar
    36    42    43    1
    37    42    44   ar
    38    44    45   ar
    39    36    37    1
    40    24    25   ar
    41    25    26   ar
    42    26    27    1
    43    26    22   ar
    44     6     1    1
    45    37    32    1
    46    15     7    1
    47    45    39   ar
    48    16    20    1
    49    19    21    1
@<TRIPOS>MOLECULE
*****
 45 49 0 0 0
SMALL
GASTEIGER

@<TRIPOS>ATOM
      1 C           1.3802    2.6089   24.8379 C.3     1  UNL1        0.0771
      2 C           0.2722    2.1597   25.7437 C.3     1  UNL1        0.0370
      3 C          -1.1501    2.5082   25.4187 C.3     1  UNL1        0.0737
      4 N          -1.4643    3.3059   24.1879 N.3     1  UNL1       -0.2737
      5 C          -0.3563    3.7551   23.2821 C.3     1  UNL1        0.0750
      6 C           1.0660    3.4066   23.6071 C.3     1  UNL1        0.0500
      7 C          -2.8866    3.6545   23.8629 C.3     1  UNL1        0.0609
      8 C          -3.9397    3.5783   24.9283 C.3     1  UNL1        0.0375
      9 C          -5.3620    3.9269   24.6033 C.3     1  UNL1        0.0948
     10 N          -5.7312    4.3515   23.2129 N.am    1  UNL1       -0.2794
     11 C          -7.1535    4.7000   22.8879 C.2     1  UNL1        0.2261
     12 C          -8.2065    4.6239   23.9533 C.3     1  UNL1        0.0948
     13 O          -7.5227    5.1247   21.4974 O.2     1  UNL1       -0.2749
     14 C          -4.6781    4.4276   22.1474 C.3     1  UNL1        0.0948
     15 C          -3.2558    4.0791   22.4724 C.3     1  UNL1        0.0375
     16 N           4.7990    0.6029   25.0327 N.am    1  UNL1       -0.2485
     17 C           3.3768    0.9515   24.7077 C.2     1  UNL1        0.3058
     18 O           2.5287   -0.0088   23.9275 O.2     1  UNL1       -0.2524
     19 N           2.8025    2.2603   25.1629 N.am    1  UNL1       -0.2901
     20 H           5.3557    1.2332   25.5447 H       1  UNL1        0.1583
     21 H           3.3591    2.8906   25.6750 H       1  UNL1        0.1509
     22 C           6.3023   -2.4564   23.1763 C.ar    1  UNL1        0.0803
     23 S           5.7842   -1.0488   23.1762 S.2     1  UNL1       -0.0488
     24 C           5.3733   -0.7059   24.5775 C.ar    1  UNL1        0.1664
     25 N           5.6375   -1.9017   25.4436 N.ar    1  UNL1       -0.2282
     26 C           6.2116   -2.9836   24.5777 C.ar    1  UNL1        0.0701
     27 C           6.6229   -4.3523   25.0331 C.3     1  UNL1        0.0528
     28 C           7.9619   -2.6486   21.1867 C.3     1  UNL1        0.0779
     29 C           6.8201   -3.2054   21.9843 C.2     1  UNL1        0.1807
     30 O           6.1962   -4.5112   21.5899 O.2     1  UNL1       -0.2908
     31 C           2.1741    3.8558   22.7013 C.3     1  UNL1        0.0751
     32 N           2.4131    3.1479   21.4007 N.3     1  UNL1       -0.2726
     33 C           1.4499    3.3220   20.2639 C.3     1  UNL1        0.0721
     34 C           1.6889    2.6140   18.9633 C.3     1  UNL1        0.0174
     35 C           2.8911    1.7320   18.7993 C.3     1  UNL1        0.0031
     36 C           3.8542    1.5579   19.9360 C.3     1  UNL1        0.0204
     37 C           3.6152    2.2659   21.2367 C.3     1  UNL1        0.0724
     38 C           5.0564    0.6759   19.7721 C.3     1  UNL1        0.0277
     39 C           4.8817   -0.7741   19.4301 C.ar    1  UNL1       -0.0220
     40 C           5.8485   -1.4475   18.5016 C.ar    1  UNL1       -0.0020
     41 C           5.6738   -2.8975   18.1596 C.ar    1  UNL1        0.0293
     42 C           4.5323   -3.6741   18.7461 C.ar    1  UNL1        0.1401
     43 F           4.3576   -5.1242   18.4042 F       1  UNL1       -0.2042
     44 C           3.5656   -3.0008   19.6746 C.ar    1  UNL1        0.0293
     45 C           3.7403   -1.5508   20.0166 C.ar    1  UNL1       -0.0020
@<TRIPOS>BOND
     1    28    29    1
     2    29    30    2
     3    29    22    1
     4    22    23   ar
     5    23    24   ar
     6    24    16    1
     7    16    17   am
     8    17    18    2
     9    17    19   am
    10     1    19    1
    11     1     2    1
    12     2     3    1
    13     3     4    1
    14     4     7    1
    15     7     8    1
    16     8     9    1
    17     9    10    1
    18    10    11   am
    19    11    12    1
    20    11    13    2
    21    10    14    1
    22    14    15    1
    23     4     5    1
    24     5     6    1
    25     6    31    1
    26    31    32    1
    27    32    33    1
    28    33    34    1
    29    34    35    1
    30    35    36    1
    31    36    38    1
    32    38    39    1
    33    39    40   ar
    34    40    41   ar
    35    41    42   ar
    36    42    43    1
    37    42    44   ar
    38    44    45   ar
    39    36    37    1
    40    24    25   ar
    41    25    26   ar
    42    26    27    1
    43    26    22   ar
    44     6     1    1
    45    37    32    1
    46    15     7    1
    47    45    39   ar
    48    16    20    1
    49    19    21    1
@<TRIPOS>MOLECULE
*****
 45 49 0 0 0
SMALL
GASTEIGER

@<TRIPOS>ATOM
      1 C           0.8230    3.2092   28.9976 C.3     1  UNL1        0.0771
      2 C           0.2872    4.5664   28.6500 C.3     1  UNL1        0.0370
      3 C          -0.8299    4.7002   27.6580 C.3     1  UNL1        0.0737
      4 N          -1.4111    3.4768   27.0135 N.3     1  UNL1       -0.2737
      5 C          -0.8753    2.1196   27.3610 C.3     1  UNL1        0.0750
      6 C           0.2417    1.9858   28.3531 C.3     1  UNL1        0.0500
      7 C          -2.5283    3.6107   26.0214 C.3     1  UNL1        0.0609
      8 C          -3.9196    3.9107   26.4946 C.3     1  UNL1        0.0375
      9 C          -5.0368    4.0446   25.5025 C.3     1  UNL1        0.0948
     10 N          -4.7624    3.8783   24.0372 N.am    1  UNL1       -0.2794
     11 C          -5.8795    4.0122   23.0451 C.2     1  UNL1        0.2261
     12 C          -7.2708    4.3122   23.5183 C.3     1  UNL1        0.0948
     13 O          -5.6051    3.8460   21.5798 O.2     1  UNL1       -0.2749
     14 C          -3.3710    3.5783   23.5640 C.3     1  UNL1        0.0948
     15 C          -2.2539    3.4445   24.5561 C.3     1  UNL1        0.0375
     16 N           2.7905    3.1464   32.4436 N.am    1  UNL1       -0.2485
     17 C           1.6735    3.2802   31.4515 C.2     1  UNL1        0.3058
     18 O           0.2897    3.6189   31.9212 O.2     1  UNL1       -0.2524
     19 N           1.9401    3.0754   29.9897 N.am    1  UNL1       -0.2901
     20 H           3.6987    2.9241   32.1353 H       1  UNL1        0.1583
     21 H           2.8483    2.8531   29.6814 H       1  UNL1        0.1509
     22 C           2.3859    2.9829   36.3004 C.ar    1  UNL1        0.0803
     23 S           2.8077    2.3657   35.0000 S.2     1  UNL1       -0.0488
     24 C           2.5239    3.3512   33.9054 C.ar    1  UNL1        0.1664
     25 N           1.9266    4.5776   34.5294 N.ar    1  UNL1       -0.2282
     26 C           1.8413    4.3500   36.0095 C.ar    1  UNL1        0.0701
     27 C           1.3055    5.3193   37.0212 C.3     1  UNL1        0.0528
     28 C           3.8383    2.0520   38.2430 C.3     1  UNL1        0.0779
     29 C           2.4903    2.3451   37.6540 C.2     1  UNL1        0.1807
     30 O           1.2467    2.0004   38.4186 O.2     1  UNL1       -0.2908
     31 C           0.7776    0.6285   28.7007 C.3     1  UNL1        0.0751
     32 N           2.1912    0.2684   28.3516 N.3     1  UNL1       -0.2726
     33 C           2.7499    0.6384   27.0095 C.3     1  UNL1        0.0721
     34 C           4.1636    0.2783   26.6604 C.3     1  UNL1        0.0174
     35 C           5.0185   -0.4519   27.6534 C.3     1  UNL1        0.0031
     36 C           4.4599   -0.8219   28.9954 C.3     1  UNL1        0.0204
     37 C           3.0462   -0.4618   29.3445 C.3     1  UNL1        0.0724
     38 C           5.3148   -1.5522   29.9883 C.3     1  UNL1        0.0277
     39 C           5.1722   -1.2668   31.4540 C.ar    1  UNL1       -0.0220
     40 C           4.5321   -2.2797   32.3564 C.ar    1  UNL1       -0.0020
     41 C           4.3894   -1.9944   33.8221 C.ar    1  UNL1        0.0293
     42 C           4.8868   -0.6961   34.3854 C.ar    1  UNL1        0.1401
     43 F           4.7441   -0.4108   35.8510 F       1  UNL1       -0.2042
     44 C           5.5268    0.3167   33.4829 C.ar    1  UNL1        0.0293
     45 C           5.6695    0.0314   32.0172 C.ar    1  UNL1       -0.0020
@<TRIPOS>BOND
     1    28    29    1
     2    29    30    2
     3    29    22    1
     4    22    23   ar
     5    23    24   ar
     6    24    16    1
     7    16    17   am
     8    17    18    2
     9    17    19   am
    10     1    19    1
    11     1     2    1
    12     2     3    1
    13     3     4    1
    14     4     7    1
    15     7     8    1
    16     8     9    1
    17     9    10    1
    18    10    11   am
    19    11    12    1
    20    11    13    2
    21    10    14    1
    22    14    15    1
    23     4     5    1
    24     5     6    1
    25     6    31    1
    26    31    32    1
    27    32    33    1
    28    33    34    1
    29    34    35    1
    30    35    36    1
    31    36    38    1
    32    38    39    1
    33    39    40   ar
    34    40    41   ar
    35    41    42   ar
    36    42    43    1
    37    42    44   ar
    38    44    45   ar
    39    36    37    1
    40    24    25   ar
    41    25    26   ar
    42    26    27    1
    43    26    22   ar
    44     6     1    1
    45    37    32    1
    46    15     7    1
    47    45    39   ar
    48    16    20    1
    49    19    21    1
@<TRIPOS>MOLECULE
*****
 45 49 0 0 0
SMALL
GASTEIGER

@<TRIPOS>ATOM
      1 C           0.7693    3.2226   28.7705 C.3     1  UNL1        0.0771
      2 C           0.2306    4.5881   28.4616 C.3     1  UNL1        0.0370
      3 C          -0.9241    4.7427   27.5169 C.3     1  UNL1        0.0737
      4 N          -1.5403    3.5318   26.8811 N.3     1  UNL1       -0.2737
      5 C          -1.0016    2.1664   27.1899 C.3     1  UNL1        0.0750
      6 C           0.1532    2.0118   28.1346 C.3     1  UNL1        0.0500
      7 C          -2.6951    3.6865   25.9363 C.3     1  UNL1        0.0609
      8 C          -2.4721    3.5859   24.4564 C.3     1  UNL1        0.0375
      9 C          -3.6269    3.7406   23.5117 C.3     1  UNL1        0.0948
     10 N          -5.0048    3.9958   24.0469 N.am    1  UNL1       -0.2794
     11 C          -6.1596    4.1505   23.1022 C.2     1  UNL1        0.2261
     12 C          -5.9365    4.0499   21.6223 C.3     1  UNL1        0.0948
     13 O          -7.5374    4.4057   23.6374 O.2     1  UNL1       -0.2749
     14 C          -5.2277    4.0964   25.5268 C.3     1  UNL1        0.0948
     15 C          -4.0729    3.9417   26.4715 C.3     1  UNL1        0.0375
     16 N           2.8560    3.0150   32.1399 N.am    1  UNL1       -0.2485
     17 C           1.7013    3.1696   31.1951 C.2     1  UNL1        0.3058
     18 O           0.3235    3.4259   31.7302 O.2     1  UNL1       -0.2524
     19 N           1.9242    3.0680   29.7152 N.am    1  UNL1       -0.2901
     20 H           3.7602    2.8468   31.7887 H       1  UNL1        0.1583
     21 H           2.8284    2.8998   29.3640 H       1  UNL1        0.1509
     22 C           2.6108    2.6016   35.9914 C.ar    1  UNL1        0.0803
     23 S           3.0210    2.0900   34.6423 S.2     1  UNL1       -0.0488
     24 C           2.6331    3.1166   33.6197 C.ar    1  UNL1        0.1664
     25 N           1.9832    4.2626   34.3368 N.ar    1  UNL1       -0.2282
     26 C           1.9694    3.9443   35.8026 C.ar    1  UNL1        0.0701
     27 C           1.4121    4.8158   36.8888 C.3     1  UNL1        0.0528
     28 C           4.1936    1.6382   37.8126 C.3     1  UNL1        0.0779
     29 C           2.8075    1.8946   37.2996 C.2     1  UNL1        0.1807
     30 O           1.6183    1.4439   38.0948 O.2     1  UNL1       -0.2908
     31 C           0.6919    0.6463   28.4435 C.3     1  UNL1        0.0751
     32 N           1.9962    0.2028   27.8501 N.3     1  UNL1       -0.2726
     33 C           2.8936   -0.7220   28.6180 C.3     1  UNL1        0.0721
     34 C           4.1979   -1.1655   28.0246 C.3     1  UNL1        0.0174
     35 C           4.6047   -0.6843   26.6633 C.3     1  UNL1        0.0031
     36 C           3.7074    0.2404   25.8955 C.3     1  UNL1        0.0204
     37 C           2.4031    0.6840   26.4889 C.3     1  UNL1        0.0724
     38 C           4.1142    0.7217   24.5343 C.3     1  UNL1        0.0277
     39 C           3.3376    0.2937   23.3244 C.ar    1  UNL1       -0.0220
     40 C           2.1430    1.0853   22.8814 C.ar    1  UNL1       -0.0020
     41 C           1.3664    0.6574   21.6715 C.ar    1  UNL1        0.0293
     42 C           1.7844   -0.5622   20.9047 C.ar    1  UNL1        0.1401
     43 F           1.0078   -0.9902   19.6949 F       1  UNL1       -0.2042
     44 C           2.9790   -1.3538   21.3477 C.ar    1  UNL1        0.0293
     45 C           3.7556   -0.9258   22.5576 C.ar    1  UNL1       -0.0020
@<TRIPOS>BOND
     1    28    29    1
     2    29    30    2
     3    29    22    1
     4    22    23   ar
     5    23    24   ar
     6    24    16    1
     7    16    17   am
     8    17    18    2
     9    17    19   am
    10     1    19    1
    11     1     2    1
    12     2     3    1
    13     3     4    1
    14     4     7    1
    15     7     8    1
    16     8     9    1
    17     9    10    1
    18    10    11   am
    19    11    12    1
    20    11    13    2
    21    10    14    1
    22    14    15    1
    23     4     5    1
    24     5     6    1
    25     6    31    1
    26    31    32    1
    27    32    33    1
    28    33    34    1
    29    34    35    1
    30    35    36    1
    31    36    38    1
    32    38    39    1
    33    39    40   ar
    34    40    41   ar
    35    41    42   ar
    36    42    43    1
    37    42    44   ar
    38    44    45   ar
    39    36    37    1
    40    24    25   ar
    41    25    26   ar
    42    26    27    1
    43    26    22   ar
    44     6     1    1
    45    37    32    1
    46    15     7    1
    47    45    39   ar
    48    16    20    1
    49    19    21    1
@<TRIPOS>MOLECULE
*****
 45 49 0 0 0
SMALL
GASTEIGER

@<TRIPOS>ATOM
      1 C           3.4468   -0.9429   27.7205 C.3     1  UNL1        0.0771
      2 C           2.1059   -0.6750   28.3370 C.3     1  UNL1        0.0370
      3 C           2.0168   -0.1453   29.7375 C.3     1  UNL1        0.0737
      4 N           3.2685    0.1164   30.5215 N.3     1  UNL1       -0.2737
      5 C           4.6094   -0.1516   29.9050 C.3     1  UNL1        0.0750
      6 C           4.6986   -0.6813   28.5045 C.3     1  UNL1        0.0500
      7 C           3.1793    0.6460   31.9221 C.3     1  UNL1        0.0609
      8 C           4.1410    0.1658   32.9682 C.3     1  UNL1        0.0375
      9 C           4.0518    0.6955   34.3688 C.3     1  UNL1        0.0948
     10 N           3.0008    1.7054   34.7231 N.am    1  UNL1       -0.2794
     11 C           2.9116    2.2351   36.1236 C.2     1  UNL1        0.2261
     12 C           3.8733    1.7549   37.1698 C.3     1  UNL1        0.0948
     13 O           1.8606    3.2450   36.4780 O.2     1  UNL1       -0.2749
     14 C           2.0391    2.1856   33.6769 C.3     1  UNL1        0.0948
     15 C           2.1283    1.6559   32.2764 C.3     1  UNL1        0.0375
     16 N           3.4891   -1.0677   23.7540 N.am    1  UNL1       -0.2485
     17 C           3.3999   -0.5381   25.1545 C.2     1  UNL1        0.3058
     18 O           3.1746    0.9262   25.3898 O.2     1  UNL1       -0.2524
     19 N           3.5360   -1.4726   26.3199 N.am    1  UNL1       -0.2901
     20 H           3.6370   -2.0287   23.5996 H       1  UNL1        0.1583
     21 H           3.6839   -2.4336   26.1655 H       1  UNL1        0.1509
     22 C           2.4030    1.1868   20.7870 C.ar    1  UNL1        0.0803
     23 S           2.0748    0.2249   21.8902 S.2     1  UNL1       -0.0488
     24 C           3.3530   -0.1331   22.5887 C.ar    1  UNL1        0.1664
     25 N           4.4712    0.6076   21.9172 N.ar    1  UNL1       -0.2282
     26 C           3.8841    1.4234   20.8037 C.ar    1  UNL1        0.0701
     27 C           4.6446    2.3185   19.8707 C.3     1  UNL1        0.0528
     28 C           1.1311    1.1383   18.5221 C.3     1  UNL1        0.0779
     29 C           1.4223    1.8039   19.8344 C.2     1  UNL1        0.1807
     30 O           0.7327    3.0864   20.1941 O.2     1  UNL1       -0.2908
     31 C           6.0395   -0.9493   27.8879 C.3     1  UNL1        0.0751
     32 N           6.3454   -2.3021   27.3166 N.3     1  UNL1       -0.2726
     33 C           6.1012   -3.5348   28.1357 C.3     1  UNL1        0.0721
     34 C           6.4071   -4.8876   27.5644 C.3     1  UNL1        0.0174
     35 C           6.9572   -5.0077   26.1740 C.3     1  UNL1        0.0031
     36 C           7.2013   -3.7750   25.3550 C.3     1  UNL1        0.0204
     37 C           6.8954   -2.4222   25.9263 C.3     1  UNL1        0.0724
     38 C           7.7514   -3.8951   23.9646 C.3     1  UNL1        0.0277
     39 C           6.8225   -3.8816   22.7869 C.ar    1  UNL1       -0.0220
     40 C           5.3381   -3.8892   23.0023 C.ar    1  UNL1       -0.0020
     41 C           4.4092   -3.8757   21.8246 C.ar    1  UNL1        0.0293
     42 C           4.9649   -3.8546   20.4314 C.ar    1  UNL1        0.1401
     43 F           4.0361   -3.8411   19.2536 F       1  UNL1       -0.2042
     44 C           6.4493   -3.8470   20.2160 C.ar    1  UNL1        0.0293
     45 C           7.3781   -3.8605   21.3938 C.ar    1  UNL1       -0.0020
@<TRIPOS>BOND
     1    28    29    1
     2    29    30    2
     3    29    22    1
     4    22    23   ar
     5    23    24   ar
     6    24    16    1
     7    16    17   am
     8    17    18    2
     9    17    19   am
    10     1    19    1
    11     1     2    1
    12     2     3    1
    13     3     4    1
    14     4     7    1
    15     7     8    1
    16     8     9    1
    17     9    10    1
    18    10    11   am
    19    11    12    1
    20    11    13    2
    21    10    14    1
    22    14    15    1
    23     4     5    1
    24     5     6    1
    25     6    31    1
    26    31    32    1
    27    32    33    1
    28    33    34    1
    29    34    35    1
    30    35    36    1
    31    36    38    1
    32    38    39    1
    33    39    40   ar
    34    40    41   ar
    35    41    42   ar
    36    42    43    1
    37    42    44   ar
    38    44    45   ar
    39    36    37    1
    40    24    25   ar
    41    25    26   ar
    42    26    27    1
    43    26    22   ar
    44     6     1    1
    45    37    32    1
    46    15     7    1
    47    45    39   ar
    48    16    20    1
    49    19    21    1
@<TRIPOS>MOLECULE
*****
 45 49 0 0 0
SMALL
GASTEIGER

@<TRIPOS>ATOM
      1 C           1.2289    0.1066   28.6578 C.3     1  UNL1        0.0771
      2 C          -0.2533    0.0080   28.8660 C.3     1  UNL1        0.0370
      3 C          -1.1819    0.8751   28.0687 C.3     1  UNL1        0.0737
      4 N          -0.6284    1.8409   27.0633 N.3     1  UNL1       -0.2737
      5 C           0.8538    1.9395   26.8551 C.3     1  UNL1        0.0750
      6 C           1.7824    1.0723   27.6523 C.3     1  UNL1        0.0500
      7 C          -1.5571    2.7080   26.2660 C.3     1  UNL1        0.0609
      8 C          -1.2552    3.0061   24.8273 C.3     1  UNL1        0.0375
      9 C          -2.1839    3.8732   24.0300 C.3     1  UNL1        0.0948
     10 N          -3.4146    4.4423   24.6715 N.am    1  UNL1       -0.2794
     11 C          -4.3433    5.3094   23.8744 C.2     1  UNL1        0.2261
     12 C          -4.0413    5.6075   22.4356 C.3     1  UNL1        0.0948
     13 O          -5.5740    5.8785   24.5159 O.2     1  UNL1       -0.2749
     14 C          -3.7165    4.1442   26.1103 C.3     1  UNL1        0.0948
     15 C          -2.7878    3.2771   26.9075 C.3     1  UNL1        0.0375
     16 N           3.8282   -1.0541   31.4230 N.am    1  UNL1       -0.2485
     17 C           2.8995   -0.1870   30.6257 C.2     1  UNL1        0.3058
     18 O           2.7127    1.2538   30.9991 O.2     1  UNL1       -0.2524
     19 N           2.1576   -0.7606   29.4550 N.am    1  UNL1       -0.2901
     20 H           3.9508   -1.9997   31.1779 H       1  UNL1        0.1583
     21 H           2.2802   -1.7062   29.2099 H       1  UNL1        0.1509
     22 C           5.3136   -0.0312   34.8600 C.ar    1  UNL1        0.0803
     23 S           4.3619   -0.8446   34.0338 S.2     1  UNL1       -0.0488
     24 C           4.5702   -0.4805   32.5937 C.ar    1  UNL1        0.1664
     25 N           5.6507    0.5580   32.5298 N.ar    1  UNL1       -0.2282
     26 C           6.1102    0.8357   33.9304 C.ar    1  UNL1        0.0701
     27 C           7.1786    1.8092   34.3311 C.3     1  UNL1        0.0528
     28 C           4.3711    0.5109   37.2196 C.3     1  UNL1        0.0779
     29 C           5.4456   -0.0767   36.3535 C.2     1  UNL1        0.1807
     30 O           6.6521   -0.7097   36.9808 O.2     1  UNL1       -0.2908
     31 C           3.2647    1.1709   27.4441 C.3     1  UNL1        0.0751
     32 N           4.0058    0.0459   26.7844 N.3     1  UNL1       -0.2726
     33 C           3.5135   -0.5155   25.4834 C.3     1  UNL1        0.0721
     34 C           4.2546   -1.6405   24.8237 C.3     1  UNL1        0.0174
     35 C           5.4880   -2.2040   25.4651 C.3     1  UNL1        0.0031
     36 C           5.9803   -1.6426   26.7660 C.3     1  UNL1        0.0204
     37 C           5.2391   -0.5176   27.4257 C.3     1  UNL1        0.0724
     38 C           7.2137   -2.2061   27.4073 C.3     1  UNL1        0.0277
     39 C           7.0911   -3.1800   28.5415 C.ar    1  UNL1       -0.0220
     40 C           6.9508   -2.6790   29.9485 C.ar    1  UNL1       -0.0020
     41 C           6.8282   -3.6529   31.0827 C.ar    1  UNL1        0.0293
     42 C           6.8459   -5.1278   30.8100 C.ar    1  UNL1        0.1401
     43 F           6.7233   -6.1017   31.9442 F       1  UNL1       -0.2042
     44 C           6.9861   -5.6288   29.4031 C.ar    1  UNL1        0.0293
     45 C           7.1087   -4.6549   28.2689 C.ar    1  UNL1       -0.0020
@<TRIPOS>BOND
     1    28    29    1
     2    29    30    2
     3    29    22    1
     4    22    23   ar
     5    23    24   ar
     6    24    16    1
     7    16    17   am
     8    17    18    2
     9    17    19   am
    10     1    19    1
    11     1     2    1
    12     2     3    1
    13     3     4    1
    14     4     7    1
    15     7     8    1
    16     8     9    1
    17     9    10    1
    18    10    11   am
    19    11    12    1
    20    11    13    2
    21    10    14    1
    22    14    15    1
    23     4     5    1
    24     5     6    1
    25     6    31    1
    26    31    32    1
    27    32    33    1
    28    33    34    1
    29    34    35    1
    30    35    36    1
    31    36    38    1
    32    38    39    1
    33    39    40   ar
    34    40    41   ar
    35    41    42   ar
    36    42    43    1
    37    42    44   ar
    38    44    45   ar
    39    36    37    1
    40    24    25   ar
    41    25    26   ar
    42    26    27    1
    43    26    22   ar
    44     6     1    1
    45    37    32    1
    46    15     7    1
    47    45    39   ar
    48    16    20    1
    49    19    21    1
