@<TRIPOS>MOLECULE
*****
 41 45 0 0 0
SMALL
GASTEIGER

@<TRIPOS>ATOM
      1 C           7.5875   -4.2557   22.1006 C.ar    1  UNL1        0.1486
      2 N           8.0181   -5.6915   22.1560 N.ar    1  UNL1       -0.2266
      3 C           8.0640   -6.1066   23.5967 C.ar    1  UNL1        0.1010
      4 C           8.4200   -7.4059   24.2560 C.ar    1  UNL1        0.0526
      5 C           8.3738   -7.5260   25.7505 C.ar    1  UNL1        0.1690
      6 F           8.7299   -8.8254   26.4099 F       1  UNL1       -0.2017
      7 C           7.9716   -6.3467   26.5856 C.ar    1  UNL1        0.1689
      8 F           7.9254   -6.4668   28.0801 F       1  UNL1       -0.2017
      9 C           7.6156   -5.0473   25.9262 C.ar    1  UNL1        0.0507
     10 C           7.6617   -4.9272   24.4318 C.ar    1  UNL1        0.0816
     11 N           7.3673   -3.7834   23.5072 N.ar    1  UNL1       -0.3046
     12 C           7.0508   -1.7971   18.3701 C.ar    1  UNL1        0.2275
     13 C           8.2738   -1.6145   19.2191 C.ar    1  UNL1        0.0580
     14 C           8.4527   -2.4341   20.4626 C.ar    1  UNL1        0.0125
     15 C           7.4086   -3.4362   20.8571 C.ar    1  UNL1        0.0875
     16 C           6.1857   -3.6187   20.0081 C.ar    1  UNL1        0.2303
     17 N           6.0067   -2.7992   18.7646 N.ar    1  UNL1       -0.1766
     18 C           5.8607    0.1299   17.0972 C.3     1  UNL1        0.2542
     19 O           6.8719   -0.9775   17.1266 O.3     1  UNL1       -0.4561
     20 O           5.1415   -4.6209   20.4025 O.3     1  UNL1       -0.4560
     21 C           4.0584   -4.9958   19.4350 C.3     1  UNL1        0.2542
     22 C           6.9295   -2.4085   23.9172 C.3     1  UNL1        0.1628
     23 C           7.5029   -1.7752   25.1500 C.3     1  UNL1        0.0297
     24 C           8.9622   -1.4328   25.2078 C.3     1  UNL1        0.0024
     25 C           9.5358   -0.7995   26.4407 C.3     1  UNL1        0.0001
     26 C           8.6500   -0.5085   27.6158 C.3     1  UNL1        0.0000
     27 C           7.1908   -0.8509   27.5579 C.3     1  UNL1        0.0001
     28 C           6.6172   -1.4842   26.3251 C.3     1  UNL1        0.0024
     29 C           5.9180   -1.6669   23.0942 C.2     1  UNL1        0.2431
     30 O           5.9959   -0.5131   22.1389 O.2     1  UNL1       -0.2731
     31 N           4.4727   -2.0651   23.1446 N.am    1  UNL1       -0.3044
     32 H           4.1879   -2.8131   23.7178 H       1  UNL1        0.1494
     33 C           3.4614   -1.3235   22.3217 C.3     1  UNL1        0.0716
     34 C           2.6852   -0.1923   22.9282 C.3     1  UNL1        0.0199
     35 C           1.6738    0.5494   22.1053 C.3     1  UNL1        0.0072
     36 C           1.4387    0.1599   20.6759 C.3     1  UNL1        0.0367
     37 C           2.2150   -0.9713   20.0695 C.3     1  UNL1        0.0072
     38 C           3.2264   -1.7130   20.8924 C.3     1  UNL1        0.0199
     39 C           0.4274    0.9015   19.8530 C.2     1  UNL1        0.0500
     40 O           0.5773    0.9686   18.3620 O.co2   1  UNL1       -0.5492
     41 O          -0.7339    1.5761   20.5211 O.co2   1  UNL1       -0.5492
@<TRIPOS>UNITY_ATOM_ATTR
40 1
charge -1
@<TRIPOS>BOND
     1    18    19    1
     2    19    12    1
     3    12    13   ar
     4    13    14   ar
     5    14    15   ar
     6    15     1    1
     7     1     2   ar
     8     2     3   ar
     9     3     4   ar
    10     4     5   ar
    11     5     6    1
    12     5     7   ar
    13     7     8    1
    14     7     9   ar
    15     9    10   ar
    16    10    11   ar
    17    11    22    1
    18    22    29    1
    19    29    30    2
    20    29    31   am
    21    33    31    1
    22    33    34    1
    23    34    35    1
    24    35    36    1
    25    36    39    1
    26    39    40   ar
    27    39    41   ar
    28    36    37    1
    29    37    38    1
    30    22    23    1
    31    23    24    1
    32    24    25    1
    33    25    26    1
    34    26    27    1
    35    27    28    1
    36    15    16   ar
    37    16    20    1
    38    20    21    1
    39    16    17   ar
    40    17    12   ar
    41    11     1   ar
    42    38    33    1
    43    28    23    1
    44    10     3   ar
    45    31    32    1
@<TRIPOS>MOLECULE
*****
 41 45 0 0 0
SMALL
GASTEIGER

@<TRIPOS>ATOM
      1 C          -0.8992    3.5087   23.0324 C.ar    1  UNL1        0.1486
      2 N          -2.1099    3.8443   23.8519 N.ar    1  UNL1       -0.2266
      3 C          -3.3089    3.7875   22.9524 C.ar    1  UNL1        0.1010
      4 C          -4.7676    4.0254   23.2080 C.ar    1  UNL1        0.0526
      5 C          -5.7567    3.8926   22.0882 C.ar    1  UNL1        0.1690
      6 F          -7.2155    4.1305   22.3438 F       1  UNL1       -0.2017
      7 C          -5.2870    3.5218   20.7127 C.ar    1  UNL1        0.1689
      8 F          -6.2762    3.3890   19.5928 F       1  UNL1       -0.2017
      9 C          -3.8283    3.2839   20.4570 C.ar    1  UNL1        0.0507
     10 C          -2.8392    3.4167   21.5769 C.ar    1  UNL1        0.0816
     11 N          -1.3500    3.2445   21.6264 N.ar    1  UNL1       -0.3046
     12 C           3.3406    3.3266   24.5293 C.ar    1  UNL1        0.2275
     13 C           2.9494    4.3528   23.5076 C.ar    1  UNL1        0.0580
     14 C           1.5361    4.4135   23.0086 C.ar    1  UNL1        0.0125
     15 C           0.5141    3.4480   23.5314 C.ar    1  UNL1        0.0875
     16 C           0.9053    2.4219   24.5531 C.ar    1  UNL1        0.2303
     17 N           2.3186    2.3612   25.0520 N.ar    1  UNL1       -0.1766
     18 C           5.2439    2.0436   25.7464 C.3     1  UNL1        0.2542
     19 O           4.7539    3.2660   25.0283 O.3     1  UNL1       -0.4561
     20 O          -0.1167    1.4564   25.0759 O.3     1  UNL1       -0.4560
     21 C          -0.5532    1.5292   26.5091 C.3     1  UNL1        0.2542
     22 C          -0.4665    2.8731   20.4724 C.3     1  UNL1        0.1628
     23 C          -0.2995    3.8195   19.3208 C.3     1  UNL1        0.0297
     24 C           0.2202    5.2064   19.5590 C.3     1  UNL1        0.0024
     25 C           0.3873    6.1529   18.4074 C.3     1  UNL1        0.0001
     26 C           0.0346    5.7125   17.0175 C.3     1  UNL1        0.0000
     27 C          -0.4851    4.3258   16.7793 C.3     1  UNL1        0.0001
     28 C          -0.6522    3.3793   17.9309 C.3     1  UNL1        0.0024
     29 C           0.2499    1.5552   20.4700 C.2     1  UNL1        0.2431
     30 O          -0.1988    0.1251   20.5289 O.2     1  UNL1       -0.2731
     31 N           1.7476    1.5158   20.3960 N.am    1  UNL1       -0.3044
     32 H           2.2603    2.3549   20.3489 H       1  UNL1        0.1494
     33 C           2.4639    0.1980   20.3936 C.3     1  UNL1        0.0716
     34 C           2.8176   -0.4656   21.6915 C.3     1  UNL1        0.0199
     35 C           3.5340   -1.7836   21.6893 C.3     1  UNL1        0.0072
     36 C           3.8966   -2.4379   20.3891 C.3     1  UNL1        0.0367
     37 C           3.5429   -1.7742   19.0912 C.3     1  UNL1        0.0072
     38 C           2.8266   -0.4563   19.0935 C.3     1  UNL1        0.0199
     39 C           4.6130   -3.7557   20.3868 C.2     1  UNL1        0.0500
     40 O           5.0798   -4.3580   21.6788 O.co2   1  UNL1       -0.5492
     41 O           4.8625   -4.4713   19.0923 O.co2   1  UNL1       -0.5492
@<TRIPOS>UNITY_ATOM_ATTR
40 1
charge -1
@<TRIPOS>BOND
     1    18    19    1
     2    19    12    1
     3    12    13   ar
     4    13    14   ar
     5    14    15   ar
     6    15     1    1
     7     1     2   ar
     8     2     3   ar
     9     3     4   ar
    10     4     5   ar
    11     5     6    1
    12     5     7   ar
    13     7     8    1
    14     7     9   ar
    15     9    10   ar
    16    10    11   ar
    17    11    22    1
    18    22    29    1
    19    29    30    2
    20    29    31   am
    21    33    31    1
    22    33    34    1
    23    34    35    1
    24    35    36    1
    25    36    39    1
    26    39    40   ar
    27    39    41   ar
    28    36    37    1
    29    37    38    1
    30    22    23    1
    31    23    24    1
    32    24    25    1
    33    25    26    1
    34    26    27    1
    35    27    28    1
    36    15    16   ar
    37    16    20    1
    38    20    21    1
    39    16    17   ar
    40    17    12   ar
    41    11     1   ar
    42    38    33    1
    43    28    23    1
    44    10     3   ar
    45    31    32    1
@<TRIPOS>MOLECULE
*****
 41 45 0 0 0
SMALL
GASTEIGER

@<TRIPOS>ATOM
      1 C          -2.4396    3.4818   23.8062 C.ar    1  UNL1        0.1486
      2 N          -3.9319    3.5217   23.6603 N.ar    1  UNL1       -0.2266
      3 C          -4.2536    3.5632   22.1958 C.ar    1  UNL1        0.1010
      4 C          -5.5573    3.6121   21.4556 C.ar    1  UNL1        0.0526
      5 C          -5.5674    3.6468   19.9561 C.ar    1  UNL1        0.1690
      6 F          -6.8711    3.6957   19.2157 F       1  UNL1       -0.2017
      7 C          -4.2738    3.6325   19.1968 C.ar    1  UNL1        0.1689
      8 F          -4.2840    3.6672   17.6972 F       1  UNL1       -0.2017
      9 C          -2.9702    3.5836   19.9370 C.ar    1  UNL1        0.0507
     10 C          -2.9600    3.5489   21.4366 C.ar    1  UNL1        0.0816
     11 N          -1.8389    3.4986   22.4318 N.ar    1  UNL1       -0.3046
     12 C          -0.1640    3.3369   27.6858 C.ar    1  UNL1        0.2275
     13 C          -0.2685    2.1086   26.8313 C.ar    1  UNL1        0.0580
     14 C          -1.0271    2.1569   25.5381 C.ar    1  UNL1        0.0125
     15 C          -1.6810    3.4335   25.0994 C.ar    1  UNL1        0.0875
     16 C          -1.5765    4.6618   25.9539 C.ar    1  UNL1        0.2303
     17 N          -0.8179    4.6136   27.2470 N.ar    1  UNL1       -0.1766
     18 C           0.5158    2.0698   29.8495 C.3     1  UNL1        0.2542
     19 O           0.5946    3.2887   28.9789 O.3     1  UNL1       -0.4561
     20 O          -2.2304    5.9386   25.5152 O.3     1  UNL1       -0.4560
     21 C          -1.4524    6.9453   24.7208 C.3     1  UNL1        0.2542
     22 C          -0.3743    3.4701   22.1093 C.3     1  UNL1        0.1628
     23 C           0.4924    4.6451   22.4528 C.3     1  UNL1        0.0297
     24 C           1.3438    4.6137   23.6874 C.3     1  UNL1        0.0024
     25 C           2.2105    5.7887   24.0309 C.3     1  UNL1        0.0001
     26 C           2.2258    6.9953   23.1398 C.3     1  UNL1        0.0000
     27 C           1.3744    7.0268   21.9053 C.3     1  UNL1        0.0001
     28 C           0.5077    5.8517   21.5618 C.3     1  UNL1        0.0024
     29 C           0.2237    2.2664   21.4432 C.2     1  UNL1        0.2431
     30 O          -0.3484    1.0217   20.8320 O.2     1  UNL1       -0.2731
     31 N           1.7117    2.1563   21.2890 N.am    1  UNL1       -0.3044
     32 H           2.2959    2.8741   21.6249 H       1  UNL1        0.1494
     33 C           2.3097    0.9527   20.6229 C.3     1  UNL1        0.0716
     34 C           2.4964   -0.3179   21.3979 C.3     1  UNL1        0.0199
     35 C           3.0944   -1.5217   20.7319 C.3     1  UNL1        0.0072
     36 C           3.5055   -1.4548   19.2909 C.3     1  UNL1        0.0367
     37 C           3.3187   -0.1841   18.5159 C.3     1  UNL1        0.0072
     38 C           2.7208    1.0196   19.1819 C.3     1  UNL1        0.0199
     39 C           4.1034   -2.6585   18.6249 C.2     1  UNL1        0.0500
     40 O           3.6111   -4.0314   18.9749 O.co2   1  UNL1       -0.5492
     41 O           5.1938   -2.4891   17.6087 O.co2   1  UNL1       -0.5492
@<TRIPOS>UNITY_ATOM_ATTR
40 1
charge -1
@<TRIPOS>BOND
     1    18    19    1
     2    19    12    1
     3    12    13   ar
     4    13    14   ar
     5    14    15   ar
     6    15     1    1
     7     1     2   ar
     8     2     3   ar
     9     3     4   ar
    10     4     5   ar
    11     5     6    1
    12     5     7   ar
    13     7     8    1
    14     7     9   ar
    15     9    10   ar
    16    10    11   ar
    17    11    22    1
    18    22    29    1
    19    29    30    2
    20    29    31   am
    21    33    31    1
    22    33    34    1
    23    34    35    1
    24    35    36    1
    25    36    39    1
    26    39    40   ar
    27    39    41   ar
    28    36    37    1
    29    37    38    1
    30    22    23    1
    31    23    24    1
    32    24    25    1
    33    25    26    1
    34    26    27    1
    35    27    28    1
    36    15    16   ar
    37    16    20    1
    38    20    21    1
    39    16    17   ar
    40    17    12   ar
    41    11     1   ar
    42    38    33    1
    43    28    23    1
    44    10     3   ar
    45    31    32    1
@<TRIPOS>MOLECULE
*****
 41 45 0 0 0
SMALL
GASTEIGER

@<TRIPOS>ATOM
      1 C           4.4073    4.3474   36.6556 C.ar    1  UNL1        0.1486
      2 N           5.3384    5.4628   37.0280 N.ar    1  UNL1       -0.2266
      3 C           6.2603    4.9592   38.0987 C.ar    1  UNL1        0.1010
      4 C           7.3822    5.6154   38.8476 C.ar    1  UNL1        0.0526
      5 C           8.1426    4.8448   39.8858 C.ar    1  UNL1        0.1690
      6 F           9.2645    5.5010   40.6347 F       1  UNL1       -0.2017
      7 C           7.7813    3.4180   40.1751 C.ar    1  UNL1        0.1689
      8 F           8.5418    2.6474   41.2133 F       1  UNL1       -0.2017
      9 C           6.6594    2.7618   39.4262 C.ar    1  UNL1        0.0507
     10 C           5.8990    3.5324   38.3880 C.ar    1  UNL1        0.0816
     11 N           4.7537    3.1543   37.4961 N.ar    1  UNL1       -0.3046
     12 C           1.1469    4.5455   33.5603 C.ar    1  UNL1        0.2275
     13 C           0.9113    5.0991   34.9343 C.ar    1  UNL1        0.0580
     14 C           1.9981    5.0331   35.9661 C.ar    1  UNL1        0.0125
     15 C           3.3205    4.4134   35.6238 C.ar    1  UNL1        0.0875
     16 C           3.5561    3.8599   34.2498 C.ar    1  UNL1        0.2303
     17 N           2.4694    3.9259   33.2180 N.ar    1  UNL1       -0.1766
     18 C          -0.4518    5.9423   32.0626 C.3     1  UNL1        0.2542
     19 O           0.0602    4.6116   32.5285 O.3     1  UNL1       -0.4561
     20 O           4.8786    3.2402   33.9075 O.3     1  UNL1       -0.4560
     21 C           5.2687    3.0503   32.4717 C.3     1  UNL1        0.2542
     22 C           4.0742    1.8177   37.4524 C.3     1  UNL1        0.1628
     23 C           2.8247    1.5852   38.2490 C.3     1  UNL1        0.0297
     24 C           2.5359    0.2247   38.8111 C.3     1  UNL1        0.0024
     25 C           1.2864   -0.0079   39.6076 C.3     1  UNL1        0.0001
     26 C           0.3256    1.1199   39.8421 C.3     1  UNL1        0.0000
     27 C           0.6144    2.4803   39.2801 C.3     1  UNL1        0.0001
     28 C           1.8639    2.7129   38.4835 C.3     1  UNL1        0.0024
     29 C           4.6443    0.7136   36.6121 C.2     1  UNL1        0.2431
     30 O           5.5477   -0.4502   36.8939 O.2     1  UNL1       -0.2731
     31 N           4.3185    0.6394   35.1498 N.am    1  UNL1       -0.3044
     32 H           3.7305    1.3153   34.7415 H       1  UNL1        0.1494
     33 C           4.8886   -0.4647   34.3096 C.3     1  UNL1        0.0716
     34 C           6.2558   -0.3208   33.7094 C.3     1  UNL1        0.0199
     35 C           6.8260   -1.4249   32.8692 C.3     1  UNL1        0.0072
     36 C           6.0290   -2.6728   32.6290 C.3     1  UNL1        0.0367
     37 C           4.6618   -2.8165   33.2292 C.3     1  UNL1        0.0072
     38 C           4.0916   -1.7125   34.0695 C.3     1  UNL1        0.0199
     39 C           6.5991   -3.7768   31.7888 C.2     1  UNL1        0.0500
     40 O           6.5361   -5.1957   32.2715 O.co2   1  UNL1       -0.5492
     41 O           7.2321   -3.4620   30.4659 O.co2   1  UNL1       -0.5492
@<TRIPOS>UNITY_ATOM_ATTR
40 1
charge -1
@<TRIPOS>BOND
     1    18    19    1
     2    19    12    1
     3    12    13   ar
     4    13    14   ar
     5    14    15   ar
     6    15     1    1
     7     1     2   ar
     8     2     3   ar
     9     3     4   ar
    10     4     5   ar
    11     5     6    1
    12     5     7   ar
    13     7     8    1
    14     7     9   ar
    15     9    10   ar
    16    10    11   ar
    17    11    22    1
    18    22    29    1
    19    29    30    2
    20    29    31   am
    21    33    31    1
    22    33    34    1
    23    34    35    1
    24    35    36    1
    25    36    39    1
    26    39    40   ar
    27    39    41   ar
    28    36    37    1
    29    37    38    1
    30    22    23    1
    31    23    24    1
    32    24    25    1
    33    25    26    1
    34    26    27    1
    35    27    28    1
    36    15    16   ar
    37    16    20    1
    38    20    21    1
    39    16    17   ar
    40    17    12   ar
    41    11     1   ar
    42    38    33    1
    43    28    23    1
    44    10     3   ar
    45    31    32    1
@<TRIPOS>MOLECULE
*****
 41 45 0 0 0
SMALL
GASTEIGER

@<TRIPOS>ATOM
      1 C          -0.6122    4.4045   21.1863 C.ar    1  UNL1        0.1486
      2 N          -1.7858    5.3038   20.9330 N.ar    1  UNL1       -0.2266
      3 C          -2.8295    5.0066   21.9686 C.ar    1  UNL1        0.1010
      4 C          -4.1927    5.5822   22.2136 C.ar    1  UNL1        0.0526
      5 C          -5.0276    5.0749   23.3519 C.ar    1  UNL1        0.1690
      6 F          -6.3909    5.6505   23.5969 F       1  UNL1       -0.2017
      7 C          -4.4991    3.9920   24.2451 C.ar    1  UNL1        0.1689
      8 F          -5.3340    3.4846   25.3834 F       1  UNL1       -0.2017
      9 C          -3.1358    3.4163   24.0001 C.ar    1  UNL1        0.0507
     10 C          -2.3010    3.9237   22.8619 C.ar    1  UNL1        0.0816
     11 N          -0.9307    3.5515   22.3783 N.ar    1  UNL1       -0.3046
     12 C           3.1951    4.2862   18.7903 C.ar    1  UNL1        0.2275
     13 C           3.1923    4.8862   20.1650 C.ar    1  UNL1        0.0580
     14 C           1.9232    4.9257   20.9637 C.ar    1  UNL1        0.0125
     15 C           0.6569    4.3650   20.3876 C.ar    1  UNL1        0.0875
     16 C           0.6596    3.7650   19.0129 C.ar    1  UNL1        0.2303
     17 N           1.9287    3.7256   18.2143 N.ar    1  UNL1       -0.1766
     18 C           5.3096    3.0077   17.9877 C.3     1  UNL1        0.2542
     19 O           4.4642    4.2468   17.9917 O.3     1  UNL1       -0.4561
     20 O          -0.6069    3.2043   18.4368 O.3     1  UNL1       -0.4560
     21 C          -1.3244    3.9407   17.3446 C.3     1  UNL1        0.2542
     22 C          -0.0359    2.5094   22.9811 C.3     1  UNL1        0.1628
     23 C           0.2212    2.5053   24.4588 C.3     1  UNL1        0.0297
     24 C           0.8819    3.6850   25.1084 C.3     1  UNL1        0.0024
     25 C           1.1391    3.6810   26.5862 C.3     1  UNL1        0.0001
     26 C           0.7356    2.4972   27.4145 C.3     1  UNL1        0.0000
     27 C           0.0749    1.3176   26.7649 C.3     1  UNL1        0.0001
     28 C          -0.1823    1.3216   25.2871 C.3     1  UNL1        0.0024
     29 C           0.6018    1.4712   22.1060 C.2     1  UNL1        0.2431
     30 O           0.0691    0.4291   21.1679 O.2     1  UNL1       -0.2731
     31 N           2.0954    1.3386   22.0662 N.am    1  UNL1       -0.3044
     32 H           2.6572    1.9329   22.6143 H       1  UNL1        0.1494
     33 C           2.7330    0.3005   21.1911 C.3     1  UNL1        0.0716
     34 C           3.0580   -1.0535   21.7488 C.3     1  UNL1        0.0199
     35 C           3.6956   -2.0918   20.8738 C.3     1  UNL1        0.0072
     36 C           4.0082   -1.7760   19.4411 C.3     1  UNL1        0.0367
     37 C           3.6831   -0.4219   18.8835 C.3     1  UNL1        0.0072
     38 C           3.0455    0.6163   19.7585 C.3     1  UNL1        0.0199
     39 C           4.6458   -2.8141   18.5661 C.2     1  UNL1        0.0500
     40 O           5.5852   -2.3993   17.4727 O.co2   1  UNL1       -0.5492
     41 O           4.3439   -4.2671   18.7844 O.co2   1  UNL1       -0.5492
@<TRIPOS>UNITY_ATOM_ATTR
40 1
charge -1
@<TRIPOS>BOND
     1    18    19    1
     2    19    12    1
     3    12    13   ar
     4    13    14   ar
     5    14    15   ar
     6    15     1    1
     7     1     2   ar
     8     2     3   ar
     9     3     4   ar
    10     4     5   ar
    11     5     6    1
    12     5     7   ar
    13     7     8    1
    14     7     9   ar
    15     9    10   ar
    16    10    11   ar
    17    11    22    1
    18    22    29    1
    19    29    30    2
    20    29    31   am
    21    33    31    1
    22    33    34    1
    23    34    35    1
    24    35    36    1
    25    36    39    1
    26    39    40   ar
    27    39    41   ar
    28    36    37    1
    29    37    38    1
    30    22    23    1
    31    23    24    1
    32    24    25    1
    33    25    26    1
    34    26    27    1
    35    27    28    1
    36    15    16   ar
    37    16    20    1
    38    20    21    1
    39    16    17   ar
    40    17    12   ar
    41    11     1   ar
    42    38    33    1
    43    28    23    1
    44    10     3   ar
    45    31    32    1
@<TRIPOS>MOLECULE
*****
 41 45 0 0 0
SMALL
GASTEIGER

@<TRIPOS>ATOM
      1 C          -2.6577    3.6304   22.9928 C.ar    1  UNL1        0.1486
      2 N          -2.8591    3.4846   24.4721 N.ar    1  UNL1       -0.2266
      3 C          -1.5846    2.9601   25.0640 C.ar    1  UNL1        0.1010
      4 C          -1.1969    2.6218   26.4730 C.ar    1  UNL1        0.0526
      5 C           0.1800    2.1053   26.7685 C.ar    1  UNL1        0.1690
      6 F           0.5677    1.7670   28.1775 F       1  UNL1       -0.2017
      7 C           1.1691    1.9269   25.6550 C.ar    1  UNL1        0.1689
      8 F           2.5460    1.4103   25.9506 F       1  UNL1       -0.2017
      9 C           0.7815    2.2652   24.2461 C.ar    1  UNL1        0.0507
     10 C          -0.5954    2.7817   23.9505 C.ar    1  UNL1        0.0816
     11 N          -1.2587    3.1960   22.6705 N.ar    1  UNL1       -0.3046
     12 C          -5.7141    5.1111   20.0405 C.ar    1  UNL1        0.2275
     13 C          -5.4008    3.6466   20.1249 C.ar    1  UNL1        0.0580
     14 C          -4.3821    3.1531   21.1090 C.ar    1  UNL1        0.0125
     15 C          -3.6765    4.1240   22.0087 C.ar    1  UNL1        0.0875
     16 C          -3.9898    5.5884   21.9243 C.ar    1  UNL1        0.2303
     17 N          -5.0086    6.0820   20.9402 N.ar    1  UNL1       -0.1766
     18 C          -6.5318    5.3718   17.5883 C.3     1  UNL1        0.2542
     19 O          -6.7329    5.6046   19.0563 O.3     1  UNL1       -0.4561
     20 O          -3.2842    6.5594   22.8240 O.3     1  UNL1       -0.4560
     21 C          -3.9671    7.0712   24.0576 C.3     1  UNL1        0.2542
     22 C          -0.6327    3.1789   21.3075 C.3     1  UNL1        0.1628
     23 C          -0.7139    4.3924   20.4296 C.3     1  UNL1        0.0297
     24 C          -0.1764    5.7062   20.9144 C.3     1  UNL1        0.0024
     25 C          -0.2576    6.9198   20.0365 C.3     1  UNL1        0.0001
     26 C          -0.8763    6.8195   18.6737 C.3     1  UNL1        0.0000
     27 C          -1.4138    5.5057   18.1889 C.3     1  UNL1        0.0001
     28 C          -1.3326    4.2922   19.0668 C.3     1  UNL1        0.0024
     29 C           0.0745    1.9482   20.8223 C.2     1  UNL1        0.2431
     30 O          -0.3702    0.5567   20.4820 O.2     1  UNL1       -0.2731
     31 N           1.5551    1.9790   20.5837 N.am    1  UNL1       -0.3044
     32 H           2.0627    2.8069   20.7455 H       1  UNL1        0.1494
     33 C           2.2622    0.7483   20.0986 C.3     1  UNL1        0.0716
     34 C           2.6037   -0.3494   21.0622 C.3     1  UNL1        0.0199
     35 C           3.3109   -1.5801   20.5771 C.3     1  UNL1        0.0072
     36 C           3.6765   -1.7132   19.1284 C.3     1  UNL1        0.0367
     37 C           3.3350   -0.6155   18.1649 C.3     1  UNL1        0.0072
     38 C           2.6279    0.6153   18.6499 C.3     1  UNL1        0.0199
     39 C           4.3837   -2.9439   18.6433 C.2     1  UNL1        0.0500
     40 O           5.6541   -2.8177   17.8560 O.co2   1  UNL1       -0.5492
     41 O           3.8202   -4.3008   18.9456 O.co2   1  UNL1       -0.5492
@<TRIPOS>UNITY_ATOM_ATTR
40 1
charge -1
@<TRIPOS>BOND
     1    18    19    1
     2    19    12    1
     3    12    13   ar
     4    13    14   ar
     5    14    15   ar
     6    15     1    1
     7     1     2   ar
     8     2     3   ar
     9     3     4   ar
    10     4     5   ar
    11     5     6    1
    12     5     7   ar
    13     7     8    1
    14     7     9   ar
    15     9    10   ar
    16    10    11   ar
    17    11    22    1
    18    22    29    1
    19    29    30    2
    20    29    31   am
    21    33    31    1
    22    33    34    1
    23    34    35    1
    24    35    36    1
    25    36    39    1
    26    39    40   ar
    27    39    41   ar
    28    36    37    1
    29    37    38    1
    30    22    23    1
    31    23    24    1
    32    24    25    1
    33    25    26    1
    34    26    27    1
    35    27    28    1
    36    15    16   ar
    37    16    20    1
    38    20    21    1
    39    16    17   ar
    40    17    12   ar
    41    11     1   ar
    42    38    33    1
    43    28    23    1
    44    10     3   ar
    45    31    32    1
@<TRIPOS>MOLECULE
*****
 41 45 0 0 0
SMALL
GASTEIGER

@<TRIPOS>ATOM
      1 C          -0.1854    2.8152   27.2810 C.ar    1  UNL1        0.1486
      2 N          -1.5756    3.1153   26.8042 N.ar    1  UNL1       -0.2266
      3 C          -1.5363    3.2409   25.3100 C.ar    1  UNL1        0.1010
      4 C          -2.6058    3.5290   24.2985 C.ar    1  UNL1        0.0526
      5 C          -2.2607    3.5947   22.8402 C.ar    1  UNL1        0.1690
      6 F          -3.3301    3.8829   21.8286 F       1  UNL1       -0.2017
      7 C          -0.8461    3.3723   22.3935 C.ar    1  UNL1        0.1689
      8 F          -0.5010    3.4381   20.9351 F       1  UNL1       -0.2017
      9 C           0.2233    3.0842   23.4050 C.ar    1  UNL1        0.0507
     10 C          -0.1218    3.0184   24.8632 C.ar    1  UNL1        0.0816
     11 N           0.7131    2.7554   26.0814 N.ar    1  UNL1       -0.3046
     12 C           1.0692    2.2022   31.5588 C.ar    1  UNL1        0.2275
     13 C           1.0298    3.5853   30.9796 C.ar    1  UNL1        0.0580
     14 C           0.6116    3.7896   29.5536 C.ar    1  UNL1        0.0125
     15 C           0.2328    2.6109   28.7069 C.ar    1  UNL1        0.0875
     16 C           0.2721    1.2278   29.2861 C.ar    1  UNL1        0.2303
     17 N           0.6904    1.0235   30.7121 N.ar    1  UNL1       -0.1766
     18 C           2.2250    3.0823   33.7128 C.3     1  UNL1        0.2542
     19 O           1.4874    1.9979   32.9848 O.3     1  UNL1       -0.4561
     20 O          -0.1067    0.0490   28.4394 O.3     1  UNL1       -0.4560
     21 C          -1.3807   -0.6934   28.7144 C.3     1  UNL1        0.2542
     22 C           2.1877    2.4807   26.0971 C.3     1  UNL1        0.1628
     23 C           3.0454    3.0520   27.1869 C.3     1  UNL1        0.0297
     24 C           3.6913    2.1410   28.1885 C.3     1  UNL1        0.0024
     25 C           4.5491    2.7123   29.2783 C.3     1  UNL1        0.0001
     26 C           4.7611    4.1947   29.3665 C.3     1  UNL1        0.0000
     27 C           4.1153    5.1056   28.3650 C.3     1  UNL1        0.0001
     28 C           3.2575    4.5343   27.2752 C.3     1  UNL1        0.0024
     29 C           2.8045    1.6346   25.0229 C.2     1  UNL1        0.2431
     30 O           3.9683    1.8149   24.0940 O.2     1  UNL1       -0.2731
     31 N           2.2275    0.2868   24.7059 N.am    1  UNL1       -0.3044
     32 H           1.4439   -0.0425   25.2027 H       1  UNL1        0.1494
     33 C           2.8443   -0.5592   23.6318 C.3     1  UNL1        0.0716
     34 C           2.4327   -0.3730   22.2014 C.3     1  UNL1        0.0199
     35 C           3.0495   -1.2190   21.1272 C.3     1  UNL1        0.0072
     36 C           4.0779   -2.2512   21.4833 C.3     1  UNL1        0.0367
     37 C           4.4895   -2.4374   22.9137 C.3     1  UNL1        0.0072
     38 C           3.8727   -1.5915   23.9879 C.3     1  UNL1        0.0199
     39 C           4.6947   -3.0972   20.4092 C.2     1  UNL1        0.0500
     40 O           4.9154   -2.5271   19.0395 O.co2   1  UNL1       -0.5492
     41 O           5.0909   -4.5134   20.7049 O.co2   1  UNL1       -0.5492
@<TRIPOS>UNITY_ATOM_ATTR
40 1
charge -1
@<TRIPOS>BOND
     1    18    19    1
     2    19    12    1
     3    12    13   ar
     4    13    14   ar
     5    14    15   ar
     6    15     1    1
     7     1     2   ar
     8     2     3   ar
     9     3     4   ar
    10     4     5   ar
    11     5     6    1
    12     5     7   ar
    13     7     8    1
    14     7     9   ar
    15     9    10   ar
    16    10    11   ar
    17    11    22    1
    18    22    29    1
    19    29    30    2
    20    29    31   am
    21    33    31    1
    22    33    34    1
    23    34    35    1
    24    35    36    1
    25    36    39    1
    26    39    40   ar
    27    39    41   ar
    28    36    37    1
    29    37    38    1
    30    22    23    1
    31    23    24    1
    32    24    25    1
    33    25    26    1
    34    26    27    1
    35    27    28    1
    36    15    16   ar
    37    16    20    1
    38    20    21    1
    39    16    17   ar
    40    17    12   ar
    41    11     1   ar
    42    38    33    1
    43    28    23    1
    44    10     3   ar
    45    31    32    1
@<TRIPOS>MOLECULE
*****
 41 45 0 0 0
SMALL
GASTEIGER

@<TRIPOS>ATOM
      1 C          -0.0186    5.1859   20.8250 C.ar    1  UNL1        0.1486
      2 N          -0.8154    6.1129   19.9558 N.ar    1  UNL1       -0.2266
      3 C          -2.1399    5.4653   19.6793 C.ar    1  UNL1        0.1010
      4 C          -3.3289    5.9128   18.8818 C.ar    1  UNL1        0.0526
      5 C          -4.5396    5.0329   18.7827 C.ar    1  UNL1        0.1690
      6 F          -5.7287    5.4803   17.9853 F       1  UNL1       -0.2017
      7 C          -4.5613    3.7055   19.4810 C.ar    1  UNL1        0.1689
      8 F          -5.7721    2.8256   19.3818 F       1  UNL1       -0.2017
      9 C          -3.3723    3.2580   20.2784 C.ar    1  UNL1        0.0507
     10 C          -2.1616    4.1379   20.3776 C.ar    1  UNL1        0.0816
     11 N          -0.8505    3.9653   21.0856 N.ar    1  UNL1       -0.3046
     12 C           4.1380    5.9349   22.3779 C.ar    1  UNL1        0.2275
     13 C           2.9539    6.5105   23.0965 C.ar    1  UNL1        0.0580
     14 C           1.5684    6.2609   22.5788 C.ar    1  UNL1        0.0125
     15 C           1.3670    5.4355   21.3426 C.ar    1  UNL1        0.0875
     16 C           2.5511    4.8599   20.6241 C.ar    1  UNL1        0.2303
     17 N           3.9367    5.1096   21.1417 N.ar    1  UNL1       -0.1766
     18 C           6.7118    5.9006   22.0253 C.3     1  UNL1        0.2542
     19 O           5.5236    6.1846   22.8956 O.3     1  UNL1       -0.4561
     20 O           2.3498    4.0346   19.3878 O.3     1  UNL1       -0.4560
     21 C           2.7949    4.5593   18.0549 C.3     1  UNL1        0.2542
     22 C          -0.4430    2.7800   21.9097 C.3     1  UNL1        0.1628
     23 C          -0.7329    2.7541   23.3811 C.3     1  UNL1        0.0297
     24 C          -1.8267    3.6117   23.9453 C.3     1  UNL1        0.0024
     25 C          -2.1167    3.5859   25.4168 C.3     1  UNL1        0.0001
     26 C          -1.3127    2.7025   26.3242 C.3     1  UNL1        0.0000
     27 C          -0.2189    1.8450   25.7601 C.3     1  UNL1        0.0001
     28 C           0.0711    1.8708   24.2886 C.3     1  UNL1        0.0024
     29 C           0.2544    1.6204   21.2622 C.2     1  UNL1        0.2431
     30 O          -0.2146    0.3464   20.6244 O.2     1  UNL1       -0.2731
     31 N           1.7512    1.6048   21.1649 N.am    1  UNL1       -0.3044
     32 H           2.2759    2.3556   21.5259 H       1  UNL1        0.1494
     33 C           2.4485    0.4453   20.5175 C.3     1  UNL1        0.0716
     34 C           2.7659    0.4843   19.0519 C.3     1  UNL1        0.0199
     35 C           3.4632   -0.6752   18.4044 C.3     1  UNL1        0.0072
     36 C           3.8433   -1.8737   19.2224 C.3     1  UNL1        0.0367
     37 C           3.5259   -1.9127   20.6879 C.3     1  UNL1        0.0072
     38 C           2.8286   -0.7532   21.3355 C.3     1  UNL1        0.0199
     39 C           4.5406   -3.0332   18.5749 C.2     1  UNL1        0.0500
     40 O           5.7115   -2.7933   17.6686 O.co2   1  UNL1       -0.5492
     41 O           4.0670   -4.4328   18.8339 O.co2   1  UNL1       -0.5492
@<TRIPOS>UNITY_ATOM_ATTR
40 1
charge -1
@<TRIPOS>BOND
     1    18    19    1
     2    19    12    1
     3    12    13   ar
     4    13    14   ar
     5    14    15   ar
     6    15     1    1
     7     1     2   ar
     8     2     3   ar
     9     3     4   ar
    10     4     5   ar
    11     5     6    1
    12     5     7   ar
    13     7     8    1
    14     7     9   ar
    15     9    10   ar
    16    10    11   ar
    17    11    22    1
    18    22    29    1
    19    29    30    2
    20    29    31   am
    21    33    31    1
    22    33    34    1
    23    34    35    1
    24    35    36    1
    25    36    39    1
    26    39    40   ar
    27    39    41   ar
    28    36    37    1
    29    37    38    1
    30    22    23    1
    31    23    24    1
    32    24    25    1
    33    25    26    1
    34    26    27    1
    35    27    28    1
    36    15    16   ar
    37    16    20    1
    38    20    21    1
    39    16    17   ar
    40    17    12   ar
    41    11     1   ar
    42    38    33    1
    43    28    23    1
    44    10     3   ar
    45    31    32    1
@<TRIPOS>MOLECULE
*****
 41 45 0 0 0
SMALL
GASTEIGER

@<TRIPOS>ATOM
      1 C           5.7330    0.5713   19.4853 C.ar    1  UNL1        0.1486
      2 N           6.2297    1.7440   18.6928 N.ar    1  UNL1       -0.2266
      3 C           5.0531    2.6156   18.3676 C.ar    1  UNL1        0.1010
      4 C           4.9381    3.9047   17.6093 C.ar    1  UNL1        0.0526
      5 C           3.5991    4.5597   17.4424 C.ar    1  UNL1        0.1690
      6 F           3.4840    5.8488   16.6841 F       1  UNL1       -0.2017
      7 C           2.3750    3.9257   18.0339 C.ar    1  UNL1        0.1689
      8 F           1.0360    4.5808   17.8670 F       1  UNL1       -0.2017
      9 C           2.4900    2.6366   18.7921 C.ar    1  UNL1        0.0507
     10 C           3.8291    1.9816   18.9590 C.ar    1  UNL1        0.0816
     11 N           4.2493    0.7181   19.6498 N.ar    1  UNL1       -0.3046
     12 C           8.2515   -2.7961   21.0877 C.ar    1  UNL1        0.2275
     13 C           7.8226   -2.7986   19.6504 C.ar    1  UNL1        0.0580
     14 C           6.9831   -1.6762   19.1163 C.ar    1  UNL1        0.0125
     15 C           6.5725   -0.5512   20.0194 C.ar    1  UNL1        0.0875
     16 C           7.0014   -0.5486   21.4568 C.ar    1  UNL1        0.2303
     17 N           7.8409   -1.6711   21.9909 N.ar    1  UNL1       -0.1766
     18 C           8.7860   -5.3345   21.2320 C.3     1  UNL1        0.2542
     19 O           9.0910   -3.9186   21.6219 O.3     1  UNL1       -0.4561
     20 O           6.5909    0.5764   22.3600 O.3     1  UNL1       -0.4560
     21 C           5.6742    0.3125   23.5176 C.3     1  UNL1        0.2542
     22 C           3.3446   -0.2317   20.3773 C.3     1  UNL1        0.1628
     23 C           3.6094   -1.7072   20.3267 C.3     1  UNL1        0.0297
     24 C           3.4624   -2.4517   19.0327 C.3     1  UNL1        0.0024
     25 C           3.7272   -3.9272   18.9820 C.3     1  UNL1        0.0001
     26 C           4.1390   -4.6584   20.2253 C.3     1  UNL1        0.0000
     27 C           4.2860   -3.9140   21.5193 C.3     1  UNL1        0.0001
     28 C           4.0212   -2.4385   21.5700 C.3     1  UNL1        0.0024
     29 C           2.1749    0.2940   21.1556 C.2     1  UNL1        0.2431
     30 O           0.6925    0.0762   21.0833 O.2     1  UNL1       -0.2731
     31 N           2.3965    1.2589   22.2825 N.am    1  UNL1       -0.3044
     32 H           3.3097    1.5471   22.5114 H       1  UNL1        0.1494
     33 C           1.2269    1.7846   23.0607 C.3     1  UNL1        0.0716
     34 C           0.4030    2.9096   22.5078 C.3     1  UNL1        0.0199
     35 C          -0.7667    3.4353   23.2860 C.3     1  UNL1        0.0072
     36 C          -1.1125    2.8361   24.6169 C.3     1  UNL1        0.0367
     37 C          -0.2886    1.7110   25.1696 C.3     1  UNL1        0.0072
     38 C           0.8811    1.1853   24.3916 C.3     1  UNL1        0.0199
     39 C          -2.2821    3.3618   25.3950 C.2     1  UNL1        0.0500
     40 O          -3.5982    3.5859   24.7112 O.co2   1  UNL1       -0.5492
     41 O          -2.1357    3.6632   26.8571 O.co2   1  UNL1       -0.5492
@<TRIPOS>UNITY_ATOM_ATTR
40 1
charge -1
@<TRIPOS>BOND
     1    18    19    1
     2    19    12    1
     3    12    13   ar
     4    13    14   ar
     5    14    15   ar
     6    15     1    1
     7     1     2   ar
     8     2     3   ar
     9     3     4   ar
    10     4     5   ar
    11     5     6    1
    12     5     7   ar
    13     7     8    1
    14     7     9   ar
    15     9    10   ar
    16    10    11   ar
    17    11    22    1
    18    22    29    1
    19    29    30    2
    20    29    31   am
    21    33    31    1
    22    33    34    1
    23    34    35    1
    24    35    36    1
    25    36    39    1
    26    39    40   ar
    27    39    41   ar
    28    36    37    1
    29    37    38    1
    30    22    23    1
    31    23    24    1
    32    24    25    1
    33    25    26    1
    34    26    27    1
    35    27    28    1
    36    15    16   ar
    37    16    20    1
    38    20    21    1
    39    16    17   ar
    40    17    12   ar
    41    11     1   ar
    42    38    33    1
    43    28    23    1
    44    10     3   ar
    45    31    32    1
