@<TRIPOS>MOLECULE
*****
 33 37 0 0 0
SMALL
GASTEIGER

@<TRIPOS>ATOM
      1 C           6.5120   -1.8335   32.4269 C.ar    1  UNL1        0.0670
      2 C           6.7163   -1.0555   31.1608 C.ar    1  UNL1        0.0191
      3 C           6.9839   -1.7760   29.8727 C.ar    1  UNL1        0.0203
      4 C           7.0472   -3.2745   29.8507 C.ar    1  UNL1        0.0795
      5 C           6.8430   -4.0525   31.1167 C.ar    1  UNL1        0.0396
      6 C           6.9616   -5.5113   30.7885 C.ar    1  UNL1        0.1216
      7 N           7.2392   -5.6349   29.3196 N.ar    1  UNL1       -0.1677
      8 N           7.2921   -4.2525   28.7399 N.ar    1  UNL1       -0.2494
      9 C           6.5754   -3.3320   32.4048 C.ar    1  UNL1        0.0207
     10 O           3.7898   -1.9637   33.6808 O.2     1  UNL1       -0.2665
     11 C           4.8833   -1.1782   34.3420 C.ar    1  UNL1        0.2679
     12 C           4.6156   -0.4577   35.6301 C.ar    1  UNL1        0.0980
     13 C           5.7091    0.3278   36.2914 C.ar    1  UNL1        0.1453
     14 C           7.0703    0.3929   35.6645 C.ar    1  UNL1        0.0561
     15 C           7.3379   -0.3275   34.3763 C.ar    1  UNL1        0.0860
     16 N           6.2444   -1.1131   33.7151 N.ar    1  UNL1       -0.2729
     17 O           5.4415    1.0482   37.5795 O.3     1  UNL1       -0.4704
     18 C           4.4435    2.1674   37.6196 C.3     1  UNL1        0.2320
     19 C           3.0894    1.9435   38.2250 C.ar    1  UNL1        0.0212
     20 C           2.7450    0.6104   38.8199 C.ar    1  UNL1       -0.0007
     21 C           1.3910    0.3866   39.4253 C.ar    1  UNL1       -0.0002
     22 C           0.3814    1.4960   39.4356 C.ar    1  UNL1       -0.0000
     23 C           0.7259    2.8291   38.8407 C.ar    1  UNL1       -0.0002
     24 C           2.0799    3.0529   38.2353 C.ar    1  UNL1       -0.0007
     25 C           7.5454   -3.9084   27.3021 C.3     1  UNL1        0.1447
     26 C           6.7864   -4.6134   26.2173 C.3     1  UNL1        0.0988
     27 N           7.4518   -5.6928   25.4161 N.3     1  UNL1       -0.2689
     28 C           7.9483   -7.0053   25.9460 C.3     1  UNL1        0.0748
     29 C           8.5408   -7.7729   24.8016 C.3     1  UNL1        0.0480
     30 C           8.4106   -6.9349   23.5644 C.3     1  UNL1        0.1278
     31 O           8.8724   -7.3155   22.1889 O.3     1  UNL1       -0.3830
     32 C           7.7375   -5.6493   23.9442 C.3     1  UNL1        0.1017
     33 H           8.6692   -6.5973   21.5694 H       1  UNL1        0.2104
@<TRIPOS>BOND
     1    10    11    2
     2    11    12   ar
     3    12    13   ar
     4    13    17    1
     5    17    18    1
     6    18    19    1
     7    19    20   ar
     8    20    21   ar
     9    21    22   ar
    10    22    23   ar
    11    23    24   ar
    12    13    14   ar
    13    14    15   ar
    14    15    16   ar
    15    16     1    1
    16     1     2   ar
    17     2     3   ar
    18     3     4   ar
    19     4     5   ar
    20     5     6   ar
    21     6     7   ar
    22     7     8   ar
    23     8    25    1
    24    25    26    1
    25    26    27    1
    26    27    28    1
    27    28    29    1
    28    29    30    1
    29    30    31    1
    30    30    32    1
    31     5     9   ar
    32    16    11   ar
    33     9     1   ar
    34    24    19   ar
    35     8     4   ar
    36    32    27    1
    37    31    33    1
@<TRIPOS>MOLECULE
*****
 33 37 0 0 0
SMALL
GASTEIGER

@<TRIPOS>ATOM
      1 C           0.7335    2.1140   22.4647 C.ar    1  UNL1        0.0670
      2 C          -0.1918    3.2816   22.2903 C.ar    1  UNL1        0.0191
      3 C          -1.0566    3.7300   23.4309 C.ar    1  UNL1        0.0203
      4 C          -0.9961    3.0109   24.7459 C.ar    1  UNL1        0.0795
      5 C          -0.0708    1.8433   24.9203 C.ar    1  UNL1        0.0396
      6 C          -0.2265    1.3339   26.3225 C.ar    1  UNL1        0.1216
      7 N          -1.2481    2.1866   27.0147 N.ar    1  UNL1       -0.1677
      8 N          -1.7238    3.2231   26.0403 N.ar    1  UNL1       -0.2494
      9 C           0.7940    1.3949   23.7797 C.ar    1  UNL1        0.0207
     10 O          -0.2509    0.0008   20.5765 O.2     1  UNL1       -0.2665
     11 C           1.1062    0.6089   20.3800 C.ar    1  UNL1        0.2679
     12 C           1.9711    0.1604   19.2395 C.ar    1  UNL1        0.0980
     13 C           3.3282    0.7686   19.0430 C.ar    1  UNL1        0.1453
     14 C           3.8204    1.8252   19.9871 C.ar    1  UNL1        0.0561
     15 C           2.9555    2.2737   21.1277 C.ar    1  UNL1        0.0860
     16 N           1.5984    1.6655   21.3241 N.ar    1  UNL1       -0.2729
     17 O           4.1930    0.3201   17.9024 O.3     1  UNL1       -0.4704
     18 C           5.2377   -0.7334   18.1226 C.3     1  UNL1        0.2320
     19 C           5.0002   -1.8284   19.1200 C.ar    1  UNL1        0.0212
     20 C           4.0698   -2.9570   18.7874 C.ar    1  UNL1       -0.0007
     21 C           3.8323   -4.0519   19.7847 C.ar    1  UNL1       -0.0002
     22 C           4.5252   -4.0182   21.1147 C.ar    1  UNL1       -0.0000
     23 C           5.4556   -2.8897   21.4473 C.ar    1  UNL1       -0.0002
     24 C           5.6931   -1.7948   20.4499 C.ar    1  UNL1       -0.0007
     25 C          -2.7474    4.2852   26.3125 C.3     1  UNL1        0.1447
     26 C          -4.2066    3.9382   26.3122 C.3     1  UNL1        0.0988
     27 N          -4.9707    3.9102   25.0218 N.3     1  UNL1       -0.2689
     28 C          -4.5557    3.2015   23.7666 C.3     1  UNL1        0.0748
     29 C          -5.6125    3.4393   22.7290 C.3     1  UNL1        0.0480
     30 C          -6.6806    4.2951   23.3428 C.3     1  UNL1        0.1278
     31 O          -7.9266    4.7755   22.6597 O.3     1  UNL1       -0.3830
     32 C          -6.2839    4.5861   24.7599 C.3     1  UNL1        0.1017
     33 H          -8.4482    5.3112   23.2777 H       1  UNL1        0.2104
@<TRIPOS>BOND
     1    10    11    2
     2    11    12   ar
     3    12    13   ar
     4    13    17    1
     5    17    18    1
     6    18    19    1
     7    19    20   ar
     8    20    21   ar
     9    21    22   ar
    10    22    23   ar
    11    23    24   ar
    12    13    14   ar
    13    14    15   ar
    14    15    16   ar
    15    16     1    1
    16     1     2   ar
    17     2     3   ar
    18     3     4   ar
    19     4     5   ar
    20     5     6   ar
    21     6     7   ar
    22     7     8   ar
    23     8    25    1
    24    25    26    1
    25    26    27    1
    26    27    28    1
    27    28    29    1
    28    29    30    1
    29    30    31    1
    30    30    32    1
    31     5     9   ar
    32    16    11   ar
    33     9     1   ar
    34    24    19   ar
    35     8     4   ar
    36    32    27    1
    37    31    33    1
@<TRIPOS>MOLECULE
*****
 33 37 0 0 0
SMALL
GASTEIGER

@<TRIPOS>ATOM
      1 C         -15.7591   -1.3610   19.5615 C.ar    1  UNL1        0.0670
      2 C         -14.7679   -2.1349   20.3792 C.ar    1  UNL1        0.0191
      3 C         -14.5485   -3.5938   20.1083 C.ar    1  UNL1        0.0203
      4 C         -15.3204   -4.2788   19.0197 C.ar    1  UNL1        0.0795
      5 C         -16.3116   -3.5050   18.2021 C.ar    1  UNL1        0.0396
      6 C         -16.9212   -4.4431   17.2029 C.ar    1  UNL1        0.1216
      7 N         -16.3067   -5.7968   17.4031 N.ar    1  UNL1       -0.1677
      8 N         -15.3174   -5.6953   18.5259 N.ar    1  UNL1       -0.2494
      9 C         -16.5309   -2.0461   18.4730 C.ar    1  UNL1        0.0207
     10 O         -14.0866    0.6939   18.1544 O.2     1  UNL1       -0.2665
     11 C         -15.1422    1.1254   19.1288 C.ar    1  UNL1        0.2679
     12 C         -15.3616    2.5843   19.3997 C.ar    1  UNL1        0.0980
     13 C         -16.4173    3.0159   20.3741 C.ar    1  UNL1        0.1453
     14 C         -17.2535    1.9884   21.0777 C.ar    1  UNL1        0.0561
     15 C         -17.0341    0.5294   20.8068 C.ar    1  UNL1        0.0860
     16 N         -15.9785    0.0980   19.8324 N.ar    1  UNL1       -0.2729
     17 O         -16.6366    4.4748   20.6449 O.3     1  UNL1       -0.4704
     18 C         -16.8805    4.9489   22.0469 C.3     1  UNL1        0.2320
     19 C         -15.7823    4.8733   23.0660 C.ar    1  UNL1        0.0212
     20 C         -16.1081    4.5709   24.4986 C.ar    1  UNL1       -0.0007
     21 C         -15.0099    4.4952   25.5175 C.ar    1  UNL1       -0.0002
     22 C         -13.5860    4.7220   25.1039 C.ar    1  UNL1       -0.0000
     23 C         -13.2603    5.0244   23.6713 C.ar    1  UNL1       -0.0002
     24 C         -14.3584    5.1000   22.6523 C.ar    1  UNL1       -0.0007
     25 C         -14.4732   -6.8138   19.0611 C.3     1  UNL1        0.1447
     26 C         -13.3093   -7.3227   18.2635 C.3     1  UNL1        0.0988
     27 N         -11.9516   -6.7109   18.4437 N.3     1  UNL1       -0.2689
     28 C         -10.6405   -7.3629   18.1184 C.3     1  UNL1        0.0748
     29 C          -9.5454   -6.3946   18.4546 C.3     1  UNL1        0.0480
     30 C         -10.1796   -5.1442   18.9877 C.3     1  UNL1        0.1278
     31 O          -9.4541   -3.9142   19.4470 O.3     1  UNL1       -0.3830
     32 C         -11.6668   -5.3397   18.9810 C.3     1  UNL1        0.1017
     33 H         -10.0972   -3.2516   19.7443 H       1  UNL1        0.2104
@<TRIPOS>BOND
     1    10    11    2
     2    11    12   ar
     3    12    13   ar
     4    13    17    1
     5    17    18    1
     6    18    19    1
     7    19    20   ar
     8    20    21   ar
     9    21    22   ar
    10    22    23   ar
    11    23    24   ar
    12    13    14   ar
    13    14    15   ar
    14    15    16   ar
    15    16     1    1
    16     1     2   ar
    17     2     3   ar
    18     3     4   ar
    19     4     5   ar
    20     5     6   ar
    21     6     7   ar
    22     7     8   ar
    23     8    25    1
    24    25    26    1
    25    26    27    1
    26    27    28    1
    27    28    29    1
    28    29    30    1
    29    30    31    1
    30    30    32    1
    31     5     9   ar
    32    16    11   ar
    33     9     1   ar
    34    24    19   ar
    35     8     4   ar
    36    32    27    1
    37    31    33    1
@<TRIPOS>MOLECULE
*****
 33 37 0 0 0
SMALL
GASTEIGER

@<TRIPOS>ATOM
      1 C           6.8987   -3.5655   25.4661 C.ar    1  UNL1        0.0670
      2 C           7.6286   -2.4076   26.0798 C.ar    1  UNL1        0.0191
      3 C           8.2499   -2.5475   27.4379 C.ar    1  UNL1        0.0203
      4 C           8.1412   -3.8452   28.1823 C.ar    1  UNL1        0.0795
      5 C           7.4113   -5.0030   27.5687 C.ar    1  UNL1        0.0396
      6 C           7.4672   -6.1501   28.5335 C.ar    1  UNL1        0.1216
      7 N           8.2317   -5.7012   29.7435 N.ar    1  UNL1       -0.1677
      8 N           8.6483   -4.2767   29.5265 N.ar    1  UNL1       -0.2494
      9 C           6.7901   -4.8632   26.2106 C.ar    1  UNL1        0.0207
     10 O           8.3006   -4.6696   23.0546 O.2     1  UNL1       -0.2665
     11 C           6.9784   -3.9777   22.9022 C.ar    1  UNL1        0.2679
     12 C           6.3571   -3.8379   21.5441 C.ar    1  UNL1        0.0980
     13 C           5.0349   -3.1460   21.3917 C.ar    1  UNL1        0.1453
     14 C           4.3340   -2.5939   22.5975 C.ar    1  UNL1        0.0561
     15 C           4.9553   -2.7338   23.9557 C.ar    1  UNL1        0.0860
     16 N           6.2775   -3.4256   24.1080 N.ar    1  UNL1       -0.2729
     17 O           4.4137   -3.0062   20.0336 O.3     1  UNL1       -0.4704
     18 C           4.4377   -1.6814   19.3307 C.3     1  UNL1        0.2320
     19 C           3.2096   -0.8202   19.3114 C.ar    1  UNL1        0.0212
     20 C           3.1340    0.3576   18.3857 C.ar    1  UNL1       -0.0007
     21 C           1.9060    1.2187   18.3665 C.ar    1  UNL1       -0.0002
     22 C           0.7536    0.9020   19.2730 C.ar    1  UNL1       -0.0000
     23 C           0.8293   -0.2758   20.1987 C.ar    1  UNL1       -0.0002
     24 C           2.0573   -1.1369   20.2179 C.ar    1  UNL1       -0.0007
     25 C           9.4339   -3.4320   30.4852 C.3     1  UNL1        0.1447
     26 C           9.0511   -3.3895   31.9349 C.3     1  UNL1        0.0988
     27 N           7.7100   -2.8543   32.3412 N.3     1  UNL1       -0.2689
     28 C           7.4213   -1.4561   32.8012 C.3     1  UNL1        0.0748
     29 C           5.9551   -1.3610   33.1031 C.3     1  UNL1        0.0480
     30 C           5.3376   -2.7004   32.8296 C.3     1  UNL1        0.1278
     31 O           3.8897   -3.0548   32.9975 O.3     1  UNL1       -0.3830
     32 C           6.4223   -3.6233   32.3587 C.3     1  UNL1        0.1017
     33 H           3.7538   -3.9836   32.7532 H       1  UNL1        0.2104
@<TRIPOS>BOND
     1    10    11    2
     2    11    12   ar
     3    12    13   ar
     4    13    17    1
     5    17    18    1
     6    18    19    1
     7    19    20   ar
     8    20    21   ar
     9    21    22   ar
    10    22    23   ar
    11    23    24   ar
    12    13    14   ar
    13    14    15   ar
    14    15    16   ar
    15    16     1    1
    16     1     2   ar
    17     2     3   ar
    18     3     4   ar
    19     4     5   ar
    20     5     6   ar
    21     6     7   ar
    22     7     8   ar
    23     8    25    1
    24    25    26    1
    25    26    27    1
    26    27    28    1
    27    28    29    1
    28    29    30    1
    29    30    31    1
    30    30    32    1
    31     5     9   ar
    32    16    11   ar
    33     9     1   ar
    34    24    19   ar
    35     8     4   ar
    36    32    27    1
    37    31    33    1
@<TRIPOS>MOLECULE
*****
 33 37 0 0 0
SMALL
GASTEIGER

@<TRIPOS>ATOM
      1 C           6.2268   -2.2630   31.6426 C.ar    1  UNL1        0.0670
      2 C           7.1414   -1.8160   32.7442 C.ar    1  UNL1        0.0191
      3 C           6.7101   -0.7274   33.6816 C.ar    1  UNL1        0.0203
      4 C           5.3643   -0.0858   33.5174 C.ar    1  UNL1        0.0795
      5 C           4.4496   -0.5328   32.4158 C.ar    1  UNL1        0.0396
      6 C           3.1912    0.2792   32.5000 C.ar    1  UNL1        0.1216
      7 N           3.3281    1.2280   33.6537 N.ar    1  UNL1       -0.1677
      8 N           4.6711    1.0025   34.2825 N.ar    1  UNL1       -0.2494
      9 C           4.8809   -1.6214   31.4784 C.ar    1  UNL1        0.0207
     10 O           6.7990   -1.6269   28.7672 O.2     1  UNL1       -0.2665
     11 C           6.9441   -3.0337   29.2673 C.ar    1  UNL1        0.2679
     12 C           7.3754   -4.1223   28.3298 C.ar    1  UNL1        0.0980
     13 C           7.5205   -5.5290   28.8300 C.ar    1  UNL1        0.1453
     14 C           7.2344   -5.8471   30.2677 C.ar    1  UNL1        0.0561
     15 C           6.8031   -4.7584   31.2053 C.ar    1  UNL1        0.0860
     16 N           6.6580   -3.3517   30.7051 N.ar    1  UNL1       -0.2729
     17 O           7.9517   -6.6176   27.8925 O.3     1  UNL1       -0.4704
     18 C           7.1390   -6.9186   26.6683 C.3     1  UNL1        0.2320
     19 C           7.6800   -6.5880   25.3088 C.ar    1  UNL1        0.0212
     20 C           7.4711   -5.2197   24.7309 C.ar    1  UNL1       -0.0007
     21 C           8.0122   -4.8892   23.3715 C.ar    1  UNL1       -0.0002
     22 C           8.7622   -5.9270   22.5901 C.ar    1  UNL1       -0.0000
     23 C           8.9711   -7.2953   23.1681 C.ar    1  UNL1       -0.0002
     24 C           8.4300   -7.6258   24.5275 C.ar    1  UNL1       -0.0007
     25 C           5.2239    1.7363   35.4682 C.3     1  UNL1        0.1447
     26 C           4.3794    2.7481   36.1846 C.3     1  UNL1        0.0988
     27 N           3.4221    2.3058   37.2513 N.3     1  UNL1       -0.2689
     28 C           2.2453    3.0855   37.7584 C.3     1  UNL1        0.0748
     29 C           1.5695    2.2677   38.8187 C.3     1  UNL1        0.0480
     30 C           2.3286    0.9825   38.9670 C.3     1  UNL1        0.1278
     31 O           2.0004   -0.1309   39.9172 O.3     1  UNL1       -0.3830
     32 C           3.4736    1.0060   37.9983 C.3     1  UNL1        0.1017
     33 H           2.6471   -0.8463   39.8128 H       1  UNL1        0.2104
@<TRIPOS>BOND
     1    10    11    2
     2    11    12   ar
     3    12    13   ar
     4    13    17    1
     5    17    18    1
     6    18    19    1
     7    19    20   ar
     8    20    21   ar
     9    21    22   ar
    10    22    23   ar
    11    23    24   ar
    12    13    14   ar
    13    14    15   ar
    14    15    16   ar
    15    16     1    1
    16     1     2   ar
    17     2     3   ar
    18     3     4   ar
    19     4     5   ar
    20     5     6   ar
    21     6     7   ar
    22     7     8   ar
    23     8    25    1
    24    25    26    1
    25    26    27    1
    26    27    28    1
    27    28    29    1
    28    29    30    1
    29    30    31    1
    30    30    32    1
    31     5     9   ar
    32    16    11   ar
    33     9     1   ar
    34    24    19   ar
    35     8     4   ar
    36    32    27    1
    37    31    33    1
@<TRIPOS>MOLECULE
*****
 33 37 0 0 0
SMALL
GASTEIGER

@<TRIPOS>ATOM
      1 C           6.8997   -4.0422   22.1380 C.ar    1  UNL1        0.0670
      2 C           6.1768   -3.7719   23.4242 C.ar    1  UNL1        0.0191
      3 C           6.5936   -4.4764   24.6812 C.ar    1  UNL1        0.0203
      4 C           7.7334   -5.4511   24.6519 C.ar    1  UNL1        0.0795
      5 C           8.4563   -5.7214   23.3658 C.ar    1  UNL1        0.0396
      6 C           9.5343   -6.7270   23.6425 C.ar    1  UNL1        0.1216
      7 N           9.4777   -7.0781   25.0997 N.ar    1  UNL1       -0.1677
      8 N           8.3647   -6.2896   25.7236 N.ar    1  UNL1       -0.2494
      9 C           8.0394   -5.0170   22.1088 C.ar    1  UNL1        0.0207
     10 O           7.8943   -1.2690   21.5724 O.2     1  UNL1       -0.2665
     11 C           6.9802   -1.9512   20.5982 C.ar    1  UNL1        0.2679
     12 C           6.5634   -1.2467   19.3412 C.ar    1  UNL1        0.0980
     13 C           5.6492   -1.9289   18.3670 C.ar    1  UNL1        0.1453
     14 C           5.1519   -3.3155   18.6498 C.ar    1  UNL1        0.0561
     15 C           5.5687   -4.0199   19.9068 C.ar    1  UNL1        0.0860
     16 N           6.4828   -3.3378   20.8810 N.ar    1  UNL1       -0.2729
     17 O           5.2325   -1.2244   17.1100 O.3     1  UNL1       -0.4704
     18 C           3.8116   -0.7759   16.9376 C.3     1  UNL1        0.2320
     19 C           3.2640    0.3271   17.7942 C.ar    1  UNL1        0.0212
     20 C           1.8307    0.2930   18.2353 C.ar    1  UNL1       -0.0007
     21 C           1.2833    1.3959   19.0919 C.ar    1  UNL1       -0.0002
     22 C           2.1691    2.5329   19.5074 C.ar    1  UNL1       -0.0000
     23 C           3.6023    2.5670   19.0664 C.ar    1  UNL1       -0.0002
     24 C           4.1498    1.4640   18.2098 C.ar    1  UNL1       -0.0007
     25 C           7.9548   -6.3321   27.1659 C.3     1  UNL1        0.1447
     26 C           8.8528   -5.7521   28.2181 C.3     1  UNL1        0.0988
     27 N           8.2620   -5.1255   29.4462 N.3     1  UNL1       -0.2689
     28 C           8.4342   -3.6995   29.8783 C.3     1  UNL1        0.0748
     29 C           7.6738   -3.5075   31.1569 C.3     1  UNL1        0.0480
     30 C           7.0316   -4.8149   31.5151 C.3     1  UNL1        0.1278
     31 O           6.1760   -5.0765   32.7191 O.3     1  UNL1       -0.3830
     32 C           7.3951   -5.8149   30.4577 C.3     1  UNL1        0.1017
     33 H           5.8866   -6.0023   32.7152 H       1  UNL1        0.2104
@<TRIPOS>BOND
     1    10    11    2
     2    11    12   ar
     3    12    13   ar
     4    13    17    1
     5    17    18    1
     6    18    19    1
     7    19    20   ar
     8    20    21   ar
     9    21    22   ar
    10    22    23   ar
    11    23    24   ar
    12    13    14   ar
    13    14    15   ar
    14    15    16   ar
    15    16     1    1
    16     1     2   ar
    17     2     3   ar
    18     3     4   ar
    19     4     5   ar
    20     5     6   ar
    21     6     7   ar
    22     7     8   ar
    23     8    25    1
    24    25    26    1
    25    26    27    1
    26    27    28    1
    27    28    29    1
    28    29    30    1
    29    30    31    1
    30    30    32    1
    31     5     9   ar
    32    16    11   ar
    33     9     1   ar
    34    24    19   ar
    35     8     4   ar
    36    32    27    1
    37    31    33    1
@<TRIPOS>MOLECULE
*****
 33 37 0 0 0
SMALL
GASTEIGER

@<TRIPOS>ATOM
      1 C           2.2876    1.3739   30.8430 C.ar    1  UNL1        0.0670
      2 C           2.2713    2.6649   31.6065 C.ar    1  UNL1        0.0191
      3 C           2.8626    2.7293   32.9835 C.ar    1  UNL1        0.0203
      4 C           3.4701    1.5027   33.5970 C.ar    1  UNL1        0.0795
      5 C           3.4864    0.2117   32.8335 C.ar    1  UNL1        0.0396
      6 C           4.1497   -0.8254   33.6905 C.ar    1  UNL1        0.1216
      7 N           4.5433   -0.1754   34.9837 N.ar    1  UNL1       -0.1677
      8 N           4.1234    1.2635   34.9260 N.ar    1  UNL1       -0.2494
      9 C           2.8951    0.1473   31.4565 C.ar    1  UNL1        0.0207
     10 O           4.0145    1.8850   28.4437 O.2     1  UNL1       -0.2665
     11 C           2.5597    1.5650   28.2662 C.ar    1  UNL1        0.2679
     12 C           1.9685    1.5006   26.8892 C.ar    1  UNL1        0.0980
     13 C           0.5137    1.1806   26.7118 C.ar    1  UNL1        0.1453
     14 C          -0.3497    0.9251   27.9114 C.ar    1  UNL1        0.0561
     15 C           0.2416    0.9895   29.2885 C.ar    1  UNL1        0.0860
     16 N           1.6963    1.3095   29.4659 N.ar    1  UNL1       -0.2729
     17 O          -0.0775    1.1162   25.3347 O.3     1  UNL1       -0.4704
     18 C           0.6476    1.7367   24.1775 C.3     1  UNL1        0.2320
     19 C           1.2511    0.8652   23.1162 C.ar    1  UNL1        0.0212
     20 C           2.4144   -0.0222   23.4463 C.ar    1  UNL1       -0.0007
     21 C           3.0178   -0.8937   22.3850 C.ar    1  UNL1       -0.0002
     22 C           2.4579   -0.8777   20.9936 C.ar    1  UNL1       -0.0000
     23 C           1.2945    0.0097   20.6634 C.ar    1  UNL1       -0.0002
     24 C           0.6911    0.8811   21.7247 C.ar    1  UNL1       -0.0007
     25 C           4.3218    2.2840   36.0073 C.3     1  UNL1        0.1447
     26 C           3.1355    2.9662   36.6215 C.3     1  UNL1        0.0988
     27 N           2.3201    2.2595   37.6634 N.3     1  UNL1       -0.2689
     28 C           1.2289    2.8694   38.4924 C.3     1  UNL1        0.0748
     29 C           0.6873    1.8057   39.4007 C.3     1  UNL1        0.0480
     30 C           1.4437    0.5383   39.1331 C.3     1  UNL1        0.1278
     31 O           1.2287   -0.7784   39.8187 O.3     1  UNL1       -0.3830
     32 C           2.4529    0.8189   38.0593 C.3     1  UNL1        0.1017
     33 H           1.8477   -1.4341   39.4611 H       1  UNL1        0.2104
@<TRIPOS>BOND
     1    10    11    2
     2    11    12   ar
     3    12    13   ar
     4    13    17    1
     5    17    18    1
     6    18    19    1
     7    19    20   ar
     8    20    21   ar
     9    21    22   ar
    10    22    23   ar
    11    23    24   ar
    12    13    14   ar
    13    14    15   ar
    14    15    16   ar
    15    16     1    1
    16     1     2   ar
    17     2     3   ar
    18     3     4   ar
    19     4     5   ar
    20     5     6   ar
    21     6     7   ar
    22     7     8   ar
    23     8    25    1
    24    25    26    1
    25    26    27    1
    26    27    28    1
    27    28    29    1
    28    29    30    1
    29    30    31    1
    30    30    32    1
    31     5     9   ar
    32    16    11   ar
    33     9     1   ar
    34    24    19   ar
    35     8     4   ar
    36    32    27    1
    37    31    33    1
@<TRIPOS>MOLECULE
*****
 33 37 0 0 0
SMALL
GASTEIGER

@<TRIPOS>ATOM
      1 C           3.4830   -0.3675   19.6345 C.ar    1  UNL1        0.0670
      2 C           2.0238   -0.6399   19.4185 C.ar    1  UNL1        0.0191
      3 C           1.1221    0.4523   18.9249 C.ar    1  UNL1        0.0203
      4 C           1.6794    1.8170   18.6472 C.ar    1  UNL1        0.0795
      5 C           3.1385    2.0894   18.8633 C.ar    1  UNL1        0.0396
      6 C           3.4003    3.5226   18.5065 C.ar    1  UNL1        0.1216
      7 N           2.1029    4.1361   18.0700 N.ar    1  UNL1       -0.1677
      8 N           1.0393    3.0819   18.1570 N.ar    1  UNL1       -0.2494
      9 C           4.0403    0.9971   19.3569 C.ar    1  UNL1        0.0207
     10 O           3.1397   -1.4572   22.4084 O.2     1  UNL1       -0.2665
     11 C           4.2132   -2.0047   21.5151 C.ar    1  UNL1        0.2679
     12 C           5.1150   -3.0969   22.0088 C.ar    1  UNL1        0.0980
     13 C           6.1885   -3.6444   21.1155 C.ar    1  UNL1        0.1453
     14 C           6.3601   -3.0995   19.7285 C.ar    1  UNL1        0.0561
     15 C           5.4583   -2.0072   19.2348 C.ar    1  UNL1        0.0860
     16 N           4.3848   -1.4598   20.1282 N.ar    1  UNL1       -0.2729
     17 O           7.0903   -4.7366   21.6091 O.3     1  UNL1       -0.4704
     18 C           7.9091   -4.5301   22.8488 C.3     1  UNL1        0.2320
     19 C           7.6969   -5.4123   24.0434 C.ar    1  UNL1        0.0212
     20 C           6.9909   -4.8782   25.2543 C.ar    1  UNL1       -0.0007
     21 C           6.7788   -5.7603   26.4487 C.ar    1  UNL1       -0.0002
     22 C           7.2726   -7.1766   26.4323 C.ar    1  UNL1       -0.0000
     23 C           7.9786   -7.7107   25.2214 C.ar    1  UNL1       -0.0002
     24 C           8.1907   -6.8286   24.0270 C.ar    1  UNL1       -0.0007
     25 C          -0.4099    3.2612   17.8139 C.3     1  UNL1        0.1447
     26 C          -1.2014    4.3629   18.4540 C.3     1  UNL1        0.0988
     27 N          -2.5003    4.0538   19.1376 N.3     1  UNL1       -0.2689
     28 C          -3.8654    4.4473   18.6563 C.3     1  UNL1        0.0748
     29 C          -4.8709    3.9336   19.6437 C.3     1  UNL1        0.0480
     30 C          -4.1273    3.2226   20.7352 C.3     1  UNL1        0.1278
     31 O          -4.7410    2.5545   21.9299 O.3     1  UNL1       -0.3830
     32 C          -2.6621    3.2969   20.4224 C.3     1  UNL1        0.1017
     33 H          -4.0409    2.1706   22.4808 H       1  UNL1        0.2104
@<TRIPOS>BOND
     1    10    11    2
     2    11    12   ar
     3    12    13   ar
     4    13    17    1
     5    17    18    1
     6    18    19    1
     7    19    20   ar
     8    20    21   ar
     9    21    22   ar
    10    22    23   ar
    11    23    24   ar
    12    13    14   ar
    13    14    15   ar
    14    15    16   ar
    15    16     1    1
    16     1     2   ar
    17     2     3   ar
    18     3     4   ar
    19     4     5   ar
    20     5     6   ar
    21     6     7   ar
    22     7     8   ar
    23     8    25    1
    24    25    26    1
    25    26    27    1
    26    27    28    1
    27    28    29    1
    28    29    30    1
    29    30    31    1
    30    30    32    1
    31     5     9   ar
    32    16    11   ar
    33     9     1   ar
    34    24    19   ar
    35     8     4   ar
    36    32    27    1
    37    31    33    1
@<TRIPOS>MOLECULE
*****
 33 37 0 0 0
SMALL
GASTEIGER

@<TRIPOS>ATOM
      1 C           3.0312   -0.3213   20.1512 C.ar    1  UNL1        0.0670
      2 C           4.4259    0.0905   20.5188 C.ar    1  UNL1        0.0191
      3 C           5.5263   -0.9285   20.5454 C.ar    1  UNL1        0.0203
      4 C           5.2320   -2.3592   20.2042 C.ar    1  UNL1        0.0795
      5 C           3.8373   -2.7710   19.8366 C.ar    1  UNL1        0.0396
      6 C           3.8489   -4.2434   19.5502 C.ar    1  UNL1        0.1216
      7 N           5.2509   -4.7416   19.7409 N.ar    1  UNL1       -0.1677
      8 N           6.1057   -3.5772   20.1451 N.ar    1  UNL1       -0.2494
      9 C           2.7369   -1.7520   19.8101 C.ar    1  UNL1        0.0207
     10 O           1.6944    0.5096   22.7051 O.2     1  UNL1       -0.2665
     11 C           1.2623    1.1132   21.4016 C.ar    1  UNL1        0.2679
     12 C           0.1619    2.1321   21.3751 C.ar    1  UNL1        0.0980
     13 C          -0.2702    2.7357   20.0716 C.ar    1  UNL1        0.1453
     14 C           0.3981    2.3202   18.7946 C.ar    1  UNL1        0.0561
     15 C           1.4986    1.3012   18.8212 C.ar    1  UNL1        0.0860
     16 N           1.9307    0.6977   20.1246 N.ar    1  UNL1       -0.2729
     17 O          -1.3707    3.7546   20.0451 O.3     1  UNL1       -0.4704
     18 C          -2.8001    3.3181   20.1715 C.3     1  UNL1        0.2320
     19 C          -3.5157    3.4634   21.4819 C.ar    1  UNL1        0.0212
     20 C          -5.0139    3.4082   21.5285 C.ar    1  UNL1       -0.0007
     21 C          -5.7293    3.5535   22.8388 C.ar    1  UNL1       -0.0002
     22 C          -4.9466    3.7541   24.1025 C.ar    1  UNL1       -0.0000
     23 C          -3.4483    3.8094   24.0560 C.ar    1  UNL1       -0.0002
     24 C          -2.7329    3.6640   22.7456 C.ar    1  UNL1       -0.0007
     25 C           7.5760   -3.6226   20.4386 C.3     1  UNL1        0.1447
     26 C           8.1718   -4.8300   21.0998 C.3     1  UNL1        0.0988
     27 N           7.8920   -5.1075   22.5470 N.3     1  UNL1       -0.2689
     28 C           8.4459   -6.2473   23.3494 C.3     1  UNL1        0.0748
     29 C           7.9053   -6.1380   24.7443 C.3     1  UNL1        0.0480
     30 C           7.0173   -4.9307   24.8041 C.3     1  UNL1        0.1278
     31 O           6.2688   -4.4453   26.0101 O.3     1  UNL1       -0.3830
     32 C           7.0090   -4.2937   23.4460 C.3     1  UNL1        0.1017
     33 H           5.7698   -3.6458   25.7808 H       1  UNL1        0.2104
@<TRIPOS>BOND
     1    10    11    2
     2    11    12   ar
     3    12    13   ar
     4    13    17    1
     5    17    18    1
     6    18    19    1
     7    19    20   ar
     8    20    21   ar
     9    21    22   ar
    10    22    23   ar
    11    23    24   ar
    12    13    14   ar
    13    14    15   ar
    14    15    16   ar
    15    16     1    1
    16     1     2   ar
    17     2     3   ar
    18     3     4   ar
    19     4     5   ar
    20     5     6   ar
    21     6     7   ar
    22     7     8   ar
    23     8    25    1
    24    25    26    1
    25    26    27    1
    26    27    28    1
    27    28    29    1
    28    29    30    1
    29    30    31    1
    30    30    32    1
    31     5     9   ar
    32    16    11   ar
    33     9     1   ar
    34    24    19   ar
    35     8     4   ar
    36    32    27    1
    37    31    33    1
