@<TRIPOS>MOLECULE
*****
 21 21 0 0 0
SMALL
GASTEIGER

@<TRIPOS>ATOM
      1 O         -10.7156  -14.7826   18.6521 O.2     1  UNL1       -0.2467
      2 C         -10.9096  -15.6230   19.8794 C.ar    1  UNL1        0.3270
      3 N          -9.8334  -15.6871   20.9223 N.ar    1  UNL1       -0.3085
      4 C         -10.0274  -16.5275   22.1495 C.ar    1  UNL1        0.0633
      5 C         -11.2976  -17.3037   22.3339 C.ar    1  UNL1        0.0988
      6 I         -11.4916  -18.1441   23.5612 I       1  UNL1       -0.0363
      7 C         -12.3738  -17.2396   21.2910 C.ar    1  UNL1        0.2675
      8 O         -13.6441  -18.0159   21.4754 O.2     1  UNL1       -0.2666
      9 N         -12.1798  -16.3992   20.0638 N.ar    1  UNL1       -0.2742
     10 H          -8.9998  -15.1777   20.8013 H       1  UNL1        0.1702
     11 H         -12.8862  -16.3572   19.3793 H       1  UNL1        0.1735
     12 C          -8.9512  -16.5916   23.1924 C.3     0  ACE0        0.1137
     13 N          -8.4432  -15.3297   23.8246 N.3     1  UNL1       -0.2895
     14 H          -9.2610  -14.7623   24.0476 H       1  UNL1        0.1237
     15 CA         -7.6104  -15.3974   25.0702 C.3     1  UNL1        0.1136
     16 CB         -6.1174  -15.2826   24.9814 C.3     1  UNL1        0.1553
     17 O          -5.3850  -14.3205   25.8692 O.3     1  UNL1       -0.3805
     18 H          -5.6319  -13.4122   25.6349 H       1  UNL1        0.2105
     19 C          -8.2705  -15.5798   26.4048 C.3     1  UNL1        0.1553
     20 O          -7.9101  -14.6795   27.5491 O.3     1  UNL1       -0.3805
     21 H          -6.9865  -14.8326   27.8026 H       1  UNL1        0.2105
@<TRIPOS>BOND
     1     1     2    2
     2     2     3   ar
     3     3     4   ar
     4     4    12    1
     5    12    13    1
     6    13    15    1
     7    15    16    1
     8    16    17    1
     9    15    19    1
    10    19    20    1
    11     4     5   ar
    12     5     6    1
    13     5     7   ar
    14     7     8    2
    15     7     9   ar
    16     9     2   ar
    17     3    10    1
    18    13    14    1
    19    17    18    1
    20    20    21    1
    21     9    11    1
@<TRIPOS>MOLECULE
*****
 21 21 0 0 0
SMALL
GASTEIGER

@<TRIPOS>ATOM
      1 O         -12.1380  -15.6555   19.0422 O.2     1  UNL1       -0.2467
      2 C         -11.7807  -16.3806   20.3058 C.ar    1  UNL1        0.3270
      3 N         -10.3405  -16.5809   20.6739 N.ar    1  UNL1       -0.3085
      4 C          -9.9832  -17.3060   21.9375 C.ar    1  UNL1        0.0633
      5 C         -11.0661  -17.8308   22.8329 C.ar    1  UNL1        0.0988
      6 I         -10.7088  -18.5559   24.0964 I       1  UNL1       -0.0363
      7 C         -12.5063  -17.6306   22.4647 C.ar    1  UNL1        0.2675
      8 O         -13.5893  -18.1555   23.3601 O.2     1  UNL1       -0.2666
      9 N         -12.8636  -16.9055   21.2011 N.ar    1  UNL1       -0.2742
     10 H          -9.6297  -16.2364   20.0863 H       1  UNL1        0.1702
     11 H         -13.8089  -16.7741   20.9595 H       1  UNL1        0.1735
     12 C          -8.5429  -17.5062   22.3056 C.3     0  ACE0        0.1137
     13 N          -7.6182  -16.3278   22.3847 N.3     1  UNL1       -0.2895
     14 H          -8.1182  -15.5338   21.9848 H       1  UNL1        0.1237
     15 CA         -7.0863  -15.8797   23.7137 C.3     1  UNL1        0.1136
     16 CB         -5.6163  -15.6392   23.8908 C.3     1  UNL1        0.1553
     17 O          -4.9203  -14.6029   23.0590 O.3     1  UNL1       -0.3805
     18 H          -4.9292  -14.8760   22.1283 H       1  UNL1        0.2105
     19 C          -8.0243  -15.6721   24.8657 C.3     1  UNL1        0.1553
     20 O          -9.3811  -15.0773   24.6303 O.3     1  UNL1       -0.3805
     21 H          -9.2844  -14.1593   24.3323 H       1  UNL1        0.2105
@<TRIPOS>BOND
     1     1     2    2
     2     2     3   ar
     3     3     4   ar
     4     4    12    1
     5    12    13    1
     6    13    15    1
     7    15    16    1
     8    16    17    1
     9    15    19    1
    10    19    20    1
    11     4     5   ar
    12     5     6    1
    13     5     7   ar
    14     7     8    2
    15     7     9   ar
    16     9     2   ar
    17     3    10    1
    18    13    14    1
    19    17    18    1
    20    20    21    1
    21     9    11    1
@<TRIPOS>MOLECULE
*****
 21 21 0 0 0
SMALL
GASTEIGER

@<TRIPOS>ATOM
      1 O          -7.4925  -14.8495   23.9911 O.2     1  UNL1       -0.2467
      2 C          -8.0970  -15.9184   23.1298 C.ar    1  UNL1        0.3270
      3 N          -7.2225  -16.9722   22.5176 N.ar    1  UNL1       -0.3085
      4 C          -7.8271  -18.0411   21.6563 C.ar    1  UNL1        0.0633
      5 C          -9.3061  -18.0563   21.4072 C.ar    1  UNL1        0.0988
      6 I          -9.9106  -19.1253   20.5458 I       1  UNL1       -0.0363
      7 C         -10.1806  -17.0026   22.0193 C.ar    1  UNL1        0.2675
      8 O         -11.6598  -17.0178   21.7702 O.2     1  UNL1       -0.2666
      9 N          -9.5761  -15.9337   22.8807 N.ar    1  UNL1       -0.2742
     10 H          -6.2517  -16.9622   22.6811 H       1  UNL1        0.1702
     11 H         -10.1501  -15.2421   23.2825 H       1  UNL1        0.1735
     12 C          -6.9524  -19.0949   21.0441 C.3     0  ACE0        0.1137
     13 N          -5.5928  -18.7322   20.5245 N.3     1  UNL1       -0.2895
     14 H          -5.5746  -17.7167   20.4310 H       1  UNL1        0.1237
     15 CA         -4.3669  -19.1179   21.2980 C.3     1  UNL1        0.1136
     16 CB         -4.1693  -18.6064   22.6942 C.3     1  UNL1        0.1553
     17 O          -4.2632  -17.1357   22.9745 O.3     1  UNL1       -0.3805
     18 H          -3.5360  -16.6744   22.5281 H       1  UNL1        0.2105
     19 C          -3.3386  -20.0151   20.6754 C.3     1  UNL1        0.1553
     20 O          -2.0412  -20.2728   21.3826 O.3     1  UNL1       -0.3805
     21 H          -1.5303  -19.4496   21.4311 H       1  UNL1        0.2105
@<TRIPOS>BOND
     1     1     2    2
     2     2     3   ar
     3     3     4   ar
     4     4    12    1
     5    12    13    1
     6    13    15    1
     7    15    16    1
     8    16    17    1
     9    15    19    1
    10    19    20    1
    11     4     5   ar
    12     5     6    1
    13     5     7   ar
    14     7     8    2
    15     7     9   ar
    16     9     2   ar
    17     3    10    1
    18    13    14    1
    19    17    18    1
    20    20    21    1
    21     9    11    1
@<TRIPOS>MOLECULE
*****
 21 21 0 0 0
SMALL
GASTEIGER

@<TRIPOS>ATOM
      1 O          -9.5369  -21.1097   25.1189 O.2     1  UNL1       -0.2467
      2 C         -10.1154  -19.8992   24.4480 C.ar    1  UNL1        0.3270
      3 N          -9.2282  -18.9844   23.6567 N.ar    1  UNL1       -0.3085
      4 C          -9.8067  -17.7740   22.9858 C.ar    1  UNL1        0.0633
      5 C         -11.2723  -17.4783   23.1062 C.ar    1  UNL1        0.0988
      6 I         -11.8508  -16.2678   22.4352 I       1  UNL1       -0.0363
      7 C         -12.1594  -18.3930   23.8974 C.ar    1  UNL1        0.2675
      8 O         -13.6251  -18.0974   24.0179 O.2     1  UNL1       -0.2666
      9 N         -11.5809  -19.6035   24.5684 N.ar    1  UNL1       -0.2742
     10 H          -8.2663  -19.1785   23.5777 H       1  UNL1        0.1702
     11 H         -12.1632  -20.2039   25.0877 H       1  UNL1        0.1735
     12 C          -8.9195  -16.8592   22.1945 C.3     0  ACE0        0.1137
     13 N          -7.4287  -16.9663   22.3204 N.3     1  UNL1       -0.2895
     14 H          -7.0320  -16.5700   21.4684 H       1  UNL1        0.1237
     15 CA         -6.7242  -16.3114   23.4714 C.3     1  UNL1        0.1136
     16 CB         -7.4826  -15.4102   24.4002 C.3     1  UNL1        0.1553
     17 O          -7.6953  -13.9696   24.0400 O.3     1  UNL1       -0.3805
     18 H          -6.8413  -13.5097   24.0289 H       1  UNL1        0.2105
     19 C          -5.2613  -16.5576   23.6936 C.3     1  UNL1        0.1553
     20 O          -4.2455  -15.6267   23.1008 O.3     1  UNL1       -0.3805
     21 H          -4.2755  -15.6892   22.1333 H       1  UNL1        0.2105
@<TRIPOS>BOND
     1     1     2    2
     2     2     3   ar
     3     3     4   ar
     4     4    12    1
     5    12    13    1
     6    13    15    1
     7    15    16    1
     8    16    17    1
     9    15    19    1
    10    19    20    1
    11     4     5   ar
    12     5     6    1
    13     5     7   ar
    14     7     8    2
    15     7     9   ar
    16     9     2   ar
    17     3    10    1
    18    13    14    1
    19    17    18    1
    20    20    21    1
    21     9    11    1
@<TRIPOS>MOLECULE
*****
 21 21 0 0 0
SMALL
GASTEIGER

@<TRIPOS>ATOM
      1 O         -12.1929  -15.7039   19.1879 O.2     1  UNL1       -0.2467
      2 C         -11.7241  -16.6969   20.2097 C.ar    1  UNL1        0.3270
      3 N         -10.3987  -17.3785   20.0403 N.ar    1  UNL1       -0.3085
      4 C          -9.9299  -18.3715   21.0621 C.ar    1  UNL1        0.0633
      5 C         -10.7865  -18.6829   22.2534 C.ar    1  UNL1        0.0988
      6 I         -10.3177  -19.6759   23.2752 I       1  UNL1       -0.0363
      7 C         -12.1119  -18.0014   22.4228 C.ar    1  UNL1        0.2675
      8 O         -12.9686  -18.3128   23.6142 O.2     1  UNL1       -0.2666
      9 N         -12.5807  -17.0084   21.4010 N.ar    1  UNL1       -0.2742
     10 H          -9.8365  -17.1741   19.2584 H       1  UNL1        0.1702
     11 H         -13.4506  -16.5611   21.5122 H       1  UNL1        0.1735
     12 C          -8.6044  -19.0531   20.8926 C.3     0  ACE0        0.1137
     13 N          -7.3341  -18.2675   21.0308 N.3     1  UNL1       -0.2895
     14 H          -7.4432  -17.6735   21.8528 H       1  UNL1        0.1237
     15 CA         -6.0237  -18.9813   21.1833 C.3     1  UNL1        0.1136
     16 CB         -5.6020  -20.0005   20.1667 C.3     1  UNL1        0.1553
     17 O          -5.9121  -21.4516   20.3862 O.3     1  UNL1       -0.3805
     18 H          -5.4174  -21.7752   21.1553 H       1  UNL1        0.2105
     19 C          -5.1349  -18.6760   22.3525 C.3     1  UNL1        0.1553
     20 O          -5.1765  -17.3199   22.9922 O.3     1  UNL1       -0.3805
     21 H          -4.8520  -16.6559   22.3639 H       1  UNL1        0.2105
@<TRIPOS>BOND
     1     1     2    2
     2     2     3   ar
     3     3     4   ar
     4     4    12    1
     5    12    13    1
     6    13    15    1
     7    15    16    1
     8    16    17    1
     9    15    19    1
    10    19    20    1
    11     4     5   ar
    12     5     6    1
    13     5     7   ar
    14     7     8    2
    15     7     9   ar
    16     9     2   ar
    17     3    10    1
    18    13    14    1
    19    17    18    1
    20    20    21    1
    21     9    11    1
@<TRIPOS>MOLECULE
*****
 21 21 0 0 0
SMALL
GASTEIGER

@<TRIPOS>ATOM
      1 O         -16.7576  -10.9582   19.6945 O.2     1  UNL1       -0.2467
      2 C         -16.3982   -9.5222   19.4520 C.ar    1  UNL1        0.3270
      3 N         -15.0172   -9.1623   18.9901 N.ar    1  UNL1       -0.3085
      4 C         -14.6579   -7.7264   18.7476 C.ar    1  UNL1        0.0633
      5 C         -15.6795   -6.6502   18.9670 C.ar    1  UNL1        0.0988
      6 I         -15.3201   -5.2142   18.7245 I       1  UNL1       -0.0363
      7 C         -17.0604   -7.0100   19.4289 C.ar    1  UNL1        0.2675
      8 O         -18.0821   -5.9339   19.6483 O.2     1  UNL1       -0.2666
      9 N         -17.4198   -8.4460   19.6714 N.ar    1  UNL1       -0.2742
     10 H         -14.3467   -9.8687   18.8461 H       1  UNL1        0.1702
     11 H         -18.3262   -8.6822   19.9745 H       1  UNL1        0.1735
     12 C         -13.2768   -7.3666   18.2857 C.3     0  ACE0        0.1137
     13 N         -12.1099   -7.5263   19.2146 N.3     1  UNL1       -0.2895
     14 H         -11.8912   -8.5221   19.2442 H       1  UNL1        0.1237
     15 CA        -10.8233   -6.8086   18.9329 C.3     1  UNL1        0.1136
     16 CB         -9.5936   -7.5876   18.5708 C.3     1  UNL1        0.1553
     17 O          -9.7188   -8.8805   17.8205 O.3     1  UNL1       -0.3805
     18 H         -10.1678   -9.5355   18.3775 H       1  UNL1        0.2105
     19 C         -10.7662   -5.3118   19.0132 C.3     1  UNL1        0.1553
     20 O          -9.5189   -4.6337   19.4972 O.3     1  UNL1       -0.3805
     21 H          -9.3738   -4.8520   20.4311 H       1  UNL1        0.2105
@<TRIPOS>BOND
     1     1     2    2
     2     2     3   ar
     3     3     4   ar
     4     4    12    1
     5    12    13    1
     6    13    15    1
     7    15    16    1
     8    16    17    1
     9    15    19    1
    10    19    20    1
    11     4     5   ar
    12     5     6    1
    13     5     7   ar
    14     7     8    2
    15     7     9   ar
    16     9     2   ar
    17     3    10    1
    18    13    14    1
    19    17    18    1
    20    20    21    1
    21     9    11    1
@<TRIPOS>MOLECULE
*****
 21 21 0 0 0
SMALL
GASTEIGER

@<TRIPOS>ATOM
      1 O          -9.9123   -7.6915   18.7919 O.2     1  UNL1       -0.2467
      2 C         -11.1577   -6.8677   18.9349 C.ar    1  UNL1        0.3270
      3 N         -12.5026   -7.5314   18.9119 N.ar    1  UNL1       -0.3085
      4 C         -13.7480   -6.7077   19.0549 C.ar    1  UNL1        0.0633
      5 C         -13.6484   -5.2202   19.2209 C.ar    1  UNL1        0.0988
      6 I         -14.8938   -4.3965   19.3639 I       1  UNL1       -0.0363
      7 C         -12.3035   -4.5566   19.2439 C.ar    1  UNL1        0.2675
      8 O         -12.2039   -3.0691   19.4100 O.2     1  UNL1       -0.2666
      9 N         -11.0581   -5.3803   19.1009 N.ar    1  UNL1       -0.2742
     10 H         -12.5680   -8.5077   18.8029 H       1  UNL1        0.1702
     11 H         -10.1753   -4.9447   19.1160 H       1  UNL1        0.1735
     12 C         -15.0930   -7.3714   19.0318 C.3     0  ACE0        0.1137
     13 N         -15.2245   -8.8135   19.4230 N.3     1  UNL1       -0.2895
     14 H         -15.0180   -8.8681   20.4204 H       1  UNL1        0.1237
     15 CA        -16.5231   -9.5331   19.2097 C.3     1  UNL1        0.1136
     16 CB        -16.5529  -10.8091   18.4217 C.3     1  UNL1        0.1553
     17 O         -16.9370  -12.0953   19.0913 O.3     1  UNL1       -0.3805
     18 H         -16.2666  -12.3284   19.7524 H       1  UNL1        0.2105
     19 C         -17.7921   -8.9768   19.7844 C.3     1  UNL1        0.1553
     20 O         -18.9975   -9.8571   19.9328 O.3     1  UNL1       -0.3805
     21 H         -19.3175  -10.1179   19.0550 H       1  UNL1        0.2105
@<TRIPOS>BOND
     1     1     2    2
     2     2     3   ar
     3     3     4   ar
     4     4    12    1
     5    12    13    1
     6    13    15    1
     7    15    16    1
     8    16    17    1
     9    15    19    1
    10    19    20    1
    11     4     5   ar
    12     5     6    1
    13     5     7   ar
    14     7     8    2
    15     7     9   ar
    16     9     2   ar
    17     3    10    1
    18    13    14    1
    19    17    18    1
    20    20    21    1
    21     9    11    1
@<TRIPOS>MOLECULE
*****
 21 21 0 0 0
SMALL
GASTEIGER

@<TRIPOS>ATOM
      1 O          -9.7836   -8.6116   17.8359 O.2     1  UNL1       -0.2467
      2 C         -10.6028   -7.4272   18.2555 C.ar    1  UNL1        0.3270
      3 N         -12.0442   -7.6068   18.6296 N.ar    1  UNL1       -0.3085
      4 C         -12.8634   -6.4224   19.0491 C.ar    1  UNL1        0.0633
      5 C         -12.2412   -5.0583   19.0946 C.ar    1  UNL1        0.0988
      6 I         -13.0604   -3.8739   19.5141 I       1  UNL1       -0.0363
      7 C         -10.7998   -4.8787   18.7205 C.ar    1  UNL1        0.2675
      8 O         -10.1775   -3.5146   18.7659 O.2     1  UNL1       -0.2666
      9 N          -9.9806   -6.0631   18.3009 N.ar    1  UNL1       -0.2742
     10 H         -12.4527   -8.5021   18.5997 H       1  UNL1        0.1702
     11 H          -9.0345   -5.9452   18.0553 H       1  UNL1        0.1735
     12 C         -14.3049   -6.6021   19.4233 C.3     0  ACE0        0.1137
     13 N         -15.2397   -7.3106   18.4883 N.3     1  UNL1       -0.2895
     14 H         -14.8279   -7.2487   17.5572 H       1  UNL1        0.1237
     15 CA        -15.5780   -8.7539   18.7170 C.3     1  UNL1        0.1136
     16 CB        -14.9997   -9.8106   17.8231 C.3     1  UNL1        0.1553
     17 O         -15.2075  -11.2609   18.1446 O.3     1  UNL1       -0.3805
     18 H         -14.7481  -11.4780   18.9709 H       1  UNL1        0.2105
     19 C         -16.4946   -9.1406   19.8397 C.3     1  UNL1        0.1553
     20 O         -17.3067  -10.3982   19.7456 O.3     1  UNL1       -0.3805
     21 H         -17.9550  -10.3115   19.0293 H       1  UNL1        0.2105
@<TRIPOS>BOND
     1     1     2    2
     2     2     3   ar
     3     3     4   ar
     4     4    12    1
     5    12    13    1
     6    13    15    1
     7    15    16    1
     8    16    17    1
     9    15    19    1
    10    19    20    1
    11     4     5   ar
    12     5     6    1
    13     5     7   ar
    14     7     8    2
    15     7     9   ar
    16     9     2   ar
    17     3    10    1
    18    13    14    1
    19    17    18    1
    20    20    21    1
    21     9    11    1
@<TRIPOS>MOLECULE
*****
 21 21 0 0 0
SMALL
GASTEIGER

@<TRIPOS>ATOM
      1 O          -9.8487  -19.9096   25.3211 O.2     1  UNL1       -0.2467
      2 C         -10.1286  -18.9403   24.2111 C.ar    1  UNL1        0.3270
      3 N          -9.0768  -17.9568   23.7912 N.ar    1  UNL1       -0.3085
      4 C          -9.3567  -16.9875   22.6812 C.ar    1  UNL1        0.0633
      5 C         -10.6884  -17.0017   21.9911 C.ar    1  UNL1        0.0988
      6 I         -10.9683  -16.0324   20.8811 I       1  UNL1       -0.0363
      7 C         -11.7402  -17.9853   22.4109 C.ar    1  UNL1        0.2675
      8 O         -13.0720  -17.9996   21.7208 O.2     1  UNL1       -0.2666
      9 N         -11.4603  -18.9546   23.5209 N.ar    1  UNL1       -0.2742
     10 H          -8.2028  -17.9474   24.2442 H       1  UNL1        0.1702
     11 H         -12.1506  -19.6001   23.7965 H       1  UNL1        0.1735
     12 C          -8.3048  -16.0039   22.2614 C.3     0  ACE0        0.1137
     13 N          -7.8524  -14.9373   23.2141 N.3     1  UNL1       -0.2895
     14 H          -8.6793  -14.6297   23.7260 H       1  UNL1        0.1237
     15 CA         -6.7988  -15.2431   24.2369 C.3     1  UNL1        0.1136
     16 CB         -5.3582  -15.3271   23.8277 C.3     1  UNL1        0.1553
     17 O          -4.8109  -16.6068   23.2681 O.3     1  UNL1       -0.3805
     18 H          -4.8249  -17.2920   23.9545 H       1  UNL1        0.2105
     19 C          -7.1857  -15.4648   25.6692 C.3     1  UNL1        0.1553
     20 O          -6.1315  -15.4885   26.7359 O.3     1  UNL1       -0.3805
     21 H          -5.5542  -16.2566   26.6029 H       1  UNL1        0.2105
@<TRIPOS>BOND
     1     1     2    2
     2     2     3   ar
     3     3     4   ar
     4     4    12    1
     5    12    13    1
     6    13    15    1
     7    15    16    1
     8    16    17    1
     9    15    19    1
    10    19    20    1
    11     4     5   ar
    12     5     6    1
    13     5     7   ar
    14     7     8    2
    15     7     9   ar
    16     9     2   ar
    17     3    10    1
    18    13    14    1
    19    17    18    1
    20    20    21    1
    21     9    11    1
