@<TRIPOS>MOLECULE
*****
 36 39 0 0 0
SMALL
GASTEIGER

@<TRIPOS>ATOM
      1 O          -9.2731  -19.8981   22.6488 O.3     1  UNL1       -0.4741
      2 C          -7.9554  -19.7901   21.9404 C.ar    1  UNL1        0.1513
      3 C          -6.6851  -19.6847   22.7312 C.ar    1  UNL1        0.0688
      4 C          -5.3674  -19.5767   22.0226 C.ar    1  UNL1        0.1620
      5 F          -4.0971  -19.4714   22.8134 F       1  UNL1       -0.2026
      6 C          -5.3199  -19.5740   20.5234 C.ar    1  UNL1        0.1535
      7 C          -6.5902  -19.6793   19.7327 C.ar    1  UNL1        0.0369
      8 C          -7.9079  -19.7873   20.4411 C.ar    1  UNL1        0.0930
      9 CL         -9.1782  -19.8927   19.6503 Cl      1  UNL1       -0.0790
     10 S          -4.0022  -19.4659   19.8150 S.O2    1  UNL1        0.0769
     11 O          -4.4453  -18.1777   19.1873 O.2     1  UNL1       -0.1498
     12 O          -3.5592  -20.7542   20.4426 O.2     1  UNL1       -0.1498
     13 N          -2.6845  -19.3579   19.1065 N.pl3   1  UNL1       -0.1984
     14 H          -2.5134  -19.8964   18.3003 H       1  UNL1        0.1753
     15 C          -1.6274  -18.4293   19.6264 C.ar    1  UNL1        0.1542
     16 C          -1.8669  -17.1326   20.3413 C.ar    1  UNL1        0.0725
     17 S          -0.5327  -16.5363   20.6795 S.2     1  UNL1       -0.0625
     18 C           0.5315  -17.4645   20.1735 C.ar    1  UNL1        0.1360
     19 N          -0.1450  -18.6345   19.5227 N.ar    1  UNL1       -0.2203
     20 C          -9.9916  -18.6573   23.0896 C.3     1  UNL1        0.2110
     21 N         -12.0133  -19.1130   20.9204 N.3     1  UNL1       -0.3218
     22 C         -11.2980  -17.7979   21.0148 C.3     1  UNL1        0.0588
     23 C         -11.5936  -16.7107   20.0246 C.3     1  UNL1        0.0206
     24 C         -10.8784  -15.3956   20.1190 C.3     1  UNL1        0.0271
     25 C          -9.8676  -15.1677   21.2036 C.2     1  UNL1       -0.0302
     26 C          -9.5720  -16.2549   22.1937 C.2     1  UNL1       -0.0218
     27 C         -10.2872  -17.5701   22.0993 C.3     1  UNL1        0.0798
     28 H         -12.6590  -19.0930   20.1311 H       1  UNL1        0.1188
     29 H         -12.5341  -19.2794   21.7815 H       1  UNL1        0.1188
     30 C          -8.5611  -16.0271   23.2784 C.ar    1  UNL1       -0.0040
     31 C          -9.0154  -15.7192   24.6743 C.ar    1  UNL1        0.0020
     32 C          -8.0046  -15.4913   25.7589 C.ar    1  UNL1        0.0296
     33 C          -6.5394  -15.5715   25.4475 C.ar    1  UNL1        0.1401
     34 F          -5.5286  -15.3436   26.5320 F       1  UNL1       -0.2042
     35 C          -6.0852  -15.8794   24.0515 C.ar    1  UNL1        0.0296
     36 C          -7.0960  -16.1072   22.9669 C.ar    1  UNL1        0.0020
@<TRIPOS>BOND
     1    22    21    1
     2    22    23    1
     3    23    24    1
     4    24    25    1
     5    25    26    2
     6    26    30    1
     7    30    31   ar
     8    31    32   ar
     9    32    33   ar
    10    33    34    1
    11    33    35   ar
    12    35    36   ar
    13    26    27    1
    14    27    20    1
    15    20     1    1
    16     1     2    1
    17     2     3   ar
    18     3     4   ar
    19     4     5    1
    20     4     6   ar
    21     6    10    1
    22    10    11    2
    23    10    12    2
    24    10    13    1
    25    13    15    1
    26    15    16   ar
    27    16    17   ar
    28    17    18   ar
    29    18    19   ar
    30     6     7   ar
    31     7     8   ar
    32     8     9    1
    33    27    22    1
    34     8     2   ar
    35    36    30   ar
    36    19    15   ar
    37    21    28    1
    38    21    29    1
    39    13    14    1
@<TRIPOS>MOLECULE
*****
 36 39 0 0 0
SMALL
GASTEIGER

@<TRIPOS>ATOM
      1 O         -10.7002  -20.2283   22.3705 O.3     1  UNL1       -0.4741
      2 C          -9.3413  -20.0290   21.7676 C.ar    1  UNL1        0.1513
      3 C          -8.1124  -20.2464   22.5997 C.ar    1  UNL1        0.0688
      4 C          -6.7534  -20.0471   21.9967 C.ar    1  UNL1        0.1620
      5 F          -5.5245  -20.2644   22.8289 F       1  UNL1       -0.2026
      6 C          -6.6234  -19.6304   20.5617 C.ar    1  UNL1        0.1535
      7 C          -7.8524  -19.4131   19.7295 C.ar    1  UNL1        0.0369
      8 C          -9.2113  -19.6124   20.3324 C.ar    1  UNL1        0.0930
      9 CL        -10.4402  -19.3950   19.5003 Cl      1  UNL1       -0.0790
     10 S          -5.2645  -19.4311   19.9587 S.O2    1  UNL1        0.0769
     11 O          -4.9396  -20.8730   20.2143 O.2     1  UNL1       -0.1498
     12 O          -5.5894  -17.9892   19.7031 O.2     1  UNL1       -0.1498
     13 N          -3.9055  -19.2319   19.3558 N.pl3   1  UNL1       -0.1984
     14 H          -3.6523  -19.7214   18.5400 H       1  UNL1        0.1753
     15 C          -2.9323  -18.2867   19.9958 C.ar    1  UNL1        0.1542
     16 C          -1.6395  -17.8146   19.3993 C.ar    1  UNL1        0.0725
     17 S          -0.9893  -16.8838   20.3794 S.2     1  UNL1       -0.0625
     18 C          -1.8803  -16.7805   21.5817 C.ar    1  UNL1        0.1360
     19 N          -3.0812  -17.6475   21.3447 N.ar    1  UNL1       -0.2203
     20 C         -11.3054  -19.1559   23.2270 C.3     1  UNL1        0.2110
     21 N         -10.1787  -20.0528   25.8588 N.3     1  UNL1       -0.3218
     22 C          -9.8566  -18.6859   25.3318 C.3     1  UNL1        0.0588
     23 C          -8.9711  -17.7674   26.1207 C.3     1  UNL1        0.0206
     24 C          -8.6491  -16.4004   25.5938 C.3     1  UNL1        0.0271
     25 C          -9.2124  -15.9519   24.2779 C.2     1  UNL1       -0.0302
     26 C         -10.0978  -16.8704   23.4890 C.2     1  UNL1       -0.0218
     27 C         -10.4199  -18.2374   24.0160 C.3     1  UNL1        0.0798
     28 H          -9.7154  -20.1887   26.7573 H       1  UNL1        0.1188
     29 H          -9.8520  -20.7577   25.1978 H       1  UNL1        0.1188
     30 C         -10.6612  -16.4219   22.1731 C.ar    1  UNL1       -0.0040
     31 C         -12.1067  -16.6643   21.8545 C.ar    1  UNL1        0.0020
     32 C         -12.6701  -16.2158   20.5386 C.ar    1  UNL1        0.0296
     33 C         -11.7879  -15.5250   19.5414 C.ar    1  UNL1        0.1401
     34 F         -12.3512  -15.0766   18.2255 F       1  UNL1       -0.2042
     35 C         -10.3422  -15.2827   19.8601 C.ar    1  UNL1        0.0296
     36 C          -9.7789  -15.7311   21.1759 C.ar    1  UNL1        0.0020
@<TRIPOS>BOND
     1    22    21    1
     2    22    23    1
     3    23    24    1
     4    24    25    1
     5    25    26    2
     6    26    30    1
     7    30    31   ar
     8    31    32   ar
     9    32    33   ar
    10    33    34    1
    11    33    35   ar
    12    35    36   ar
    13    26    27    1
    14    27    20    1
    15    20     1    1
    16     1     2    1
    17     2     3   ar
    18     3     4   ar
    19     4     5    1
    20     4     6   ar
    21     6    10    1
    22    10    11    2
    23    10    12    2
    24    10    13    1
    25    13    15    1
    26    15    16   ar
    27    16    17   ar
    28    17    18   ar
    29    18    19   ar
    30     6     7   ar
    31     7     8   ar
    32     8     9    1
    33    27    22    1
    34     8     2   ar
    35    36    30   ar
    36    19    15   ar
    37    21    28    1
    38    21    29    1
    39    13    14    1
@<TRIPOS>MOLECULE
*****
 36 39 0 0 0
SMALL
GASTEIGER

@<TRIPOS>ATOM
      1 O          -8.7652  -15.6494   24.8357 O.3     1  UNL1       -0.4741
      2 C          -7.4345  -16.1535   24.3615 C.ar    1  UNL1        0.1513
      3 C          -7.3557  -17.0439   23.1569 C.ar    1  UNL1        0.0688
      4 C          -6.0248  -17.5480   22.6826 C.ar    1  UNL1        0.1620
      5 F          -5.9460  -18.4384   21.4780 F       1  UNL1       -0.2026
      6 C          -4.7729  -17.1618   23.4130 C.ar    1  UNL1        0.1535
      7 C          -4.8517  -16.2714   24.6176 C.ar    1  UNL1        0.0369
      8 C          -6.1824  -15.7673   25.0918 C.ar    1  UNL1        0.0930
      9 CL         -6.2612  -14.8770   26.2964 Cl      1  UNL1       -0.0790
     10 S          -3.4422  -17.6659   22.9388 S.O2    1  UNL1        0.0769
     11 O          -3.8377  -19.0632   23.3143 O.2     1  UNL1       -0.1498
     12 O          -3.0466  -16.2686   22.5632 O.2     1  UNL1       -0.1498
     13 N          -2.1114  -18.1702   22.4645 N.pl3   1  UNL1       -0.1984
     14 H          -1.4753  -18.5599   23.1069 H       1  UNL1        0.1753
     15 C          -1.7499  -18.0805   21.0115 C.ar    1  UNL1        0.1542
     16 C          -2.7144  -18.0509   19.8631 C.ar    1  UNL1        0.0725
     17 S          -1.9210  -17.9568   18.5936 S.2     1  UNL1       -0.0625
     18 C          -0.4661  -17.9283   18.9573 C.ar    1  UNL1        0.1360
     19 N          -0.3602  -18.0048   20.4517 N.ar    1  UNL1       -0.2203
     20 C         -10.0295  -16.2728   24.3230 C.3     1  UNL1        0.2110
     21 N          -9.2249  -17.9523   26.6751 N.3     1  UNL1       -0.3218
     22 C          -9.7538  -18.6058   25.4328 C.3     1  UNL1        0.0588
     23 C          -9.8805  -20.0989   25.3665 C.3     1  UNL1        0.0206
     24 C         -10.4094  -20.7523   24.1242 C.3     1  UNL1        0.0271
     25 C         -10.8116  -19.9126   22.9482 C.2     1  UNL1       -0.0302
     26 C         -10.6850  -18.4195   23.0145 C.2     1  UNL1       -0.0218
     27 C         -10.1561  -17.7660   24.2568 C.3     1  UNL1        0.0798
     28 H          -9.0030  -18.6677   27.3674 H       1  UNL1        0.1188
     29 H          -9.9304  -17.3202   27.0535 H       1  UNL1        0.1188
     30 C         -11.0873  -17.5797   21.8385 C.ar    1  UNL1       -0.0040
     31 C         -12.3637  -16.7930   21.8802 C.ar    1  UNL1        0.0020
     32 C         -12.7660  -15.9532   20.7042 C.ar    1  UNL1        0.0296
     33 C         -11.8918  -15.9001   19.4864 C.ar    1  UNL1        0.1401
     34 F         -12.2940  -15.0604   18.3104 F       1  UNL1       -0.2042
     35 C         -10.6153  -16.6869   19.4447 C.ar    1  UNL1        0.0296
     36 C         -10.2131  -17.5266   20.6207 C.ar    1  UNL1        0.0020
@<TRIPOS>BOND
     1    22    21    1
     2    22    23    1
     3    23    24    1
     4    24    25    1
     5    25    26    2
     6    26    30    1
     7    30    31   ar
     8    31    32   ar
     9    32    33   ar
    10    33    34    1
    11    33    35   ar
    12    35    36   ar
    13    26    27    1
    14    27    20    1
    15    20     1    1
    16     1     2    1
    17     2     3   ar
    18     3     4   ar
    19     4     5    1
    20     4     6   ar
    21     6    10    1
    22    10    11    2
    23    10    12    2
    24    10    13    1
    25    13    15    1
    26    15    16   ar
    27    16    17   ar
    28    17    18   ar
    29    18    19   ar
    30     6     7   ar
    31     7     8   ar
    32     8     9    1
    33    27    22    1
    34     8     2   ar
    35    36    30   ar
    36    19    15   ar
    37    21    28    1
    38    21    29    1
    39    13    14    1
@<TRIPOS>MOLECULE
*****
 36 39 0 0 0
SMALL
GASTEIGER

@<TRIPOS>ATOM
      1 O         -13.8655   -5.8459   16.3777 O.3     1  UNL1       -0.4741
      2 C         -14.7108   -4.9261   17.2079 C.ar    1  UNL1        0.1513
      3 C         -15.1382   -3.5982   16.6565 C.ar    1  UNL1        0.0688
      4 C         -15.9836   -2.6783   17.4867 C.ar    1  UNL1        0.1620
      5 F         -16.4110   -1.3504   16.9353 F       1  UNL1       -0.2026
      6 C         -16.4015   -3.0863   18.8683 C.ar    1  UNL1        0.1535
      7 C         -15.9741   -4.4142   19.4197 C.ar    1  UNL1        0.0369
      8 C         -15.1288   -5.3341   18.5896 C.ar    1  UNL1        0.0930
      9 CL        -14.7013   -6.6619   19.1410 Cl      1  UNL1       -0.0790
     10 S         -17.2468   -2.1665   19.6985 S.O2    1  UNL1        0.0769
     11 O         -18.4778   -2.9045   19.2628 O.2     1  UNL1       -0.1498
     12 O         -16.0159   -1.4284   20.1341 O.2     1  UNL1       -0.1498
     13 N         -18.0923   -1.2466   20.5287 N.pl3   1  UNL1       -0.1984
     14 H         -18.7641   -1.6177   21.1452 H       1  UNL1        0.1753
     15 C         -17.9141    0.2388   20.4194 C.ar    1  UNL1        0.1542
     16 C         -18.0472    1.0530   19.1667 C.ar    1  UNL1        0.0725
     17 S         -17.7868    2.4882   19.5167 S.2     1  UNL1       -0.0625
     18 C         -17.4928    2.5610   20.9858 C.ar    1  UNL1        0.1360
     19 N         -17.5714    1.1708   21.5438 N.ar    1  UNL1       -0.2203
     20 C         -12.4083   -5.5506   16.1791 C.3     1  UNL1        0.2110
     21 N         -11.5734   -8.4254   15.9822 N.3     1  UNL1       -0.3218
     22 C         -10.9763   -7.5415   17.0369 C.3     1  UNL1        0.0588
     23 C          -9.9618   -8.0950   17.9930 C.3     1  UNL1        0.0206
     24 C          -9.3647   -7.2111   19.0477 C.3     1  UNL1        0.0271
     25 C          -9.7821   -5.7738   19.1461 C.2     1  UNL1       -0.0302
     26 C         -10.7966   -5.2203   18.1900 C.2     1  UNL1       -0.0218
     27 C         -11.3937   -6.1042   17.1353 C.3     1  UNL1        0.0798
     28 H         -11.1787   -9.3626   16.0607 H       1  UNL1        0.1188
     29 H         -11.3631   -8.0439   15.0599 H       1  UNL1        0.1188
     30 C         -11.2141   -3.7829   18.2884 C.ar    1  UNL1       -0.0040
     31 C         -12.2855   -3.3777   19.2568 C.ar    1  UNL1        0.0020
     32 C         -12.7030   -1.9403   19.3553 C.ar    1  UNL1        0.0296
     33 C         -12.0490   -0.9081   18.4852 C.ar    1  UNL1        0.1401
     34 F         -12.4664    0.5292   18.5836 F       1  UNL1       -0.2042
     35 C         -10.9776   -1.3134   17.5167 C.ar    1  UNL1        0.0296
     36 C         -10.5601   -2.7507   17.4183 C.ar    1  UNL1        0.0020
@<TRIPOS>BOND
     1    22    21    1
     2    22    23    1
     3    23    24    1
     4    24    25    1
     5    25    26    2
     6    26    30    1
     7    30    31   ar
     8    31    32   ar
     9    32    33   ar
    10    33    34    1
    11    33    35   ar
    12    35    36   ar
    13    26    27    1
    14    27    20    1
    15    20     1    1
    16     1     2    1
    17     2     3   ar
    18     3     4   ar
    19     4     5    1
    20     4     6   ar
    21     6    10    1
    22    10    11    2
    23    10    12    2
    24    10    13    1
    25    13    15    1
    26    15    16   ar
    27    16    17   ar
    28    17    18   ar
    29    18    19   ar
    30     6     7   ar
    31     7     8   ar
    32     8     9    1
    33    27    22    1
    34     8     2   ar
    35    36    30   ar
    36    19    15   ar
    37    21    28    1
    38    21    29    1
    39    13    14    1
@<TRIPOS>MOLECULE
*****
 36 39 0 0 0
SMALL
GASTEIGER

@<TRIPOS>ATOM
      1 O           5.4616    0.3384   19.3331 O.3     1  UNL1       -0.4741
      2 C           4.0713    0.8851   19.4677 C.ar    1  UNL1        0.1513
      3 C           3.7382    1.8189   20.5933 C.ar    1  UNL1        0.0688
      4 C           2.3479    2.3657   20.7278 C.ar    1  UNL1        0.1620
      5 F           2.0148    3.2995   21.8535 F       1  UNL1       -0.2026
      6 C           1.2906    1.9786   19.7367 C.ar    1  UNL1        0.1535
      7 C           1.6237    1.0448   18.6110 C.ar    1  UNL1        0.0369
      8 C           3.0140    0.4980   18.4765 C.ar    1  UNL1        0.0930
      9 CL          3.3470   -0.4358   17.3509 Cl      1  UNL1       -0.0790
     10 S          -0.0997    2.5253   19.8712 S.O2    1  UNL1        0.0769
     11 O          -0.5475    1.2343   20.4898 O.2     1  UNL1       -0.1498
     12 O           0.3482    3.8163   19.2526 O.2     1  UNL1       -0.1498
     13 N          -1.4900    3.0721   20.0057 N.pl3   1  UNL1       -0.1984
     14 H          -2.0396    3.2226   19.2029 H       1  UNL1        0.1753
     15 C          -2.0430    3.3893   21.3635 C.ar    1  UNL1        0.1542
     16 C          -1.2580    3.8860   22.5412 C.ar    1  UNL1        0.0725
     17 S          -2.2079    4.0693   23.6876 S.2     1  UNL1       -0.0625
     18 C          -3.5801    3.6859   23.2183 C.ar    1  UNL1        0.1360
     19 N          -3.4782    3.2656   21.7820 N.ar    1  UNL1       -0.2203
     20 C           5.8888   -0.8368   20.1617 C.3     1  UNL1        0.2110
     21 N           6.5033   -2.2153   17.5690 N.3     1  UNL1       -0.3218
     22 C           5.6288   -2.8863   18.5863 C.3     1  UNL1        0.0588
     23 C           5.0616   -4.2466   18.3073 C.3     1  UNL1        0.0206
     24 C           4.1871   -4.9176   19.3246 C.3     1  UNL1        0.0271
     25 C           3.8798   -4.2284   20.6209 C.2     1  UNL1       -0.0302
     26 C           4.4470   -2.8681   20.9000 C.2     1  UNL1       -0.0218
     27 C           5.3215   -2.1971   19.8826 C.3     1  UNL1        0.0798
     28 H           6.6053   -2.8218   16.7553 H       1  UNL1        0.1188
     29 H           7.4212   -2.0348   17.9757 H       1  UNL1        0.1188
     30 C           4.1398   -2.1788   22.1963 C.ar    1  UNL1       -0.0040
     31 C           3.0503   -1.1497   22.2588 C.ar    1  UNL1        0.0020
     32 C           2.7430   -0.4604   23.5551 C.ar    1  UNL1        0.0296
     33 C           3.5253   -0.8003   24.7891 C.ar    1  UNL1        0.1401
     34 F           3.2180   -0.1111   26.0854 F       1  UNL1       -0.2042
     35 C           4.6148   -1.8295   24.7266 C.ar    1  UNL1        0.0296
     36 C           4.9220   -2.5187   23.4303 C.ar    1  UNL1        0.0020
@<TRIPOS>BOND
     1    22    21    1
     2    22    23    1
     3    23    24    1
     4    24    25    1
     5    25    26    2
     6    26    30    1
     7    30    31   ar
     8    31    32   ar
     9    32    33   ar
    10    33    34    1
    11    33    35   ar
    12    35    36   ar
    13    26    27    1
    14    27    20    1
    15    20     1    1
    16     1     2    1
    17     2     3   ar
    18     3     4   ar
    19     4     5    1
    20     4     6   ar
    21     6    10    1
    22    10    11    2
    23    10    12    2
    24    10    13    1
    25    13    15    1
    26    15    16   ar
    27    16    17   ar
    28    17    18   ar
    29    18    19   ar
    30     6     7   ar
    31     7     8   ar
    32     8     9    1
    33    27    22    1
    34     8     2   ar
    35    36    30   ar
    36    19    15   ar
    37    21    28    1
    38    21    29    1
    39    13    14    1
@<TRIPOS>MOLECULE
*****
 36 39 0 0 0
SMALL
GASTEIGER

@<TRIPOS>ATOM
      1 O           6.5517   -4.6422   20.6148 O.3     1  UNL1       -0.4741
      2 C           5.6755   -3.5209   20.1406 C.ar    1  UNL1        0.1513
      3 C           6.2366   -2.1364   20.0051 C.ar    1  UNL1        0.0688
      4 C           5.3603   -1.0151   19.5308 C.ar    1  UNL1        0.1620
      5 F           5.9213    0.3694   19.3953 F       1  UNL1       -0.2026
      6 C           3.9229   -1.2784   19.1921 C.ar    1  UNL1        0.1535
      7 C           3.3619   -2.6629   19.3276 C.ar    1  UNL1        0.0369
      8 C           4.2381   -3.7841   19.8018 C.ar    1  UNL1        0.0930
      9 CL          3.6770   -5.1686   19.9373 Cl      1  UNL1       -0.0790
     10 S           3.0467   -0.1571   18.7178 S.O2    1  UNL1        0.0769
     11 O           3.4472   -0.4434   17.3010 O.2     1  UNL1       -0.1498
     12 O           2.6462    0.1291   20.1347 O.2     1  UNL1       -0.1498
     13 N           2.1704    0.9642   18.2435 N.pl3   1  UNL1       -0.1984
     14 H           1.2979    0.7669   17.8323 H       1  UNL1        0.1753
     15 C           2.6236    2.3860   18.3957 C.ar    1  UNL1        0.1542
     16 C           1.7378    3.5731   18.6325 C.ar    1  UNL1        0.0725
     17 S           2.6089    4.7911   18.7210 S.2     1  UNL1       -0.0625
     18 C           4.0330    4.3567   18.5388 C.ar    1  UNL1        0.1360
     19 N           4.0422    2.8702   18.3378 N.ar    1  UNL1       -0.2203
     20 C           7.6592   -4.3682   21.5887 C.3     1  UNL1        0.2110
     21 N           8.9825   -6.9774   22.2529 N.3     1  UNL1       -0.3218
     22 C           8.2448   -6.2186   23.3159 C.3     1  UNL1        0.0588
     23 C           8.1688   -6.7643   24.7110 C.3     1  UNL1        0.0206
     24 C           7.4311   -6.0055   25.7741 C.3     1  UNL1        0.0271
     25 C           6.7695   -4.7010   25.4420 C.2     1  UNL1       -0.0302
     26 C           6.8455   -4.1552   24.0469 C.2     1  UNL1       -0.0218
     27 C           7.5832   -4.9140   22.9839 C.3     1  UNL1        0.0798
     28 H           9.3664   -7.8343   22.6512 H       1  UNL1        0.1188
     29 H           9.7417   -6.4016   21.8890 H       1  UNL1        0.1188
     30 C           6.1839   -2.8506   23.7149 C.ar    1  UNL1       -0.0040
     31 C           6.9932   -1.5884   23.6731 C.ar    1  UNL1        0.0020
     32 C           6.3316   -0.2837   23.3410 C.ar    1  UNL1        0.0296
     33 C           4.8606   -0.2414   23.0507 C.ar    1  UNL1        0.1401
     34 F           4.1989    1.0632   22.7186 F       1  UNL1       -0.2042
     35 C           4.0512   -1.5036   23.0925 C.ar    1  UNL1        0.0296
     36 C           4.7128   -2.8082   23.4245 C.ar    1  UNL1        0.0020
@<TRIPOS>BOND
     1    22    21    1
     2    22    23    1
     3    23    24    1
     4    24    25    1
     5    25    26    2
     6    26    30    1
     7    30    31   ar
     8    31    32   ar
     9    32    33   ar
    10    33    34    1
    11    33    35   ar
    12    35    36   ar
    13    26    27    1
    14    27    20    1
    15    20     1    1
    16     1     2    1
    17     2     3   ar
    18     3     4   ar
    19     4     5    1
    20     4     6   ar
    21     6    10    1
    22    10    11    2
    23    10    12    2
    24    10    13    1
    25    13    15    1
    26    15    16   ar
    27    16    17   ar
    28    17    18   ar
    29    18    19   ar
    30     6     7   ar
    31     7     8   ar
    32     8     9    1
    33    27    22    1
    34     8     2   ar
    35    36    30   ar
    36    19    15   ar
    37    21    28    1
    38    21    29    1
    39    13    14    1
@<TRIPOS>MOLECULE
*****
 36 39 0 0 0
SMALL
GASTEIGER

@<TRIPOS>ATOM
      1 O         -10.9108  -19.2366   22.9808 O.3     1  UNL1       -0.4741
      2 C          -9.5357  -19.5584   22.4755 C.ar    1  UNL1        0.1513
      3 C          -9.0821  -19.0299   21.1469 C.ar    1  UNL1        0.0688
      4 C          -7.7069  -19.3517   20.6416 C.ar    1  UNL1        0.1620
      5 F          -7.2534  -18.8233   19.3130 F       1  UNL1       -0.2026
      6 C          -6.7854  -20.2020   21.4648 C.ar    1  UNL1        0.1535
      7 C          -7.2389  -20.7305   22.7933 C.ar    1  UNL1        0.0369
      8 C          -8.6140  -20.4087   23.2987 C.ar    1  UNL1        0.0930
      9 CL         -9.0676  -20.9371   24.6272 Cl      1  UNL1       -0.0790
     10 S          -5.4102  -20.5238   20.9594 S.O2    1  UNL1        0.0769
     11 O          -4.8197  -19.5820   21.9665 O.2     1  UNL1       -0.1498
     12 O          -6.0007  -21.4657   19.9524 O.2     1  UNL1       -0.1498
     13 N          -4.0350  -20.8456   20.4541 N.pl3   1  UNL1       -0.1984
     14 H          -3.7716  -21.7826   20.3065 H       1  UNL1        0.1753
     15 C          -3.0612  -19.7396   20.1736 C.ar    1  UNL1        0.1542
     16 C          -3.2669  -18.6064   19.2127 C.ar    1  UNL1        0.0725
     17 S          -2.0436  -17.7391   19.2501 S.2     1  UNL1       -0.0625
     18 C          -1.0818  -18.3364   20.2341 C.ar    1  UNL1        0.1360
     19 N          -1.7107  -19.5728   20.8049 N.ar    1  UNL1       -0.2203
     20 C         -11.3539  -17.8078   23.0914 C.3     1  UNL1        0.2110
     21 N         -13.3328  -17.8170   20.8365 N.3     1  UNL1       -0.3218
     22 C         -12.1625  -16.8792   20.8036 C.3     1  UNL1        0.0588
     23 C         -11.9817  -15.9460   19.6433 C.3     1  UNL1        0.0206
     24 C         -10.8115  -15.0081   19.6104 C.3     1  UNL1        0.0271
     25 C          -9.8221  -15.0035   20.7377 C.2     1  UNL1       -0.0302
     26 C         -10.0029  -15.9367   21.8980 C.2     1  UNL1       -0.0218
     27 C         -11.1732  -16.8745   21.9310 C.3     1  UNL1        0.0798
     28 H         -13.8973  -17.6858   19.9972 H       1  UNL1        0.1188
     29 H         -13.9003  -17.6236   21.6617 H       1  UNL1        0.1188
     30 C          -9.0135  -15.9321   23.0255 C.ar    1  UNL1       -0.0040
     31 C          -7.5734  -16.2576   22.7609 C.ar    1  UNL1        0.0020
     32 C          -6.5840  -16.2530   23.8883 C.ar    1  UNL1        0.0296
     33 C          -7.0348  -15.9229   25.2804 C.ar    1  UNL1        0.1401
     34 F          -6.0454  -15.9183   26.4078 F       1  UNL1       -0.2042
     35 C          -8.4750  -15.5974   25.5450 C.ar    1  UNL1        0.0296
     36 C          -9.4643  -15.6020   24.4176 C.ar    1  UNL1        0.0020
@<TRIPOS>BOND
     1    22    21    1
     2    22    23    1
     3    23    24    1
     4    24    25    1
     5    25    26    2
     6    26    30    1
     7    30    31   ar
     8    31    32   ar
     9    32    33   ar
    10    33    34    1
    11    33    35   ar
    12    35    36   ar
    13    26    27    1
    14    27    20    1
    15    20     1    1
    16     1     2    1
    17     2     3   ar
    18     3     4   ar
    19     4     5    1
    20     4     6   ar
    21     6    10    1
    22    10    11    2
    23    10    12    2
    24    10    13    1
    25    13    15    1
    26    15    16   ar
    27    16    17   ar
    28    17    18   ar
    29    18    19   ar
    30     6     7   ar
    31     7     8   ar
    32     8     9    1
    33    27    22    1
    34     8     2   ar
    35    36    30   ar
    36    19    15   ar
    37    21    28    1
    38    21    29    1
    39    13    14    1
@<TRIPOS>MOLECULE
*****
 36 39 0 0 0
SMALL
GASTEIGER

@<TRIPOS>ATOM
      1 O         -12.8876   -3.0099   19.4690 O.3     1  UNL1       -0.4741
      2 C         -13.3277   -1.6424   19.0374 C.ar    1  UNL1        0.1513
      3 C         -12.3323   -0.6833   18.4549 C.ar    1  UNL1        0.0688
      4 C         -12.7724    0.6843   18.0233 C.ar    1  UNL1        0.1620
      5 F         -11.7770    1.6434   17.4408 F       1  UNL1       -0.2026
      6 C         -14.2078    1.0926   18.1741 C.ar    1  UNL1        0.1535
      7 C         -15.2032    0.1335   18.7566 C.ar    1  UNL1        0.0369
      8 C         -14.7631   -1.2340   19.1882 C.ar    1  UNL1        0.0930
      9 CL        -15.7585   -2.1931   19.7707 Cl      1  UNL1       -0.0790
     10 S         -14.6478    2.4601   17.7425 S.O2    1  UNL1        0.0769
     11 O         -14.7232    2.8889   19.1779 O.2     1  UNL1       -0.1498
     12 O         -14.5724    2.0313   16.3071 O.2     1  UNL1       -0.1498
     13 N         -15.0879    3.8276   17.3109 N.pl3   1  UNL1       -0.1984
     14 H         -15.9287    3.9393   16.8112 H       1  UNL1        0.1753
     15 C         -14.2468    5.0250   17.6408 C.ar    1  UNL1        0.1542
     16 C         -14.7554    6.3651   18.0829 C.ar    1  UNL1        0.0725
     17 S         -13.5724    7.2609   18.3019 S.2     1  UNL1       -0.0625
     18 C         -12.3325    6.4744   17.9950 C.ar    1  UNL1        0.1360
     19 N         -12.7492    5.0926   17.5865 N.ar    1  UNL1       -0.2203
     20 C         -12.7692   -4.1131   18.4596 C.3     1  UNL1        0.2110
     21 N          -9.9479   -3.3386   19.1234 N.3     1  UNL1       -0.3218
     22 C         -10.3094   -4.7849   18.9575 C.3     1  UNL1        0.0588
     23 C          -9.2602   -5.8440   19.1236 C.3     1  UNL1        0.0206
     24 C          -9.6217   -7.2903   18.9577 C.3     1  UNL1        0.0271
     25 C         -11.0323   -7.6776   18.6257 C.2     1  UNL1       -0.0302
     26 C         -12.0814   -6.6185   18.4597 C.2     1  UNL1       -0.0218
     27 C         -11.7200   -5.1722   18.6256 C.3     1  UNL1        0.0798
     28 H          -8.9555   -3.2595   19.3454 H       1  UNL1        0.1188
     29 H         -10.4990   -2.9352   19.8811 H       1  UNL1        0.1188
     30 C         -13.4921   -7.0057   18.1278 C.ar    1  UNL1       -0.0040
     31 C         -14.5546   -6.9464   19.1848 C.ar    1  UNL1        0.0020
     32 C         -15.9653   -7.3337   18.8529 C.ar    1  UNL1        0.0296
     33 C         -16.3134   -7.7802   17.4638 C.ar    1  UNL1        0.1401
     34 F         -17.7239   -8.1674   17.1318 F       1  UNL1       -0.2042
     35 C         -15.2507   -7.8394   16.4067 C.ar    1  UNL1        0.0296
     36 C         -13.8401   -7.4522   16.7387 C.ar    1  UNL1        0.0020
@<TRIPOS>BOND
     1    22    21    1
     2    22    23    1
     3    23    24    1
     4    24    25    1
     5    25    26    2
     6    26    30    1
     7    30    31   ar
     8    31    32   ar
     9    32    33   ar
    10    33    34    1
    11    33    35   ar
    12    35    36   ar
    13    26    27    1
    14    27    20    1
    15    20     1    1
    16     1     2    1
    17     2     3   ar
    18     3     4   ar
    19     4     5    1
    20     4     6   ar
    21     6    10    1
    22    10    11    2
    23    10    12    2
    24    10    13    1
    25    13    15    1
    26    15    16   ar
    27    16    17   ar
    28    17    18   ar
    29    18    19   ar
    30     6     7   ar
    31     7     8   ar
    32     8     9    1
    33    27    22    1
    34     8     2   ar
    35    36    30   ar
    36    19    15   ar
    37    21    28    1
    38    21    29    1
    39    13    14    1
@<TRIPOS>MOLECULE
*****
 36 39 0 0 0
SMALL
GASTEIGER

@<TRIPOS>ATOM
      1 O           7.4927   -5.0543   20.8630 O.3     1  UNL1       -0.4741
      2 C           6.5616   -4.0424   20.2639 C.ar    1  UNL1        0.1513
      3 C           5.1576   -4.4329   19.9085 C.ar    1  UNL1        0.0688
      4 C           4.2265   -3.4208   19.3093 C.ar    1  UNL1        0.1620
      5 F           2.8225   -3.8113   18.9540 F       1  UNL1       -0.2026
      6 C           4.6994   -2.0184   19.0656 C.ar    1  UNL1        0.1535
      7 C           6.1035   -1.6279   19.4209 C.ar    1  UNL1        0.0369
      8 C           7.0345   -2.6399   20.0201 C.ar    1  UNL1        0.0930
      9 CL          8.4385   -2.2494   20.3754 Cl      1  UNL1       -0.0790
     10 S           3.7684   -1.0064   18.4664 S.O2    1  UNL1        0.0769
     11 O           3.1954   -0.7294   19.8247 O.2     1  UNL1       -0.1498
     12 O           4.3414   -1.2834   17.1082 O.2     1  UNL1       -0.1498
     13 N           2.8372    0.0056   17.8673 N.pl3   1  UNL1       -0.1984
     14 H           2.1485   -0.2792   17.2240 H       1  UNL1        0.1753
     15 C           2.9555    1.4516   18.2483 C.ar    1  UNL1        0.1542
     16 C           1.8248    2.3546   18.6433 C.ar    1  UNL1        0.0725
     17 S           2.3956    3.7095   18.9403 S.2     1  UNL1       -0.0625
     18 C           3.8792    3.6440   18.7289 C.ar    1  UNL1        0.1360
     19 N           4.2253    2.2485   18.3012 N.ar    1  UNL1       -0.2203
     20 C           8.3178   -4.6962   22.0634 C.3     1  UNL1        0.2110
     21 N           9.5318   -7.2985   22.9319 N.3     1  UNL1       -0.3218
     22 C           8.5844   -6.5726   23.8405 C.3     1  UNL1        0.0588
     23 C           8.2439   -7.1479   25.1833 C.3     1  UNL1        0.0206
     24 C           7.2965   -6.4220   26.0918 C.3     1  UNL1        0.0271
     25 C           6.6895   -5.1209   25.6576 C.2     1  UNL1       -0.0302
     26 C           7.0299   -4.5457   24.3148 C.2     1  UNL1       -0.0218
     27 C           7.9773   -5.2715   23.4062 C.3     1  UNL1        0.0798
     28 H           9.8452   -8.1576   23.3838 H       1  UNL1        0.1188
     29 H          10.3372   -6.7042   22.7357 H       1  UNL1        0.1188
     30 C           6.4229   -3.2445   23.8805 C.ar    1  UNL1       -0.0040
     31 C           5.0110   -3.2071   23.3756 C.ar    1  UNL1        0.0020
     32 C           4.4039   -1.9059   22.9413 C.ar    1  UNL1        0.0296
     33 C           5.2089   -0.6422   23.0119 C.ar    1  UNL1        0.1401
     34 F           4.6020    0.6590   22.5776 F       1  UNL1       -0.2042
     35 C           6.6209   -0.6796   23.5169 C.ar    1  UNL1        0.0296
     36 C           7.2279   -1.9807   23.9511 C.ar    1  UNL1        0.0020
@<TRIPOS>BOND
     1    22    21    1
     2    22    23    1
     3    23    24    1
     4    24    25    1
     5    25    26    2
     6    26    30    1
     7    30    31   ar
     8    31    32   ar
     9    32    33   ar
    10    33    34    1
    11    33    35   ar
    12    35    36   ar
    13    26    27    1
    14    27    20    1
    15    20     1    1
    16     1     2    1
    17     2     3   ar
    18     3     4   ar
    19     4     5    1
    20     4     6   ar
    21     6    10    1
    22    10    11    2
    23    10    12    2
    24    10    13    1
    25    13    15    1
    26    15    16   ar
    27    16    17   ar
    28    17    18   ar
    29    18    19   ar
    30     6     7   ar
    31     7     8   ar
    32     8     9    1
    33    27    22    1
    34     8     2   ar
    35    36    30   ar
    36    19    15   ar
    37    21    28    1
    38    21    29    1
    39    13    14    1
