@<TRIPOS>MOLECULE
*****
 20 22 0 0 0
SMALL
GASTEIGER

@<TRIPOS>ATOM
      1 N          -7.8784  -17.7744   22.1073 N.pl3   1  UNL1       -0.2861
      2 C          -7.2301  -16.9466   23.1772 C.ar    1  UNL1        0.0576
      3 C          -5.7347  -16.8566   23.2530 C.ar    1  UNL1        0.0153
      4 C          -5.0865  -16.0289   24.3228 C.ar    1  UNL1        0.0013
      5 C          -5.9336  -15.2912   25.3169 C.ar    1  UNL1        0.0006
      6 C          -7.4290  -15.3812   25.2411 C.ar    1  UNL1        0.0077
      7 C          -8.0772  -16.2089   24.1712 C.ar    1  UNL1        0.0431
      8 S          -9.5726  -16.2990   24.0954 S.3     1  UNL1       -0.0844
      9 C         -10.2208  -17.1267   23.0256 C.ar    1  UNL1        0.0431
     10 C         -11.7162  -17.2167   22.9497 C.ar    1  UNL1        0.0077
     11 C         -12.3645  -18.0445   21.8799 C.ar    1  UNL1        0.0006
     12 C         -11.5173  -18.7822   20.8858 C.ar    1  UNL1        0.0013
     13 C         -10.0220  -18.6922   20.9616 C.ar    1  UNL1        0.0153
     14 C          -9.3737  -17.8644   22.0315 C.ar    1  UNL1        0.0576
     15 C          -7.0312  -18.5121   21.1132 C.3     1  UNL1        0.0970
     16 C          -6.4873  -19.8684   21.4516 C.3     1  UNL1        0.0391
     17 C          -5.2864  -20.3976   20.7250 C.3     1  UNL1        0.0739
     18 C          -3.6524  -18.8190   19.4648 C.3     1  UNL1        0.0897
     19 N          -4.0171  -19.5989   20.6931 N.3     1  UNL1       -0.2703
     20 C          -3.1124  -19.5803   21.8894 C.3     1  UNL1        0.0897
@<TRIPOS>BOND
     1    18    19    1
     2    19    20    1
     3    19    17    1
     4    17    16    1
     5    16    15    1
     6    15     1    1
     7     1     2    1
     8     2     3   ar
     9     3     4   ar
    10     4     5   ar
    11     5     6   ar
    12     6     7   ar
    13     7     8    1
    14     8     9    1
    15     9    10   ar
    16    10    11   ar
    17    11    12   ar
    18    12    13   ar
    19    13    14   ar
    20    14     1    1
    21     7     2   ar
    22    14     9   ar
@<TRIPOS>MOLECULE
*****
 20 22 0 0 0
SMALL
GASTEIGER

@<TRIPOS>ATOM
      1 N          -7.8380  -17.7776   22.1095 N.pl3   1  UNL1       -0.2861
      2 C          -9.3321  -17.8814   22.0244 C.ar    1  UNL1        0.0576
      3 C          -9.9660  -18.7115   20.9478 C.ar    1  UNL1        0.0153
      4 C         -11.4600  -18.8153   20.8627 C.ar    1  UNL1        0.0013
      5 C         -12.3200  -18.0890   21.8541 C.ar    1  UNL1        0.0006
      6 C         -11.6860  -17.2589   22.9307 C.ar    1  UNL1        0.0077
      7 C         -10.1921  -17.1552   23.0158 C.ar    1  UNL1        0.0431
      8 S          -9.5580  -16.3251   24.0924 S.3     1  UNL1       -0.0844
      9 C          -8.0641  -16.2213   24.1775 C.ar    1  UNL1        0.0431
     10 C          -7.4300  -15.3912   25.2541 C.ar    1  UNL1        0.0077
     11 C          -5.9361  -15.2874   25.3393 C.ar    1  UNL1        0.0006
     12 C          -5.0761  -16.0137   24.3478 C.ar    1  UNL1        0.0013
     13 C          -5.7100  -16.8437   23.2713 C.ar    1  UNL1        0.0153
     14 C          -7.2041  -16.9476   23.1861 C.ar    1  UNL1        0.0576
     15 C          -6.9781  -18.5039   21.1181 C.3     1  UNL1        0.0970
     16 C          -6.4056  -19.8466   21.4636 C.3     1  UNL1        0.0391
     17 C          -5.2324  -20.3815   20.6971 C.3     1  UNL1        0.0739
     18 C          -2.9988  -19.6522   21.8059 C.3     1  UNL1        0.0897
     19 N          -3.9509  -19.6033   20.6478 N.3     1  UNL1       -0.2703
     20 C          -3.6216  -18.7764   19.4405 C.3     1  UNL1        0.0897
@<TRIPOS>BOND
     1    18    19    1
     2    19    20    1
     3    19    17    1
     4    17    16    1
     5    16    15    1
     6    15     1    1
     7     1     2    1
     8     2     3   ar
     9     3     4   ar
    10     4     5   ar
    11     5     6   ar
    12     6     7   ar
    13     7     8    1
    14     8     9    1
    15     9    10   ar
    16    10    11   ar
    17    11    12   ar
    18    12    13   ar
    19    13    14   ar
    20    14     1    1
    21     7     2   ar
    22    14     9   ar
@<TRIPOS>MOLECULE
*****
 20 22 0 0 0
SMALL
GASTEIGER

@<TRIPOS>ATOM
      1 N          -6.9750  -18.1843   22.2406 N.pl3   1  UNL1       -0.2861
      2 C          -5.7557  -18.8758   21.7064 C.ar    1  UNL1        0.0576
      3 C          -5.8954  -19.9371   20.6557 C.ar    1  UNL1        0.0153
      4 C          -4.6762  -20.6286   20.1215 C.ar    1  UNL1        0.0013
      5 C          -3.3174  -20.2588   20.6381 C.ar    1  UNL1        0.0006
      6 C          -3.1777  -19.1975   21.6888 C.ar    1  UNL1        0.0077
      7 C          -4.3969  -18.5060   22.2230 C.ar    1  UNL1        0.0431
      8 S          -4.2574  -17.4447   23.2738 S.3     1  UNL1       -0.0844
      9 C          -5.4766  -16.7532   23.8080 C.ar    1  UNL1        0.0431
     10 C          -5.3370  -15.6918   24.8588 C.ar    1  UNL1        0.0077
     11 C          -6.5562  -15.0004   25.3929 C.ar    1  UNL1        0.0006
     12 C          -7.9150  -15.3702   24.8764 C.ar    1  UNL1        0.0013
     13 C          -8.0546  -16.4315   23.8256 C.ar    1  UNL1        0.0153
     14 C          -6.8354  -17.1230   23.2914 C.ar    1  UNL1        0.0576
     15 C          -8.3338  -18.5541   21.7240 C.3     1  UNL1        0.0970
     16 C          -9.1516  -19.5890   22.4383 C.3     1  UNL1        0.0391
     17 C         -10.6024  -19.7633   22.0995 C.3     1  UNL1        0.0739
     18 C         -12.3028  -17.9486   21.3475 C.3     1  UNL1        0.0897
     19 N         -11.5873  -18.6847   22.4412 N.3     1  UNL1       -0.2703
     20 C         -11.8566  -18.3422   23.8765 C.3     1  UNL1        0.0897
@<TRIPOS>BOND
     1    18    19    1
     2    19    20    1
     3    19    17    1
     4    17    16    1
     5    16    15    1
     6    15     1    1
     7     1     2    1
     8     2     3   ar
     9     3     4   ar
    10     4     5   ar
    11     5     6   ar
    12     6     7   ar
    13     7     8    1
    14     8     9    1
    15     9    10   ar
    16    10    11   ar
    17    11    12   ar
    18    12    13   ar
    19    13    14   ar
    20    14     1    1
    21     7     2   ar
    22    14     9   ar
@<TRIPOS>MOLECULE
*****
 20 22 0 0 0
SMALL
GASTEIGER

@<TRIPOS>ATOM
      1 N          -7.0049  -18.1969   22.2589 N.pl3   1  UNL1       -0.2861
      2 C          -6.8694  -17.1264   23.3010 C.ar    1  UNL1        0.0576
      3 C          -8.0924  -16.4460   23.8406 C.ar    1  UNL1        0.0153
      4 C          -7.9569  -15.3756   24.8826 C.ar    1  UNL1        0.0013
      5 C          -6.5984  -14.9856   25.3850 C.ar    1  UNL1        0.0006
      6 C          -5.3754  -15.6660   24.8453 C.ar    1  UNL1        0.0077
      7 C          -5.5109  -16.7364   23.8033 C.ar    1  UNL1        0.0431
      8 S          -4.2879  -17.4169   23.2636 S.3     1  UNL1       -0.0844
      9 C          -4.4234  -18.4873   22.2216 C.ar    1  UNL1        0.0431
     10 C          -3.2003  -19.1678   21.6819 C.ar    1  UNL1        0.0077
     11 C          -3.3359  -20.2382   20.6399 C.ar    1  UNL1        0.0006
     12 C          -4.6944  -20.6282   20.1376 C.ar    1  UNL1        0.0013
     13 C          -5.9174  -19.9478   20.6773 C.ar    1  UNL1        0.0153
     14 C          -5.7819  -18.8773   21.7193 C.ar    1  UNL1        0.0576
     15 C          -8.3634  -18.5869   21.7566 C.3     1  UNL1        0.0970
     16 C          -9.1605  -19.6299   22.4824 C.3     1  UNL1        0.0391
     17 C         -10.6148  -19.8172   22.1663 C.3     1  UNL1        0.0739
     18 C         -12.1200  -17.9372   21.1916 C.3     1  UNL1        0.0897
     19 N         -11.5788  -18.6866   22.3729 N.3     1  UNL1       -0.2703
     20 C         -12.0015  -18.3055   23.7606 C.3     1  UNL1        0.0897
@<TRIPOS>BOND
     1    18    19    1
     2    19    20    1
     3    19    17    1
     4    17    16    1
     5    16    15    1
     6    15     1    1
     7     1     2    1
     8     2     3   ar
     9     3     4   ar
    10     4     5   ar
    11     5     6   ar
    12     6     7   ar
    13     7     8    1
    14     8     9    1
    15     9    10   ar
    16    10    11   ar
    17    11    12   ar
    18    12    13   ar
    19    13    14   ar
    20    14     1    1
    21     7     2   ar
    22    14     9   ar
@<TRIPOS>MOLECULE
*****
 20 22 0 0 0
SMALL
GASTEIGER

@<TRIPOS>ATOM
      1 N          -7.4691  -17.8790   22.2129 N.pl3   1  UNL1       -0.2861
      2 C          -7.1883  -16.9214   23.3329 C.ar    1  UNL1        0.0576
      3 C          -5.7735  -16.5510   23.6660 C.ar    1  UNL1        0.0153
      4 C          -5.4928  -15.5934   24.7859 C.ar    1  UNL1        0.0013
      5 C          -6.6269  -15.0062   25.5726 C.ar    1  UNL1        0.0006
      6 C          -8.0417  -15.3766   25.2395 C.ar    1  UNL1        0.0077
      7 C          -8.3224  -16.3342   24.1196 C.ar    1  UNL1        0.0431
      8 S          -9.7373  -16.7047   23.7865 S.3     1  UNL1       -0.0844
      9 C         -10.0180  -17.6623   22.6666 C.ar    1  UNL1        0.0431
     10 C         -11.4329  -18.0328   22.3334 C.ar    1  UNL1        0.0077
     11 C         -11.7136  -18.9904   21.2135 C.ar    1  UNL1        0.0006
     12 C         -10.5795  -19.5775   20.4268 C.ar    1  UNL1        0.0013
     13 C          -9.1646  -19.2071   20.7599 C.ar    1  UNL1        0.0153
     14 C          -8.8839  -18.2495   21.8798 C.ar    1  UNL1        0.0576
     15 C          -6.3349  -18.4662   21.4262 C.3     1  UNL1        0.0970
     16 C          -5.5851  -19.6502   21.9608 C.3     1  UNL1        0.0391
     17 C          -4.1331  -19.5212   22.3144 C.3     1  UNL1        0.0739
     18 C          -2.9610  -19.1166   20.0312 C.3     1  UNL1        0.0897
     19 N          -3.2204  -18.7031   21.4496 N.3     1  UNL1       -0.2703
     20 C          -2.5672  -17.4716   22.0032 C.3     1  UNL1        0.0897
@<TRIPOS>BOND
     1    18    19    1
     2    19    20    1
     3    19    17    1
     4    17    16    1
     5    16    15    1
     6    15     1    1
     7     1     2    1
     8     2     3   ar
     9     3     4   ar
    10     4     5   ar
    11     5     6   ar
    12     6     7   ar
    13     7     8    1
    14     8     9    1
    15     9    10   ar
    16    10    11   ar
    17    11    12   ar
    18    12    13   ar
    19    13    14   ar
    20    14     1    1
    21     7     2   ar
    22    14     9   ar
@<TRIPOS>MOLECULE
*****
 20 22 0 0 0
SMALL
GASTEIGER

@<TRIPOS>ATOM
      1 N          -8.4555  -17.7265   22.6015 N.pl3   1  UNL1       -0.2861
      2 C          -7.4984  -18.5911   21.8356 C.ar    1  UNL1        0.0576
      3 C          -6.0599  -18.6699   22.2531 C.ar    1  UNL1        0.0153
      4 C          -5.1029  -19.5344   21.4872 C.ar    1  UNL1        0.0013
      5 C          -5.5845  -20.3201   20.3036 C.ar    1  UNL1        0.0006
      6 C          -7.0230  -20.2413   19.8861 C.ar    1  UNL1        0.0077
      7 C          -7.9800  -19.3768   20.6520 C.ar    1  UNL1        0.0431
      8 S          -9.4186  -19.2980   20.2345 S.3     1  UNL1       -0.0844
      9 C         -10.3755  -18.4334   21.0005 C.ar    1  UNL1        0.0431
     10 C         -11.8141  -18.3546   20.5829 C.ar    1  UNL1        0.0077
     11 C         -12.7711  -17.4901   21.3489 C.ar    1  UNL1        0.0006
     12 C         -12.2896  -16.7043   22.5324 C.ar    1  UNL1        0.0013
     13 C         -10.8510  -16.7831   22.9500 C.ar    1  UNL1        0.0153
     14 C          -9.8940  -17.6477   22.1840 C.ar    1  UNL1        0.0576
     15 C          -7.9739  -16.9408   23.7851 C.3     1  UNL1        0.0970
     16 C          -7.5492  -15.5124   23.6145 C.3     1  UNL1        0.0391
     17 C          -7.2641  -14.6657   24.8194 C.3     1  UNL1        0.0739
     18 C          -7.6636  -15.5394   27.2333 C.3     1  UNL1        0.0897
     19 N          -6.7417  -15.2993   26.0747 N.3     1  UNL1       -0.2703
     20 C          -5.2975  -15.6926   26.1714 C.3     1  UNL1        0.0897
@<TRIPOS>BOND
     1    18    19    1
     2    19    20    1
     3    19    17    1
     4    17    16    1
     5    16    15    1
     6    15     1    1
     7     1     2    1
     8     2     3   ar
     9     3     4   ar
    10     4     5   ar
    11     5     6   ar
    12     6     7   ar
    13     7     8    1
    14     8     9    1
    15     9    10   ar
    16    10    11   ar
    17    11    12   ar
    18    12    13   ar
    19    13    14   ar
    20    14     1    1
    21     7     2   ar
    22    14     9   ar
@<TRIPOS>MOLECULE
*****
 20 22 0 0 0
SMALL
GASTEIGER

@<TRIPOS>ATOM
      1 N          -7.8966  -17.2650   22.3088 N.pl3   1  UNL1       -0.2861
      2 C          -6.4664  -17.6457   22.5531 C.ar    1  UNL1        0.0576
      3 C          -5.6481  -16.8848   23.5538 C.ar    1  UNL1        0.0153
      4 C          -4.2180  -17.2655   23.7981 C.ar    1  UNL1        0.0013
      5 C          -3.6061  -18.4073   23.0418 C.ar    1  UNL1        0.0006
      6 C          -4.4244  -19.1683   22.0412 C.ar    1  UNL1        0.0077
      7 C          -5.8545  -18.7875   21.7968 C.ar    1  UNL1        0.0431
      8 S          -6.6729  -19.5485   20.7962 S.3     1  UNL1       -0.0844
      9 C          -8.1030  -19.1677   20.5518 C.ar    1  UNL1        0.0431
     10 C          -8.9213  -19.9287   19.5512 C.ar    1  UNL1        0.0077
     11 C         -10.3514  -19.5479   19.3068 C.ar    1  UNL1        0.0006
     12 C         -10.9633  -18.4062   20.0631 C.ar    1  UNL1        0.0013
     13 C         -10.1450  -17.6452   21.0638 C.ar    1  UNL1        0.0153
     14 C          -8.7148  -18.0260   21.3081 C.ar    1  UNL1        0.0576
     15 C          -8.5084  -16.1232   23.0651 C.3     1  UNL1        0.0970
     16 C          -9.4983  -16.3931   24.1592 C.3     1  UNL1        0.0391
     17 C          -9.4324  -17.6782   24.9300 C.3     1  UNL1        0.0739
     18 C         -11.7677  -18.6806   24.3900 C.3     1  UNL1        0.0897
     19 N         -10.2822  -18.8439   24.5186 N.3     1  UNL1       -0.2703
     20 C          -9.6465  -20.1727   24.2359 C.3     1  UNL1        0.0897
@<TRIPOS>BOND
     1    18    19    1
     2    19    20    1
     3    19    17    1
     4    17    16    1
     5    16    15    1
     6    15     1    1
     7     1     2    1
     8     2     3   ar
     9     3     4   ar
    10     4     5   ar
    11     5     6   ar
    12     6     7   ar
    13     7     8    1
    14     8     9    1
    15     9    10   ar
    16    10    11   ar
    17    11    12   ar
    18    12    13   ar
    19    13    14   ar
    20    14     1    1
    21     7     2   ar
    22    14     9   ar
@<TRIPOS>MOLECULE
*****
 20 22 0 0 0
SMALL
GASTEIGER

@<TRIPOS>ATOM
      1 N         -13.3440   -4.7200   19.5360 N.pl3   1  UNL1       -0.2861
      2 C         -14.6886   -5.3734   19.4122 C.ar    1  UNL1        0.0576
      3 C         -15.9225   -4.6377   19.8436 C.ar    1  UNL1        0.0153
      4 C         -17.2670   -5.2911   19.7197 C.ar    1  UNL1        0.0013
      5 C         -17.3776   -6.6802   19.1645 C.ar    1  UNL1        0.0006
      6 C         -16.1436   -7.4158   18.7331 C.ar    1  UNL1        0.0077
      7 C         -14.7991   -6.7624   18.8570 C.ar    1  UNL1        0.0431
      8 S         -13.5651   -7.4981   18.4256 S.3     1  UNL1       -0.0844
      9 C         -12.2206   -6.8447   18.5495 C.ar    1  UNL1        0.0431
     10 C         -10.9866   -7.5804   18.1181 C.ar    1  UNL1        0.0077
     11 C          -9.6421   -6.9270   18.2419 C.ar    1  UNL1        0.0006
     12 C          -9.5315   -5.5379   18.7972 C.ar    1  UNL1        0.0013
     13 C         -10.7655   -4.8022   19.2285 C.ar    1  UNL1        0.0153
     14 C         -12.1101   -5.4556   19.1047 C.ar    1  UNL1        0.0576
     15 C         -13.2335   -3.3309   20.0913 C.3     1  UNL1        0.0970
     16 C         -13.3121   -2.1476   19.1728 C.3     1  UNL1        0.0391
     17 C         -12.0630   -1.4097   18.7916 C.3     1  UNL1        0.0739
     18 C         -10.5167   -0.5232   16.9013 C.3     1  UNL1        0.0897
     19 N         -11.5241   -1.5185   17.3960 N.3     1  UNL1       -0.2703
     20 C         -11.9924   -2.6225   16.4950 C.3     1  UNL1        0.0897
@<TRIPOS>BOND
     1    18    19    1
     2    19    20    1
     3    19    17    1
     4    17    16    1
     5    16    15    1
     6    15     1    1
     7     1     2    1
     8     2     3   ar
     9     3     4   ar
    10     4     5   ar
    11     5     6   ar
    12     6     7   ar
    13     7     8    1
    14     8     9    1
    15     9    10   ar
    16    10    11   ar
    17    11    12   ar
    18    12    13   ar
    19    13    14   ar
    20    14     1    1
    21     7     2   ar
    22    14     9   ar
@<TRIPOS>MOLECULE
*****
 20 22 0 0 0
SMALL
GASTEIGER

@<TRIPOS>ATOM
      1 N          -9.7350  -17.9539   22.8243 N.pl3   1  UNL1       -0.2861
      2 C          -9.2741  -18.6534   21.5799 C.ar    1  UNL1        0.0576
      3 C         -10.2508  -19.4378   20.7549 C.ar    1  UNL1        0.0153
      4 C          -9.7898  -20.1373   19.5107 C.ar    1  UNL1        0.0013
      5 C          -8.3521  -20.0523   19.0914 C.ar    1  UNL1        0.0006
      6 C          -7.3753  -19.2679   19.9164 C.ar    1  UNL1        0.0077
      7 C          -7.8363  -18.5685   21.1607 C.ar    1  UNL1        0.0431
      8 S          -6.8596  -17.7840   21.9858 S.3     1  UNL1       -0.0844
      9 C          -7.3206  -17.0846   23.2300 C.ar    1  UNL1        0.0431
     10 C          -6.3439  -16.3001   24.0551 C.ar    1  UNL1        0.0077
     11 C          -6.8049  -15.6007   25.2994 C.ar    1  UNL1        0.0006
     12 C          -8.2426  -15.6857   25.7186 C.ar    1  UNL1        0.0013
     13 C          -9.2193  -16.4701   24.8936 C.ar    1  UNL1        0.0153
     14 C          -8.7583  -17.1696   23.6493 C.ar    1  UNL1        0.0576
     15 C         -11.1727  -18.0389   23.2435 C.3     1  UNL1        0.0970
     16 C         -12.1511  -16.9995   22.7826 C.3     1  UNL1        0.0391
     17 C         -12.4533  -16.8498   21.3210 C.3     1  UNL1        0.0739
     18 C         -10.3536  -15.3475   21.0305 C.3     1  UNL1        0.0897
     19 N         -11.6035  -15.9560   20.4671 N.3     1  UNL1       -0.2703
     20 C         -12.0037  -15.6707   19.0499 C.3     1  UNL1        0.0897
@<TRIPOS>BOND
     1    18    19    1
     2    19    20    1
     3    19    17    1
     4    17    16    1
     5    16    15    1
     6    15     1    1
     7     1     2    1
     8     2     3   ar
     9     3     4   ar
    10     4     5   ar
    11     5     6   ar
    12     6     7   ar
    13     7     8    1
    14     8     9    1
    15     9    10   ar
    16    10    11   ar
    17    11    12   ar
    18    12    13   ar
    19    13    14   ar
    20    14     1    1
    21     7     2   ar
    22    14     9   ar
