@<TRIPOS>MOLECULE
*****
 17 18 0 0 0
SMALL
GASTEIGER

@<TRIPOS>ATOM
      1 C          -7.2781  -18.8944   21.9948 C.2     1  UNL1        0.0435
      2 C          -6.1969  -19.9030   21.7424 C.2     1  UNL1        0.0033
      3 C          -4.8319  -19.4488   21.3171 C.ar    1  UNL1        0.0001
      4 C          -4.5413  -19.2041   19.8660 C.ar    1  UNL1        0.0005
      5 C          -3.1764  -18.7500   19.4408 C.ar    1  UNL1        0.0067
      6 C          -2.1022  -18.5405   20.4666 C.ar    1  UNL1        0.0346
      7 BR         -0.7373  -18.0863   20.0413 Br      1  UNL1       -0.0490
      8 C          -2.3929  -18.7852   21.9177 C.ar    1  UNL1        0.0067
      9 C          -3.7578  -19.2394   22.3429 C.ar    1  UNL1        0.0005
     10 O          -8.7875  -20.3846   23.4952 O.2     1  UNL1       -0.2850
     11 C          -8.6430  -19.3486   22.4201 C.2     1  UNL1        0.2111
     12 C          -9.8633  -18.7668   21.7703 C.ar    1  UNL1        0.0961
     13 C         -11.2771  -18.9303   22.2439 C.ar    1  UNL1        0.0218
     14 C         -12.1717  -18.1839   21.2992 C.ar    1  UNL1        0.0200
     15 C         -11.3107  -17.5590   20.2416 C.ar    1  UNL1        0.0725
     16 N          -9.8841  -17.9193   20.5329 N.ar    1  UNL1       -0.3495
     17 H          -9.0991  -17.6472   20.0046 H       1  UNL1        0.1661
@<TRIPOS>BOND
     1    10    11    2
     2    11     1    1
     3     1     2    2
     4     2     3    1
     5     3     4   ar
     6     4     5   ar
     7     5     6   ar
     8     6     7    1
     9     6     8   ar
    10     8     9   ar
    11    11    12    1
    12    12    13   ar
    13    13    14   ar
    14    14    15   ar
    15    15    16   ar
    16     9     3   ar
    17    16    12   ar
    18    16    17    1
@<TRIPOS>MOLECULE
*****
 17 18 0 0 0
SMALL
GASTEIGER

@<TRIPOS>ATOM
      1 C          -7.5049  -18.9702   22.3003 C.2     1  UNL1        0.0435
      2 C          -6.4534  -19.9936   21.9889 C.2     1  UNL1        0.0033
      3 C          -5.1100  -19.5586   21.4827 C.ar    1  UNL1        0.0001
      4 C          -3.9912  -19.3036   22.4487 C.ar    1  UNL1        0.0005
      5 C          -2.6478  -18.8687   21.9426 C.ar    1  UNL1        0.0067
      6 C          -2.4233  -18.6887   20.4704 C.ar    1  UNL1        0.0346
      7 BR         -1.0799  -18.2538   19.9643 Br      1  UNL1       -0.0490
      8 C          -3.5421  -18.9437   19.5044 C.ar    1  UNL1        0.0067
      9 C          -4.8855  -19.3787   20.0106 C.ar    1  UNL1        0.0005
     10 O          -8.9596  -20.5990   23.7077 O.2     1  UNL1       -0.2850
     11 C          -8.8483  -19.4051   22.8064 C.2     1  UNL1        0.2111
     12 C         -10.0803  -18.6462   22.4113 C.ar    1  UNL1        0.0961
     13 C         -11.1814  -19.1517   21.5269 C.ar    1  UNL1        0.0218
     14 C         -12.2092  -18.0665   21.4002 C.ar    1  UNL1        0.0200
     15 C         -11.7432  -16.8903   22.2062 C.ar    1  UNL1        0.0725
     16 N         -10.4275  -17.2487   22.8311 N.ar    1  UNL1       -0.3495
     17 H          -9.8868  -16.6684   23.4143 H       1  UNL1        0.1661
@<TRIPOS>BOND
     1    10    11    2
     2    11     1    1
     3     1     2    2
     4     2     3    1
     5     3     4   ar
     6     4     5   ar
     7     5     6   ar
     8     6     7    1
     9     6     8   ar
    10     8     9   ar
    11    11    12    1
    12    12    13   ar
    13    13    14   ar
    14    14    15   ar
    15    15    16   ar
    16     9     3   ar
    17    16    12   ar
    18    16    17    1
@<TRIPOS>MOLECULE
*****
 17 18 0 0 0
SMALL
GASTEIGER

@<TRIPOS>ATOM
      1 C          -7.0074  -19.3648   21.3888 C.2     1  UNL1        0.0435
      2 C          -7.8572  -20.0169   22.4388 C.2     1  UNL1        0.0033
      3 C          -9.2294  -19.4852   22.7300 C.ar    1  UNL1        0.0001
      4 C         -10.2150  -19.3021   21.6142 C.ar    1  UNL1        0.0005
      5 C         -11.5871  -18.7705   21.9054 C.ar    1  UNL1        0.0067
      6 C         -11.9735  -18.4220   23.3123 C.ar    1  UNL1        0.0346
      7 BR        -13.3456  -17.8904   23.6034 Br      1  UNL1       -0.0490
      8 C         -10.9878  -18.6051   24.4280 C.ar    1  UNL1        0.0067
      9 C          -9.6157  -19.1367   24.1368 C.ar    1  UNL1        0.0005
     10 O          -5.4716  -21.1367   20.2701 O.2     1  UNL1       -0.2850
     11 C          -5.6353  -19.8964   21.0977 C.2     1  UNL1        0.2111
     12 C          -4.4270  -19.1877   21.6341 C.ar    1  UNL1        0.0961
     13 C          -2.9991  -19.5935   21.4190 C.ar    1  UNL1        0.0218
     14 C          -2.1240  -18.6055   22.1318 C.ar    1  UNL1        0.0200
     15 C          -3.0112  -17.5890   22.7874 C.ar    1  UNL1        0.0725
     16 N          -4.4345  -17.9489   22.4798 N.ar    1  UNL1       -0.3495
     17 H          -5.2334  -17.4582   22.7803 H       1  UNL1        0.1661
@<TRIPOS>BOND
     1    10    11    2
     2    11     1    1
     3     1     2    2
     4     2     3    1
     5     3     4   ar
     6     4     5   ar
     7     5     6   ar
     8     6     7    1
     9     6     8   ar
    10     8     9   ar
    11    11    12    1
    12    12    13   ar
    13    13    14   ar
    14    14    15   ar
    15    15    16   ar
    16     9     3   ar
    17    16    12   ar
    18    16    17    1
@<TRIPOS>MOLECULE
*****
 17 18 0 0 0
SMALL
GASTEIGER

@<TRIPOS>ATOM
      1 C          -7.8078  -18.9497   20.9516 C.2     1  UNL1        0.0435
      2 C          -6.6772  -19.8755   21.2900 C.2     1  UNL1        0.0033
      3 C          -5.2589  -19.4386   21.0714 C.ar    1  UNL1        0.0001
      4 C          -4.7753  -19.1266   19.6862 C.ar    1  UNL1        0.0005
      5 C          -3.3572  -18.6897   19.4676 C.ar    1  UNL1        0.0067
      6 C          -2.4225  -18.5649   20.6342 C.ar    1  UNL1        0.0346
      7 BR         -1.0043  -18.1280   20.4155 Br      1  UNL1       -0.0490
      8 C          -2.9061  -18.8770   22.0193 C.ar    1  UNL1        0.0067
      9 C          -4.3243  -19.3138   22.2379 C.ar    1  UNL1        0.0005
     10 O         -10.0822  -19.7683   19.9992 O.2     1  UNL1       -0.2850
     11 C          -9.2261  -19.3866   21.1703 C.2     1  UNL1        0.2111
     12 C          -9.7881  -19.4418   22.5599 C.ar    1  UNL1        0.0961
     13 C         -10.9986  -18.7047   23.0512 C.ar    1  UNL1        0.0218
     14 C         -11.1969  -19.0511   24.4971 C.ar    1  UNL1        0.0200
     15 C         -10.1090  -20.0022   24.8994 C.ar    1  UNL1        0.0725
     16 N          -9.2383  -20.2437   23.7021 N.ar    1  UNL1       -0.3495
     17 H          -8.4452  -20.8262   23.6714 H       1  UNL1        0.1661
@<TRIPOS>BOND
     1    10    11    2
     2    11     1    1
     3     1     2    2
     4     2     3    1
     5     3     4   ar
     6     4     5   ar
     7     5     6   ar
     8     6     7    1
     9     6     8   ar
    10     8     9   ar
    11    11    12    1
    12    12    13   ar
    13    13    14   ar
    14    14    15   ar
    15    15    16   ar
    16     9     3   ar
    17    16    12   ar
    18    16    17    1
@<TRIPOS>MOLECULE
*****
 17 18 0 0 0
SMALL
GASTEIGER

@<TRIPOS>ATOM
      1 C          -5.9308  -18.6119   22.0206 C.2     1  UNL1        0.0435
      2 C          -7.0119  -19.5392   21.5502 C.2     1  UNL1        0.0033
      3 C          -8.4418  -19.0860   21.5513 C.ar    1  UNL1        0.0001
      4 C          -9.2801  -19.2455   20.3177 C.ar    1  UNL1        0.0005
      5 C         -10.7099  -18.7922   20.3189 C.ar    1  UNL1        0.0067
      6 C         -11.3015  -18.1794   21.5536 C.ar    1  UNL1        0.0346
      7 BR        -12.7314  -17.7261   21.5547 Br      1  UNL1       -0.0490
      8 C         -10.4632  -18.0199   22.7872 C.ar    1  UNL1        0.0067
      9 C          -9.0334  -18.4732   22.7861 C.ar    1  UNL1        0.0005
     10 O          -4.0138  -20.0132   23.0750 O.2     1  UNL1       -0.2850
     11 C          -4.5008  -19.0652   22.0195 C.2     1  UNL1        0.2111
     12 C          -3.5581  -18.5705   20.9630 C.ar    1  UNL1        0.0961
     13 C          -3.2626  -19.2480   19.6577 C.ar    1  UNL1        0.0218
     14 C          -2.2671  -18.4077   18.9142 C.ar    1  UNL1        0.0200
     15 C          -1.9473  -17.2108   19.7599 C.ar    1  UNL1        0.0725
     16 N          -2.7451  -17.3114   21.0261 N.ar    1  UNL1       -0.3495
     17 H          -2.7367  -16.6647   21.7683 H       1  UNL1        0.1661
@<TRIPOS>BOND
     1    10    11    2
     2    11     1    1
     3     1     2    2
     4     2     3    1
     5     3     4   ar
     6     4     5   ar
     7     5     6   ar
     8     6     7    1
     9     6     8   ar
    10     8     9   ar
    11    11    12    1
    12    12    13   ar
    13    13    14   ar
    14    14    15   ar
    15    15    16   ar
    16     9     3   ar
    17    16    12   ar
    18    16    17    1
@<TRIPOS>MOLECULE
*****
 17 18 0 0 0
SMALL
GASTEIGER

@<TRIPOS>ATOM
      1 C          -4.8844  -15.8253   23.8594 C.2     1  UNL1        0.0435
      2 C          -4.5455  -17.1982   23.3592 C.2     1  UNL1        0.0033
      3 C          -3.3484  -17.4013   22.4784 C.ar    1  UNL1        0.0001
      4 C          -2.5438  -16.2204   22.0225 C.ar    1  UNL1        0.0005
      5 C          -1.3467  -16.4235   21.1417 C.ar    1  UNL1        0.0067
      6 C          -0.9543  -17.8076   20.7169 C.ar    1  UNL1        0.0346
      7 BR          0.2428  -18.0107   19.8361 Br      1  UNL1       -0.0490
      8 C          -1.7589  -18.9885   21.1729 C.ar    1  UNL1        0.0067
      9 C          -2.9560  -18.7854   22.0536 C.ar    1  UNL1        0.0005
     10 O          -5.9066  -15.0956   26.1338 O.2     1  UNL1       -0.2850
     11 C          -6.0815  -15.6222   24.7402 C.2     1  UNL1        0.2111
     12 C          -7.4535  -15.9457   24.2274 C.ar    1  UNL1        0.0961
     13 C          -8.6554  -16.2656   25.0659 C.ar    1  UNL1        0.0218
     14 C          -9.8091  -16.5238   24.1428 C.ar    1  UNL1        0.0200
     15 C          -9.3203  -16.3634   22.7337 C.ar    1  UNL1        0.0725
     16 N          -7.8645  -16.0062   22.7860 N.ar    1  UNL1       -0.3495
     17 H          -7.2811  -15.8404   22.0105 H       1  UNL1        0.1661
@<TRIPOS>BOND
     1    10    11    2
     2    11     1    1
     3     1     2    2
     4     2     3    1
     5     3     4   ar
     6     4     5   ar
     7     5     6   ar
     8     6     7    1
     9     6     8   ar
    10     8     9   ar
    11    11    12    1
    12    12    13   ar
    13    13    14   ar
    14    14    15   ar
    15    15    16   ar
    16     9     3   ar
    17    16    12   ar
    18    16    17    1
@<TRIPOS>MOLECULE
*****
 17 18 0 0 0
SMALL
GASTEIGER

@<TRIPOS>ATOM
      1 C         -11.5688   -6.0586   18.9154 C.2     1  UNL1        0.0435
      2 C         -13.0278   -5.7309   19.0328 C.2     1  UNL1        0.0033
      3 C         -14.0534   -6.8178   18.9035 C.ar    1  UNL1        0.0001
      4 C         -13.7114   -8.0904   18.1870 C.ar    1  UNL1        0.0005
      5 C         -14.7370   -9.1773   18.0578 C.ar    1  UNL1        0.0067
      6 C         -16.1047   -8.9915   18.6450 C.ar    1  UNL1        0.0346
      7 BR        -17.1304  -10.0784   18.5157 Br      1  UNL1       -0.0490
      8 C         -16.4468   -7.7189   19.3615 C.ar    1  UNL1        0.0067
      9 C         -15.4212   -6.6320   19.4907 C.ar    1  UNL1        0.0005
     10 O          -9.1947   -5.2782   19.6261 O.2     1  UNL1       -0.2850
     11 C         -10.5431   -4.9717   19.0446 C.2     1  UNL1        0.2111
     12 C         -10.8658   -3.5784   18.5925 C.ar    1  UNL1        0.0961
     13 C         -10.6357   -3.0218   17.2187 C.ar    1  UNL1        0.0218
     14 C         -11.1029   -1.5964   17.2118 C.ar    1  UNL1        0.0200
     15 C         -11.6217   -1.2721   18.5814 C.ar    1  UNL1        0.0725
     16 N         -11.4752   -2.4970   19.4347 N.ar    1  UNL1       -0.3495
     17 H         -11.7336   -2.5771   20.3813 H       1  UNL1        0.1661
@<TRIPOS>BOND
     1    10    11    2
     2    11     1    1
     3     1     2    2
     4     2     3    1
     5     3     4   ar
     6     4     5   ar
     7     5     6   ar
     8     6     7    1
     9     6     8   ar
    10     8     9   ar
    11    11    12    1
    12    12    13   ar
    13    13    14   ar
    14    14    15   ar
    15    15    16   ar
    16     9     3   ar
    17    16    12   ar
    18    16    17    1
@<TRIPOS>MOLECULE
*****
 17 18 0 0 0
SMALL
GASTEIGER

@<TRIPOS>ATOM
      1 C         -14.1091   -8.7418   17.6464 C.2     1  UNL1        0.0435
      2 C         -13.6645   -7.5711   18.4721 C.2     1  UNL1        0.0033
      3 C         -12.5425   -6.6984   17.9931 C.ar    1  UNL1        0.0001
      4 C         -11.7289   -5.9140   18.9793 C.ar    1  UNL1        0.0005
      5 C         -10.6069   -5.0413   18.5003 C.ar    1  UNL1        0.0067
      6 C         -10.2985   -4.9530   17.0350 C.ar    1  UNL1        0.0346
      7 BR         -9.1765   -4.0802   16.5560 Br      1  UNL1       -0.0490
      8 C         -11.1121   -5.7374   16.0487 C.ar    1  UNL1        0.0067
      9 C         -12.2341   -6.6101   16.5278 C.ar    1  UNL1        0.0005
     10 O         -15.1070  -11.1073   18.0452 O.2     1  UNL1       -0.2850
     11 C         -15.2312   -9.6146   18.1254 C.2     1  UNL1        0.2111
     12 C         -16.4773   -8.9946   18.6846 C.ar    1  UNL1        0.0961
     13 C         -16.7935   -8.8089   20.1390 C.ar    1  UNL1        0.0218
     14 C         -18.1377   -8.1510   20.2409 C.ar    1  UNL1        0.0200
     15 C         -18.6523   -7.9302   18.8493 C.ar    1  UNL1        0.0725
     16 N         -17.6261   -8.4516   17.8875 N.ar    1  UNL1       -0.3495
     17 H         -17.6946   -8.4395   16.9054 H       1  UNL1        0.1661
@<TRIPOS>BOND
     1    10    11    2
     2    11     1    1
     3     1     2    2
     4     2     3    1
     5     3     4   ar
     6     4     5   ar
     7     5     6   ar
     8     6     7    1
     9     6     8   ar
    10     8     9   ar
    11    11    12    1
    12    12    13   ar
    13    13    14   ar
    14    14    15   ar
    15    15    16   ar
    16     9     3   ar
    17    16    12   ar
    18    16    17    1
@<TRIPOS>MOLECULE
*****
 17 18 0 0 0
SMALL
GASTEIGER

@<TRIPOS>ATOM
      1 C         -13.8395   -5.6483   19.8398 C.2     1  UNL1        0.0435
      2 C         -14.7674   -6.2701   18.8386 C.2     1  UNL1        0.0033
      3 C         -16.1054   -6.7879   19.2765 C.ar    1  UNL1        0.0001
      4 C         -17.3032   -5.8852   19.2533 C.ar    1  UNL1        0.0005
      5 C         -18.6411   -6.4031   19.6911 C.ar    1  UNL1        0.0067
      6 C         -18.7813   -7.8235   20.1523 C.ar    1  UNL1        0.0346
      7 BR        -20.1193   -8.3413   20.5902 Br      1  UNL1       -0.0490
      8 C         -17.5835   -8.7261   20.1756 C.ar    1  UNL1        0.0067
      9 C         -16.2456   -8.2083   19.7377 C.ar    1  UNL1        0.0005
     10 O         -12.2336   -3.6547   19.3966 O.2     1  UNL1       -0.2850
     11 C         -12.5015   -5.1305   19.4019 C.2     1  UNL1        0.2111
     12 C         -11.4315   -6.0886   18.9694 C.ar    1  UNL1        0.0961
     13 C          -9.9529   -5.8840   19.1169 C.ar    1  UNL1        0.0218
     14 C          -9.2597   -7.0884   18.5521 C.ar    1  UNL1        0.0200
     15 C         -10.3100   -8.0374   18.0556 C.ar    1  UNL1        0.0725
     16 N         -11.6522   -7.4194   18.3135 N.ar    1  UNL1       -0.3495
     17 H         -12.5248   -7.8174   18.0913 H       1  UNL1        0.1661
@<TRIPOS>BOND
     1    10    11    2
     2    11     1    1
     3     1     2    2
     4     2     3    1
     5     3     4   ar
     6     4     5   ar
     7     5     6   ar
     8     6     7    1
     9     6     8   ar
    10     8     9   ar
    11    11    12    1
    12    12    13   ar
    13    13    14   ar
    14    14    15   ar
    15    15    16   ar
    16     9     3   ar
    17    16    12   ar
    18    16    17    1
