@<TRIPOS>MOLECULE
*****
 25 28 0 0 0
SMALL
GASTEIGER

@<TRIPOS>ATOM
      1 O          -8.3857  -19.3363   23.5576 O.2     1  UNL1       -0.2486
      2 C          -8.5117  -19.4383   22.0664 C.2     1  UNL1        0.3279
      3 N          -9.8302  -19.1665   21.4049 N.am    1  UNL1       -0.2403
      4 C          -9.9563  -19.2685   19.9137 C.3     1  UNL1        0.1079
      5 C          -8.7638  -19.6424   19.0840 C.3     1  UNL1        0.0863
      6 C          -7.4453  -19.9142   19.7456 C.ar    1  UNL1        0.1290
      7 N          -6.1056  -20.3003   19.1924 N.ar    1  UNL1       -0.2310
      8 C          -5.1515  -20.4369   20.3418 C.ar    1  UNL1        0.1215
      9 C          -5.9016  -20.1352   21.6053 C.ar    1  UNL1        0.1037
     10 N          -7.3193  -19.8122   21.2368 N.ar    1  UNL1       -0.2473
     11 C         -11.0227  -18.7926   22.2346 C.ar    1  UNL1        0.0556
     12 C         -12.1446  -18.0064   21.6237 C.ar    1  UNL1        0.0173
     13 C         -13.3370  -17.6325   22.4534 C.ar    1  UNL1        0.0309
     14 C         -13.4075  -18.0448   23.8939 C.ar    1  UNL1        0.1402
     15 F         -14.5999  -17.6709   24.7235 F       1  UNL1       -0.2042
     16 C         -12.2856  -18.8310   24.5048 C.ar    1  UNL1        0.0309
     17 C         -11.0931  -19.2049   23.6750 C.ar    1  UNL1        0.0173
     18 C          -3.7018  -20.8097   20.2448 C.3     1  UNL1        0.2524
     19 O          -2.7327  -20.3292   21.2840 O.3     1  UNL1       -0.4689
     20 C          -2.3684  -18.8758   21.3548 C.ar    1  UNL1        0.1391
     21 C          -2.9715  -18.0023   22.4146 C.ar    1  UNL1        0.0369
     22 C          -2.6073  -16.5490   22.4856 C.ar    1  UNL1        0.0031
     23 C          -1.6399  -15.9691   21.4967 C.ar    1  UNL1        0.0002
     24 C          -1.0368  -16.8426   20.4369 C.ar    1  UNL1        0.0031
     25 C          -1.4010  -18.2959   20.3659 C.ar    1  UNL1        0.0369
@<TRIPOS>BOND
     1     1     2    2
     2     2     3   am
     3     3    11    1
     4    11    12   ar
     5    12    13   ar
     6    13    14   ar
     7    14    15    1
     8    14    16   ar
     9    16    17   ar
    10     3     4    1
    11     4     5    1
    12     5     6    1
    13     6     7   ar
    14     7     8   ar
    15     8    18    1
    16    18    19    1
    17    19    20    1
    18    20    21   ar
    19    21    22   ar
    20    22    23   ar
    21    23    24   ar
    22    24    25   ar
    23     8     9   ar
    24     9    10   ar
    25    10     2   am
    26    17    11   ar
    27    10     6   ar
    28    25    20   ar
@<TRIPOS>MOLECULE
*****
 25 28 0 0 0
SMALL
GASTEIGER

@<TRIPOS>ATOM
      1 O          -5.1500  -16.8669   22.8754 O.2     1  UNL1       -0.2486
      2 C          -5.6916  -18.1753   22.3808 C.2     1  UNL1        0.3279
      3 N          -4.8643  -19.0332   21.4699 N.am    1  UNL1       -0.2403
      4 C          -5.4058  -20.3416   20.9752 C.3     1  UNL1        0.1079
      5 C          -6.7747  -20.7922   21.3914 C.3     1  UNL1        0.0863
      6 C          -7.6020  -19.9344   22.3023 C.ar    1  UNL1        0.1290
      7 N          -8.9752  -20.1151   22.8780 N.ar    1  UNL1       -0.2310
      8 C          -9.2824  -18.9184   23.7286 C.ar    1  UNL1        0.1215
      9 C          -8.0990  -17.9980   23.6785 C.ar    1  UNL1        0.1037
     10 N          -7.0604  -18.6259   22.7969 N.ar    1  UNL1       -0.2473
     11 C          -3.4954  -18.5825   21.0537 C.ar    1  UNL1        0.0556
     12 C          -2.4371  -18.3443   22.0897 C.ar    1  UNL1        0.0173
     13 C          -1.0682  -17.8937   21.6736 C.ar    1  UNL1        0.0309
     14 C          -0.7577  -17.6813   20.2216 C.ar    1  UNL1        0.1402
     15 F           0.6112  -17.2306   19.8055 F       1  UNL1       -0.2042
     16 C          -1.8160  -17.9195   19.1856 C.ar    1  UNL1        0.0309
     17 C          -3.1849  -18.3701   19.6018 C.ar    1  UNL1        0.0173
     18 C         -10.5503  -18.6832   24.4948 C.3     1  UNL1        0.2524
     19 O         -11.7780  -18.1980   23.7825 O.3     1  UNL1       -0.4689
     20 C         -11.6677  -17.6352   22.3964 C.ar    1  UNL1        0.1391
     21 C         -11.5807  -16.1515   22.1942 C.ar    1  UNL1        0.0369
     22 C         -11.4704  -15.5886   20.8082 C.ar    1  UNL1        0.0031
     23 C         -11.4471  -16.5094   19.6244 C.ar    1  UNL1        0.0002
     24 C         -11.5342  -17.9932   19.8266 C.ar    1  UNL1        0.0031
     25 C         -11.6445  -18.5561   21.2126 C.ar    1  UNL1        0.0369
@<TRIPOS>BOND
     1     1     2    2
     2     2     3   am
     3     3    11    1
     4    11    12   ar
     5    12    13   ar
     6    13    14   ar
     7    14    15    1
     8    14    16   ar
     9    16    17   ar
    10     3     4    1
    11     4     5    1
    12     5     6    1
    13     6     7   ar
    14     7     8   ar
    15     8    18    1
    16    18    19    1
    17    19    20    1
    18    20    21   ar
    19    21    22   ar
    20    22    23   ar
    21    23    24   ar
    22    24    25   ar
    23     8     9   ar
    24     9    10   ar
    25    10     2   am
    26    17    11   ar
    27    10     6   ar
    28    25    20   ar
@<TRIPOS>MOLECULE
*****
 25 28 0 0 0
SMALL
GASTEIGER

@<TRIPOS>ATOM
      1 O           1.3050    2.7594   31.8717 O.2     1  UNL1       -0.2486
      2 C           2.0952    1.4854   31.8249 C.2     1  UNL1        0.3279
      3 N           2.0232    0.6022   30.6146 N.am    1  UNL1       -0.2403
      4 C           2.8134   -0.6718   30.5677 C.3     1  UNL1        0.1079
      5 C           3.6758   -1.0628   31.7312 C.3     1  UNL1        0.0863
      6 C           3.7478   -0.1796   32.9415 C.ar    1  UNL1        0.1290
      7 N           4.5051   -0.3031   34.2304 N.ar    1  UNL1       -0.2310
      8 C           4.1829    0.8947   35.0738 C.ar    1  UNL1        0.1215
      9 C           3.2264    1.7584   34.3062 C.ar    1  UNL1        0.1037
     10 N           2.9576    1.0945   32.9883 N.ar    1  UNL1       -0.2473
     11 C           1.1608    0.9932   29.4511 C.ar    1  UNL1        0.0556
     12 C           1.6224    2.0568   28.4996 C.ar    1  UNL1        0.0173
     13 C           0.7601    2.4478   27.3361 C.ar    1  UNL1        0.0309
     14 C          -0.5638    1.7752   27.1243 C.ar    1  UNL1        0.1402
     15 F          -1.4261    2.1662   25.9609 F       1  UNL1       -0.2042
     16 C          -1.0254    0.7116   28.0759 C.ar    1  UNL1        0.0309
     17 C          -0.1630    0.3206   29.2394 C.ar    1  UNL1        0.0173
     18 C           4.7223    1.1789   36.4443 C.3     1  UNL1        0.2524
     19 O           4.0703    0.5671   37.6487 O.3     1  UNL1       -0.4689
     20 C           2.8201    1.1734   38.2139 C.ar    1  UNL1        0.1391
     21 C           2.4438    2.5819   37.8609 C.ar    1  UNL1        0.0369
     22 C           1.1936    3.1882   38.4260 C.ar    1  UNL1        0.0031
     23 C           0.3198    2.3862   39.3442 C.ar    1  UNL1        0.0002
     24 C           0.6961    0.9777   39.6972 C.ar    1  UNL1        0.0031
     25 C           1.9463    0.3714   39.1321 C.ar    1  UNL1        0.0369
@<TRIPOS>BOND
     1     1     2    2
     2     2     3   am
     3     3    11    1
     4    11    12   ar
     5    12    13   ar
     6    13    14   ar
     7    14    15    1
     8    14    16   ar
     9    16    17   ar
    10     3     4    1
    11     4     5    1
    12     5     6    1
    13     6     7   ar
    14     7     8   ar
    15     8    18    1
    16    18    19    1
    17    19    20    1
    18    20    21   ar
    19    21    22   ar
    20    22    23   ar
    21    23    24   ar
    22    24    25   ar
    23     8     9   ar
    24     9    10   ar
    25    10     2   am
    26    17    11   ar
    27    10     6   ar
    28    25    20   ar
@<TRIPOS>MOLECULE
*****
 25 28 0 0 0
SMALL
GASTEIGER

@<TRIPOS>ATOM
      1 O           4.8388   -0.2288   21.6327 O.2     1  UNL1       -0.2486
      2 C           4.7770   -1.4776   20.8040 C.2     1  UNL1        0.3279
      3 N           3.6772   -1.6579   19.8000 N.am    1  UNL1       -0.2403
      4 C           3.6154   -2.9066   18.9714 C.3     1  UNL1        0.1079
      5 C           4.6534   -3.9752   19.1467 C.3     1  UNL1        0.0863
      6 C           5.7532   -3.7950   20.1507 C.ar    1  UNL1        0.1290
      7 N           6.9079   -4.6687   20.5422 N.ar    1  UNL1       -0.2310
      8 C           7.6833   -3.9599   21.6128 C.ar    1  UNL1        0.1215
      9 C           7.0079   -2.6481   21.8830 C.ar    1  UNL1        0.1037
     10 N           5.8150   -2.5462   20.9794 N.ar    1  UNL1       -0.2473
     11 C           2.6393   -0.5892   19.6247 C.ar    1  UNL1        0.0556
     12 C           1.3724   -0.6355   20.4265 C.ar    1  UNL1        0.0173
     13 C           0.3344    0.4331   20.2513 C.ar    1  UNL1        0.0309
     14 C           0.5633    1.5480   19.2742 C.ar    1  UNL1        0.1402
     15 F          -0.4747    2.6166   19.0990 F       1  UNL1       -0.2042
     16 C           1.8302    1.5943   18.4724 C.ar    1  UNL1        0.0309
     17 C           2.8682    0.5256   18.6477 C.ar    1  UNL1        0.0173
     18 C           8.9175   -4.4728   22.2937 C.3     1  UNL1        0.2524
     19 O           8.9446   -5.8668   22.8469 O.3     1  UNL1       -0.4689
     20 C           8.2663   -6.1698   24.1500 C.ar    1  UNL1        0.1391
     21 C           7.5772   -5.0749   24.9092 C.ar    1  UNL1        0.0369
     22 C           6.8990   -5.3779   26.2123 C.ar    1  UNL1        0.0031
     23 C           6.9098   -6.7757   26.7564 C.ar    1  UNL1        0.0002
     24 C           7.5989   -7.8706   25.9972 C.ar    1  UNL1        0.0031
     25 C           8.2772   -7.5676   24.6940 C.ar    1  UNL1        0.0369
@<TRIPOS>BOND
     1     1     2    2
     2     2     3   am
     3     3    11    1
     4    11    12   ar
     5    12    13   ar
     6    13    14   ar
     7    14    15    1
     8    14    16   ar
     9    16    17   ar
    10     3     4    1
    11     4     5    1
    12     5     6    1
    13     6     7   ar
    14     7     8   ar
    15     8    18    1
    16    18    19    1
    17    19    20    1
    18    20    21   ar
    19    21    22   ar
    20    22    23   ar
    21    23    24   ar
    22    24    25   ar
    23     8     9   ar
    24     9    10   ar
    25    10     2   am
    26    17    11   ar
    27    10     6   ar
    28    25    20   ar
@<TRIPOS>MOLECULE
*****
 25 28 0 0 0
SMALL
GASTEIGER

@<TRIPOS>ATOM
      1 O         -13.6622   -3.3310   19.1397 O.2     1  UNL1       -0.2486
      2 C         -12.7988   -2.2965   18.4806 C.2     1  UNL1        0.3279
      3 N         -11.4800   -2.6899   17.8839 N.am    1  UNL1       -0.2403
      4 C         -10.6166   -1.6555   17.2248 C.3     1  UNL1        0.1079
      5 C         -11.0720   -0.2276   17.1624 C.3     1  UNL1        0.0863
      6 C         -12.3907    0.1658   17.7591 C.ar    1  UNL1        0.1290
      7 N         -13.0981    1.4855   17.8488 N.ar    1  UNL1       -0.2310
      8 C         -14.3986    1.2666   18.5634 C.ar    1  UNL1        0.1215
      9 C         -14.4951   -0.1883   18.9153 C.ar    1  UNL1        0.1037
     10 N         -13.2542   -0.8687   18.4182 N.ar    1  UNL1       -0.2473
     11 C         -11.0247   -4.1178   17.9463 C.ar    1  UNL1        0.0556
     12 C         -10.0571   -4.5507   19.0075 C.ar    1  UNL1        0.0173
     13 C          -9.6017   -5.9785   19.0700 C.ar    1  UNL1        0.0309
     14 C         -10.1140   -6.9735   18.0712 C.ar    1  UNL1        0.1402
     15 F          -9.6587   -8.4013   18.1336 F       1  UNL1       -0.2042
     16 C         -11.0816   -6.5406   17.0099 C.ar    1  UNL1        0.0309
     17 C         -11.5370   -5.1127   16.9475 C.ar    1  UNL1        0.0173
     18 C         -15.4229    2.3181   18.8719 C.3     1  UNL1        0.2524
     19 O         -15.0408    3.5237   19.6785 O.3     1  UNL1       -0.4689
     20 C         -15.5560    3.6835   21.0782 C.ar    1  UNL1        0.1391
     21 C         -14.8835    4.6374   22.0205 C.ar    1  UNL1        0.0369
     22 C         -15.3986    4.7974   23.4202 C.ar    1  UNL1        0.0031
     23 C         -16.5862    4.0034   23.8776 C.ar    1  UNL1        0.0002
     24 C         -17.2587    3.0495   22.9354 C.ar    1  UNL1        0.0031
     25 C         -16.7436    2.8896   21.5357 C.ar    1  UNL1        0.0369
@<TRIPOS>BOND
     1     1     2    2
     2     2     3   am
     3     3    11    1
     4    11    12   ar
     5    12    13   ar
     6    13    14   ar
     7    14    15    1
     8    14    16   ar
     9    16    17   ar
    10     3     4    1
    11     4     5    1
    12     5     6    1
    13     6     7   ar
    14     7     8   ar
    15     8    18    1
    16    18    19    1
    17    19    20    1
    18    20    21   ar
    19    21    22   ar
    20    22    23   ar
    21    23    24   ar
    22    24    25   ar
    23     8     9   ar
    24     9    10   ar
    25    10     2   am
    26    17    11   ar
    27    10     6   ar
    28    25    20   ar
@<TRIPOS>MOLECULE
*****
 25 28 0 0 0
SMALL
GASTEIGER

@<TRIPOS>ATOM
      1 O         -14.4548   -4.6867   19.5383 O.2     1  UNL1       -0.2486
      2 C         -13.8239   -3.4342   19.0061 C.2     1  UNL1        0.3279
      3 N         -12.4704   -3.4914   18.3622 N.am    1  UNL1       -0.2403
      4 C         -11.8395   -2.2390   17.8300 C.3     1  UNL1        0.1079
      5 C         -12.5621   -0.9292   17.9417 C.3     1  UNL1        0.0863
      6 C         -13.9156   -0.8720   18.5856 C.ar    1  UNL1        0.1290
      7 N         -14.8606    0.2656   18.8361 N.ar    1  UNL1       -0.2310
      8 C         -16.0756   -0.2838   19.5231 C.ar    1  UNL1        0.1215
      9 C         -15.8815   -1.7610   19.6972 C.ar    1  UNL1        0.1037
     10 N         -14.5465   -2.1245   19.1178 N.ar    1  UNL1       -0.2473
     11 C         -11.7478   -4.8012   18.2505 C.ar    1  UNL1        0.0556
     12 C         -12.2243   -5.8401   17.2791 C.ar    1  UNL1        0.0173
     13 C         -11.5018   -7.1499   17.1674 C.ar    1  UNL1        0.0309
     14 C         -10.3027   -7.4207   18.0270 C.ar    1  UNL1        0.1402
     15 F          -9.5802   -8.7304   17.9152 F       1  UNL1       -0.2042
     16 C          -9.8262   -6.3818   18.9983 C.ar    1  UNL1        0.0309
     17 C         -10.5488   -5.0720   19.1100 C.ar    1  UNL1        0.0173
     18 C         -17.2743    0.5053   19.9594 C.3     1  UNL1        0.2524
     19 O         -17.4883    0.8016   21.4142 O.3     1  UNL1       -0.4689
     20 C         -17.0909    2.1352   21.9743 C.ar    1  UNL1        0.1391
     21 C         -17.2971    2.4284   23.4308 C.ar    1  UNL1        0.0369
     22 C         -16.8998    3.7619   23.9911 C.ar    1  UNL1        0.0031
     23 C         -16.2963    4.8022   23.0947 C.ar    1  UNL1        0.0002
     24 C         -16.0901    4.5091   21.6382 C.ar    1  UNL1        0.0031
     25 C         -16.4874    3.1755   21.0780 C.ar    1  UNL1        0.0369
@<TRIPOS>BOND
     1     1     2    2
     2     2     3   am
     3     3    11    1
     4    11    12   ar
     5    12    13   ar
     6    13    14   ar
     7    14    15    1
     8    14    16   ar
     9    16    17   ar
    10     3     4    1
    11     4     5    1
    12     5     6    1
    13     6     7   ar
    14     7     8   ar
    15     8    18    1
    16    18    19    1
    17    19    20    1
    18    20    21   ar
    19    21    22   ar
    20    22    23   ar
    21    23    24   ar
    22    24    25   ar
    23     8     9   ar
    24     9    10   ar
    25    10     2   am
    26    17    11   ar
    27    10     6   ar
    28    25    20   ar
@<TRIPOS>MOLECULE
*****
 25 28 0 0 0
SMALL
GASTEIGER

@<TRIPOS>ATOM
      1 O           5.7723   -1.5985   29.6137 O.2     1  UNL1       -0.2486
      2 C           6.2528   -2.9842   29.9284 C.2     1  UNL1        0.3279
      3 N           6.3725   -3.4305   31.3554 N.am    1  UNL1       -0.2403
      4 C           6.8529   -4.8161   31.6701 C.3     1  UNL1        0.1079
      5 C           7.2138   -5.7556   30.5577 C.3     1  UNL1        0.0863
      6 C           7.0941   -5.3092   29.1306 C.ar    1  UNL1        0.1290
      7 N           7.3750   -6.0082   27.8335 N.ar    1  UNL1       -0.2310
      8 C           7.0681   -5.0545   26.7172 C.ar    1  UNL1        0.1215
      9 C           6.5975   -3.7661   27.3244 C.ar    1  UNL1        0.1037
     10 N           6.6136   -3.9235   28.8160 N.ar    1  UNL1       -0.2473
     11 C           6.0116   -2.4911   32.4678 C.ar    1  UNL1        0.0556
     12 C           7.0221   -1.5049   32.9740 C.ar    1  UNL1        0.0173
     13 C           6.6614   -0.5655   34.0863 C.ar    1  UNL1        0.0309
     14 C           5.2901   -0.6122   34.6925 C.ar    1  UNL1        0.1402
     15 F           4.9293    0.3272   35.8048 F       1  UNL1       -0.2042
     16 C           4.2796   -1.5985   34.1863 C.ar    1  UNL1        0.0309
     17 C           4.6404   -2.5379   33.0739 C.ar    1  UNL1        0.0173
     18 C           7.2073   -5.3391   25.2510 C.3     1  UNL1        0.2524
     19 O           7.5726   -4.2347   24.3040 O.3     1  UNL1       -0.4689
     20 C           6.7209   -3.9683   23.0983 C.ar    1  UNL1        0.1391
     21 C           5.2813   -3.5824   23.2676 C.ar    1  UNL1        0.0369
     22 C           4.4295   -3.3159   22.0620 C.ar    1  UNL1        0.0031
     23 C           5.0172   -3.4354   20.6871 C.ar    1  UNL1        0.0002
     24 C           6.4568   -3.8214   20.5179 C.ar    1  UNL1        0.0031
     25 C           7.3086   -4.0878   21.7235 C.ar    1  UNL1        0.0369
@<TRIPOS>BOND
     1     1     2    2
     2     2     3   am
     3     3    11    1
     4    11    12   ar
     5    12    13   ar
     6    13    14   ar
     7    14    15    1
     8    14    16   ar
     9    16    17   ar
    10     3     4    1
    11     4     5    1
    12     5     6    1
    13     6     7   ar
    14     7     8   ar
    15     8    18    1
    16    18    19    1
    17    19    20    1
    18    20    21   ar
    19    21    22   ar
    20    22    23   ar
    21    23    24   ar
    22    24    25   ar
    23     8     9   ar
    24     9    10   ar
    25    10     2   am
    26    17    11   ar
    27    10     6   ar
    28    25    20   ar
@<TRIPOS>MOLECULE
*****
 25 28 0 0 0
SMALL
GASTEIGER

@<TRIPOS>ATOM
      1 O          -0.1776    0.5246   21.1066 O.2     1  UNL1       -0.2486
      2 C           1.1911    1.1279   21.2191 C.2     1  UNL1        0.3279
      3 N           1.5289    2.0088   22.3851 N.am    1  UNL1       -0.2403
      4 C           2.8976    2.6121   22.4976 C.3     1  UNL1        0.1079
      5 C           3.9286    2.3344   21.4440 C.3     1  UNL1        0.0863
      6 C           3.5907    1.4534   20.2779 C.ar    1  UNL1        0.1290
      7 N           4.3943    1.0037   19.0939 N.ar    1  UNL1       -0.2310
      8 C           3.5222    0.1224   18.2496 C.ar    1  UNL1        0.1215
      9 C           2.1796    0.0275   18.9119 C.ar    1  UNL1        0.1037
     10 N           2.2220    0.8502   20.1655 N.ar    1  UNL1       -0.2473
     11 C           0.4979    2.2865   23.4388 C.ar    1  UNL1        0.0556
     12 C          -0.5305    3.3559   23.2182 C.ar    1  UNL1        0.0173
     13 C          -1.5615    3.6336   24.2718 C.ar    1  UNL1        0.0309
     14 C          -1.5640    2.8419   25.5458 C.ar    1  UNL1        0.1402
     15 F          -2.5950    3.1196   26.5994 F       1  UNL1       -0.2042
     16 C          -0.5356    1.7725   25.7664 C.ar    1  UNL1        0.0309
     17 C           0.4954    1.4949   24.7128 C.ar    1  UNL1        0.0173
     18 C           3.9223   -0.5466   16.9681 C.3     1  UNL1        0.2524
     19 O           4.7453   -1.8002   17.0016 O.3     1  UNL1       -0.4689
     20 C           5.0106   -2.4885   18.3077 C.ar    1  UNL1        0.1391
     21 C           3.9740   -3.3956   18.9015 C.ar    1  UNL1        0.0369
     22 C           4.2391   -4.0840   20.2076 C.ar    1  UNL1        0.0031
     23 C           5.5409   -3.8651   20.9200 C.ar    1  UNL1        0.0002
     24 C           6.5775   -2.9580   20.3262 C.ar    1  UNL1        0.0031
     25 C           6.3123   -2.2697   19.0201 C.ar    1  UNL1        0.0369
@<TRIPOS>BOND
     1     1     2    2
     2     2     3   am
     3     3    11    1
     4    11    12   ar
     5    12    13   ar
     6    13    14   ar
     7    14    15    1
     8    14    16   ar
     9    16    17   ar
    10     3     4    1
    11     4     5    1
    12     5     6    1
    13     6     7   ar
    14     7     8   ar
    15     8    18    1
    16    18    19    1
    17    19    20    1
    18    20    21   ar
    19    21    22   ar
    20    22    23   ar
    21    23    24   ar
    22    24    25   ar
    23     8     9   ar
    24     9    10   ar
    25    10     2   am
    26    17    11   ar
    27    10     6   ar
    28    25    20   ar
@<TRIPOS>MOLECULE
*****
 25 28 0 0 0
SMALL
GASTEIGER

@<TRIPOS>ATOM
      1 O           3.4521    2.1213   22.3956 O.2     1  UNL1       -0.2486
      2 C           2.6167    1.5021   21.3145 C.2     1  UNL1        0.3279
      3 N           1.1451    1.3024   21.5254 N.am    1  UNL1       -0.2403
      4 C           0.3097    0.6832   20.4445 C.3     1  UNL1        0.1079
      5 C           0.9459    0.2636   19.1524 C.3     1  UNL1        0.0863
      6 C           2.4175    0.4632   18.9415 C.ar    1  UNL1        0.1290
      7 N           3.3167    0.1511   17.7822 N.ar    1  UNL1       -0.2310
      8 C           4.7078    0.5774   18.1467 C.ar    1  UNL1        0.1215
      9 C           4.6684    1.1531   19.5313 C.ar    1  UNL1        0.1037
     10 N           3.2529    1.0825   20.0225 N.ar    1  UNL1       -0.2473
     11 C           0.5090    1.7220   22.8175 C.ar    1  UNL1        0.0556
     12 C           0.7487    0.9246   24.0652 C.ar    1  UNL1        0.0173
     13 C           0.1126    1.3442   25.3572 C.ar    1  UNL1        0.0309
     14 C          -0.7632    2.5611   25.4015 C.ar    1  UNL1        0.1402
     15 F          -1.3993    2.9807   26.6936 F       1  UNL1       -0.2042
     16 C          -1.0030    3.3585   24.1539 C.ar    1  UNL1        0.0309
     17 C          -0.3668    2.9389   22.8618 C.ar    1  UNL1        0.0173
     18 C           5.9248    0.4505   17.2790 C.3     1  UNL1        0.2524
     19 O           6.5693   -0.8897   17.0826 O.3     1  UNL1       -0.4689
     20 C           6.4985   -1.9223   18.1683 C.ar    1  UNL1        0.1391
     21 C           5.3668   -2.9066   18.1943 C.ar    1  UNL1        0.0369
     22 C           5.2959   -3.9392   19.2800 C.ar    1  UNL1        0.0031
     23 C           6.3565   -3.9876   20.3395 C.ar    1  UNL1        0.0002
     24 C           7.4881   -3.0034   20.3134 C.ar    1  UNL1        0.0031
     25 C           7.5591   -1.9707   19.2278 C.ar    1  UNL1        0.0369
@<TRIPOS>BOND
     1     1     2    2
     2     2     3   am
     3     3    11    1
     4    11    12   ar
     5    12    13   ar
     6    13    14   ar
     7    14    15    1
     8    14    16   ar
     9    16    17   ar
    10     3     4    1
    11     4     5    1
    12     5     6    1
    13     6     7   ar
    14     7     8   ar
    15     8    18    1
    16    18    19    1
    17    19    20    1
    18    20    21   ar
    19    21    22   ar
    20    22    23   ar
    21    23    24   ar
    22    24    25   ar
    23     8     9   ar
    24     9    10   ar
    25    10     2   am
    26    17    11   ar
    27    10     6   ar
    28    25    20   ar
