@<TRIPOS>MOLECULE
*****
 30 33 0 0 0
SMALL
GASTEIGER

@<TRIPOS>ATOM
      1 C          -5.6460  -16.8354   23.3851 C.ar    1  UNL1        0.0686
      2 C          -6.1150  -15.7350   24.2900 C.ar    1  UNL1        0.1045
      3 N          -7.5820  -15.5372   24.5323 N.ar    1  UNL1       -0.2290
      4 C          -8.5800  -16.4398   23.8696 C.ar    1  UNL1        0.1319
      5 C          -8.1110  -17.5403   22.9646 C.ar    1  UNL1        0.0303
      6 C          -6.6439  -17.7381   22.7223 C.ar    1  UNL1       -0.0138
      7 O          -3.4846  -18.2440   23.6923 O.2     1  UNL1       -0.2701
      8 C          -4.1790  -17.0332   23.1428 C.2     1  UNL1        0.2471
      9 N          -3.4062  -16.0203   22.3510 N.am    1  UNL1       -0.3008
     10 H          -3.8619  -15.2256   21.9904 H       1  UNL1        0.1497
     11 C          -1.9392  -16.2181   22.1088 C.3     1  UNL1        0.0898
     12 C          -1.4708  -16.8977   20.8562 C.3     1  UNL1        0.0246
     13 C          -0.0281  -17.2793   20.7046 C.3     1  UNL1        0.0338
     14 C           0.4402  -17.9589   19.4521 C.3     1  UNL1        0.1422
     15 O          -0.5341  -18.2569   18.3512 O.3     1  UNL1       -0.3538
     16 C          -1.9768  -17.8753   18.5029 C.3     1  UNL1        0.1422
     17 C          -2.4451  -17.1957   19.7554 C.3     1  UNL1        0.0338
     18 C          -6.1749  -18.8386   21.8174 C.3     1  UNL1        0.0226
     19 C          -6.0360  -20.3011   21.5147 C.3     1  UNL1        0.0047
     20 C          -5.5013  -19.2820   20.5526 C.3     1  UNL1        0.0047
     21 N         -10.0470  -16.2420   24.1118 N.pl3   1  UNL1       -0.2973
     22 H         -10.3569  -15.8406   24.9557 H       1  UNL1        0.1536
     23 C         -11.0420  -16.6558   23.0683 C.ar    1  UNL1        0.0609
     24 C         -11.0818  -15.9469   21.7471 C.ar    1  UNL1        0.0269
     25 C         -12.0768  -16.3607   20.7036 C.ar    1  UNL1        0.0590
     26 CL        -12.1165  -15.6517   19.3822 Cl      1  UNL1       -0.0822
     27 C         -13.0320  -17.4833   20.9814 C.ar    1  UNL1        0.0123
     28 C         -12.9922  -18.1922   22.3027 C.ar    1  UNL1        0.0135
     29 C         -11.9972  -17.7784   23.3462 C.ar    1  UNL1        0.0711
     30 CL        -11.9575  -18.4874   24.6675 Cl      1  UNL1       -0.0810
@<TRIPOS>BOND
     1     7     8    2
     2     8     9   am
     3     9    11    1
     4    11    12    1
     5    12    13    1
     6    13    14    1
     7    14    15    1
     8    15    16    1
     9    16    17    1
    10     8     1    1
    11     1     2   ar
    12     2     3   ar
    13     3     4   ar
    14     4    21    1
    15    21    23    1
    16    23    24   ar
    17    24    25   ar
    18    25    26    1
    19    25    27   ar
    20    27    28   ar
    21    28    29   ar
    22    29    30    1
    23     4     5   ar
    24     5     6   ar
    25     6    18    1
    26    18    19    1
    27    19    20    1
    28    17    12    1
    29     6     1   ar
    30    20    18    1
    31    29    23   ar
    32     9    10    1
    33    21    22    1
@<TRIPOS>MOLECULE
*****
 30 33 0 0 0
SMALL
GASTEIGER

@<TRIPOS>ATOM
      1 C          -6.5175  -19.1974   20.3969 C.ar    1  UNL1        0.0686
      2 C          -7.2746  -19.9671   19.3556 C.ar    1  UNL1        0.1045
      3 N          -8.7746  -19.9684   19.3668 N.ar    1  UNL1       -0.2290
      4 C          -9.5174  -19.1999   20.4193 C.ar    1  UNL1        0.1319
      5 C          -8.7603  -18.4301   21.4605 C.ar    1  UNL1        0.0303
      6 C          -7.2603  -18.4289   21.4493 C.ar    1  UNL1       -0.0138
      7 O          -4.2761  -18.4389   19.3241 O.2     1  UNL1       -0.2701
      8 C          -5.0176  -19.1961   20.3857 C.2     1  UNL1        0.2471
      9 N          -4.2591  -19.9519   21.4362 N.am    1  UNL1       -0.3008
     10 H          -4.7457  -20.4489   22.1329 H       1  UNL1        0.1497
     11 C          -2.7591  -19.9506   21.4250 C.3     1  UNL1        0.0898
     12 C          -2.0124  -18.6843   21.1270 C.3     1  UNL1        0.0246
     13 C          -2.3416  -17.4259   21.8741 C.3     1  UNL1        0.0338
     14 C          -1.5949  -16.1596   21.5761 C.3     1  UNL1        0.1422
     15 O          -0.5189  -16.1517   20.5311 O.3     1  UNL1       -0.3538
     16 C          -0.1897  -17.4100   19.7840 C.3     1  UNL1        0.1422
     17 C          -0.9364  -18.6763   20.0820 C.3     1  UNL1        0.0338
     18 C          -6.5032  -17.6591   22.4906 C.3     1  UNL1        0.0226
     19 C          -6.4232  -16.5165   23.4590 C.3     1  UNL1        0.0047
     20 C          -5.2718  -17.4685   23.3256 C.3     1  UNL1        0.0047
     21 N         -11.0174  -19.2012   20.4304 N.pl3   1  UNL1       -0.2973
     22 H         -11.5137  -19.7888   19.8159 H       1  UNL1        0.1536
     23 C         -11.7611  -18.3072   21.3778 C.ar    1  UNL1        0.0609
     24 C         -12.2827  -18.8553   22.6730 C.ar    1  UNL1        0.0269
     25 C         -13.0265  -17.9613   23.6204 C.ar    1  UNL1        0.0590
     26 CL        -13.5481  -18.5094   24.9156 Cl      1  UNL1       -0.0822
     27 C         -13.2486  -16.5192   23.2726 C.ar    1  UNL1        0.0123
     28 C         -12.7270  -15.9711   21.9775 C.ar    1  UNL1        0.0135
     29 C         -11.9833  -16.8651   21.0301 C.ar    1  UNL1        0.0711
     30 CL        -11.4617  -16.3170   19.7348 Cl      1  UNL1       -0.0810
@<TRIPOS>BOND
     1     7     8    2
     2     8     9   am
     3     9    11    1
     4    11    12    1
     5    12    13    1
     6    13    14    1
     7    14    15    1
     8    15    16    1
     9    16    17    1
    10     8     1    1
    11     1     2   ar
    12     2     3   ar
    13     3     4   ar
    14     4    21    1
    15    21    23    1
    16    23    24   ar
    17    24    25   ar
    18    25    26    1
    19    25    27   ar
    20    27    28   ar
    21    28    29   ar
    22    29    30    1
    23     4     5   ar
    24     5     6   ar
    25     6    18    1
    26    18    19    1
    27    19    20    1
    28    17    12    1
    29     6     1   ar
    30    20    18    1
    31    29    23   ar
    32     9    10    1
    33    21    22    1
@<TRIPOS>MOLECULE
*****
 30 33 0 0 0
SMALL
GASTEIGER

@<TRIPOS>ATOM
      1 C          -6.0909  -19.3650   20.5993 C.ar    1  UNL1        0.0686
      2 C          -7.2105  -19.9881   19.8194 C.ar    1  UNL1        0.1045
      3 N          -8.5874  -20.0592   20.4103 N.ar    1  UNL1       -0.2290
      4 C          -8.8446  -19.5073   21.7812 C.ar    1  UNL1        0.1319
      5 C          -7.7250  -18.8843   22.5611 C.ar    1  UNL1        0.0303
      6 C          -6.3481  -18.8132   21.9701 C.ar    1  UNL1       -0.0138
      7 O          -3.6755  -20.3016   20.4032 O.2     1  UNL1       -0.2701
      8 C          -4.7141  -19.2939   20.0084 C.2     1  UNL1        0.2471
      9 N          -4.3758  -18.2150   19.0226 N.am    1  UNL1       -0.3008
     10 H          -5.0575  -17.5536   18.7635 H       1  UNL1        0.1497
     11 C          -2.9990  -18.1439   18.4316 C.3     1  UNL1        0.0898
     12 C          -1.8430  -17.6946   19.2754 C.3     1  UNL1        0.0246
     13 C          -0.4632  -18.2110   18.9934 C.3     1  UNL1        0.0338
     14 C           0.6927  -17.7617   19.8371 C.3     1  UNL1        0.1422
     15 O           0.4689  -16.7959   20.9628 O.3     1  UNL1       -0.3538
     16 C          -0.9108  -16.2794   21.2448 C.3     1  UNL1        0.1422
     17 C          -2.0668  -16.7288   20.4011 C.3     1  UNL1        0.0338
     18 C          -5.2285  -18.1901   22.7500 C.3     1  UNL1        0.0226
     19 C          -4.6629  -17.0238   23.5048 C.3     1  UNL1        0.0047
     20 C          -3.8548  -18.2774   23.3461 C.3     1  UNL1        0.0047
     21 N         -10.2214  -19.5785   22.3722 N.pl3   1  UNL1       -0.2973
     22 H         -10.5039  -20.3815   22.8667 H       1  UNL1        0.1536
     23 C         -11.1678  -18.4261   22.2096 C.ar    1  UNL1        0.0609
     24 C         -11.1954  -17.6538   20.9241 C.ar    1  UNL1        0.0269
     25 C         -12.1418  -16.5015   20.7615 C.ar    1  UNL1        0.0590
     26 CL        -12.1693  -15.7291   19.4759 Cl      1  UNL1       -0.0822
     27 C         -13.0607  -16.1215   21.8845 C.ar    1  UNL1        0.0123
     28 C         -13.0332  -16.8938   23.1701 C.ar    1  UNL1        0.0135
     29 C         -12.0868  -18.0462   23.3326 C.ar    1  UNL1        0.0711
     30 CL        -12.0593  -18.8185   24.6183 Cl      1  UNL1       -0.0810
@<TRIPOS>BOND
     1     7     8    2
     2     8     9   am
     3     9    11    1
     4    11    12    1
     5    12    13    1
     6    13    14    1
     7    14    15    1
     8    15    16    1
     9    16    17    1
    10     8     1    1
    11     1     2   ar
    12     2     3   ar
    13     3     4   ar
    14     4    21    1
    15    21    23    1
    16    23    24   ar
    17    24    25   ar
    18    25    26    1
    19    25    27   ar
    20    27    28   ar
    21    28    29   ar
    22    29    30    1
    23     4     5   ar
    24     5     6   ar
    25     6    18    1
    26    18    19    1
    27    19    20    1
    28    17    12    1
    29     6     1   ar
    30    20    18    1
    31    29    23   ar
    32     9    10    1
    33    21    22    1
@<TRIPOS>MOLECULE
*****
 30 33 0 0 0
SMALL
GASTEIGER

@<TRIPOS>ATOM
      1 C          -9.0324  -19.2889   21.1581 C.ar    1  UNL1        0.0686
      2 C          -8.2770  -19.1389   19.8709 C.ar    1  UNL1        0.1045
      3 N          -6.8107  -19.4511   19.8210 N.ar    1  UNL1       -0.2290
      4 C          -6.0998  -19.9134   21.0583 C.ar    1  UNL1        0.1319
      5 C          -6.8552  -20.0634   22.3455 C.ar    1  UNL1        0.0303
      6 C          -8.3215  -19.7512   22.3954 C.ar    1  UNL1       -0.0138
      7 O         -11.4883  -19.9238   20.5967 O.2     1  UNL1       -0.2701
      8 C         -10.4987  -18.9767   21.2079 C.2     1  UNL1        0.2471
      9 N         -10.9753  -17.7174   21.8691 N.am    1  UNL1       -0.3008
     10 H         -10.3258  -17.0959   22.2703 H       1  UNL1        0.1497
     11 C         -12.4416  -17.4052   21.9190 C.3     1  UNL1        0.0898
     12 C         -13.2699  -17.8770   23.0772 C.3     1  UNL1        0.0246
     13 C         -14.7376  -18.1283   22.8966 C.3     1  UNL1        0.0338
     14 C         -15.5658  -18.6000   24.0547 C.3     1  UNL1        0.1422
     15 O         -14.9264  -18.8204   25.3936 O.3     1  UNL1       -0.3538
     16 C         -13.4587  -18.5692   25.5742 C.3     1  UNL1        0.1422
     17 C         -12.6304  -18.0974   24.4160 C.3     1  UNL1        0.0338
     18 C          -9.0770  -19.9012   23.6825 C.3     1  UNL1        0.0226
     19 C          -9.5669  -19.3216   24.9764 C.3     1  UNL1        0.0047
     20 C          -9.8954  -20.7407   24.6181 C.3     1  UNL1        0.0047
     21 N          -4.6335  -20.2256   21.0085 N.pl3   1  UNL1       -0.2973
     22 H          -4.3227  -21.1511   21.1352 H       1  UNL1        0.1536
     23 C          -3.6407  -19.1277   20.7655 C.ar    1  UNL1        0.0609
     24 C          -3.0884  -18.9072   19.3884 C.ar    1  UNL1        0.0269
     25 C          -2.0956  -17.8093   19.1454 C.ar    1  UNL1        0.0590
     26 CL         -1.5432  -17.5890   17.7683 Cl      1  UNL1       -0.0822
     27 C          -1.6552  -16.9318   20.2794 C.ar    1  UNL1        0.0123
     28 C          -2.2076  -17.1523   21.6565 C.ar    1  UNL1        0.0135
     29 C          -3.2004  -18.2502   21.8995 C.ar    1  UNL1        0.0711
     30 CL         -3.7528  -18.4705   23.2766 Cl      1  UNL1       -0.0810
@<TRIPOS>BOND
     1     7     8    2
     2     8     9   am
     3     9    11    1
     4    11    12    1
     5    12    13    1
     6    13    14    1
     7    14    15    1
     8    15    16    1
     9    16    17    1
    10     8     1    1
    11     1     2   ar
    12     2     3   ar
    13     3     4   ar
    14     4    21    1
    15    21    23    1
    16    23    24   ar
    17    24    25   ar
    18    25    26    1
    19    25    27   ar
    20    27    28   ar
    21    28    29   ar
    22    29    30    1
    23     4     5   ar
    24     5     6   ar
    25     6    18    1
    26    18    19    1
    27    19    20    1
    28    17    12    1
    29     6     1   ar
    30    20    18    1
    31    29    23   ar
    32     9    10    1
    33    21    22    1
@<TRIPOS>MOLECULE
*****
 30 33 0 0 0
SMALL
GASTEIGER

@<TRIPOS>ATOM
      1 C           7.3878   -2.3349   19.8155 C.ar    1  UNL1        0.0686
      2 C           8.6953   -1.8447   20.3632 C.ar    1  UNL1        0.1045
      3 N           9.3802   -2.6034   21.4610 N.ar    1  UNL1       -0.2290
      4 C           8.7576   -3.8524   22.0111 C.ar    1  UNL1        0.1319
      5 C           7.4501   -4.3425   21.4633 C.ar    1  UNL1        0.0303
      6 C           6.7651   -3.5837   20.3655 C.ar    1  UNL1       -0.0138
      7 O           6.8427   -2.0271   17.2939 O.2     1  UNL1       -0.2701
      8 C           6.7029   -1.5761   18.7177 C.2     1  UNL1        0.2471
      9 N           5.8781   -0.3663   19.0436 N.am    1  UNL1       -0.3008
     10 H           5.7863   -0.0703   19.9780 H       1  UNL1        0.1497
     11 C           5.1932    0.3924   17.9458 C.3     1  UNL1        0.0898
     12 C           3.8275    0.9701   18.1723 C.3     1  UNL1        0.0246
     13 C           2.6304    0.0677   18.2234 C.3     1  UNL1        0.0338
     14 C           1.2648    0.6455   18.4499 C.3     1  UNL1        0.1422
     15 O           1.0963    2.1256   18.6253 O.3     1  UNL1       -0.3538
     16 C           2.2934    3.0280   18.5742 C.3     1  UNL1        0.1422
     17 C           3.6590    2.4503   18.3477 C.3     1  UNL1        0.0338
     18 C           5.4576   -4.0739   19.8177 C.3     1  UNL1        0.0226
     19 C           3.9591   -4.1128   19.8722 C.3     1  UNL1        0.0047
     20 C           4.6914   -4.8840   18.8144 C.3     1  UNL1        0.0047
     21 N           9.4425   -4.6111   23.1089 N.pl3   1  UNL1       -0.2973
     22 H          10.4226   -4.7044   23.1055 H       1  UNL1        0.1536
     23 C           8.6342   -5.2277   24.2118 C.ar    1  UNL1        0.0609
     24 C           7.9813   -4.3542   25.2416 C.ar    1  UNL1        0.0269
     25 C           7.1729   -4.9708   26.3446 C.ar    1  UNL1        0.0590
     26 CL          6.5200   -4.0973   27.3744 Cl      1  UNL1       -0.0822
     27 C           7.0176   -6.4610   26.4176 C.ar    1  UNL1        0.0123
     28 C           7.6706   -7.3344   25.3878 C.ar    1  UNL1        0.0135
     29 C           8.4789   -6.7178   24.2849 C.ar    1  UNL1        0.0711
     30 CL          9.1318   -7.5914   23.2550 Cl      1  UNL1       -0.0810
@<TRIPOS>BOND
     1     7     8    2
     2     8     9   am
     3     9    11    1
     4    11    12    1
     5    12    13    1
     6    13    14    1
     7    14    15    1
     8    15    16    1
     9    16    17    1
    10     8     1    1
    11     1     2   ar
    12     2     3   ar
    13     3     4   ar
    14     4    21    1
    15    21    23    1
    16    23    24   ar
    17    24    25   ar
    18    25    26    1
    19    25    27   ar
    20    27    28   ar
    21    28    29   ar
    22    29    30    1
    23     4     5   ar
    24     5     6   ar
    25     6    18    1
    26    18    19    1
    27    19    20    1
    28    17    12    1
    29     6     1   ar
    30    20    18    1
    31    29    23   ar
    32     9    10    1
    33    21    22    1
@<TRIPOS>MOLECULE
*****
 30 33 0 0 0
SMALL
GASTEIGER

@<TRIPOS>ATOM
      1 C           4.9846   -1.9070   20.9575 C.ar    1  UNL1        0.0686
      2 C           5.6986   -1.0219   21.9356 C.ar    1  UNL1        0.1045
      3 N           6.7546   -1.5950   22.8336 N.ar    1  UNL1       -0.2290
      4 C           7.0967   -3.0533   22.7534 C.ar    1  UNL1        0.1319
      5 C           6.3827   -3.9384   21.7753 C.ar    1  UNL1        0.0303
      6 C           5.3267   -3.3653   20.8773 C.ar    1  UNL1       -0.0138
      7 O           2.4817   -1.4408   20.4401 O.2     1  UNL1       -0.2701
      8 C           3.9286   -1.3339   20.0595 C.2     1  UNL1        0.2471
      9 N           4.3196   -0.6540   18.7809 N.am    1  UNL1       -0.3008
     10 H           5.2693   -0.5838   18.5311 H       1  UNL1        0.1497
     11 C           3.2636   -0.0809   17.8829 C.3     1  UNL1        0.0898
     12 C           2.5638    1.1900   18.2641 C.3     1  UNL1        0.0246
     13 C           3.3533    2.4492   18.4666 C.3     1  UNL1        0.0338
     14 C           2.6535    3.7200   18.8478 C.3     1  UNL1        0.1422
     15 O           1.1642    3.7316   19.0264 O.3     1  UNL1       -0.3538
     16 C           0.3747    2.4724   18.8238 C.3     1  UNL1        0.1422
     17 C           1.0745    1.2016   18.4427 C.3     1  UNL1        0.0338
     18 C           4.6127   -4.2504   19.8992 C.3     1  UNL1        0.0226
     19 C           4.6386   -5.1311   18.6852 C.3     1  UNL1        0.0047
     20 C           3.3503   -4.9029   19.4190 C.3     1  UNL1        0.0047
     21 N           8.1527   -3.6264   23.6514 N.pl3   1  UNL1       -0.2973
     22 H           9.0551   -3.2330   23.6635 H       1  UNL1        0.1536
     23 C           7.8338   -4.7988   24.5310 C.ar    1  UNL1        0.0609
     24 C           7.1279   -4.5863   25.8373 C.ar    1  UNL1        0.0269
     25 C           6.8090   -5.7587   26.7169 C.ar    1  UNL1        0.0590
     26 CL          6.1031   -5.5462   28.0233 Cl      1  UNL1       -0.0822
     27 C           7.1960   -7.1437   26.2902 C.ar    1  UNL1        0.0123
     28 C           7.9019   -7.3562   24.9839 C.ar    1  UNL1        0.0135
     29 C           8.2208   -6.1837   24.1043 C.ar    1  UNL1        0.0711
     30 CL          8.9268   -6.3963   22.7979 Cl      1  UNL1       -0.0810
@<TRIPOS>BOND
     1     7     8    2
     2     8     9   am
     3     9    11    1
     4    11    12    1
     5    12    13    1
     6    13    14    1
     7    14    15    1
     8    15    16    1
     9    16    17    1
    10     8     1    1
    11     1     2   ar
    12     2     3   ar
    13     3     4   ar
    14     4    21    1
    15    21    23    1
    16    23    24   ar
    17    24    25   ar
    18    25    26    1
    19    25    27   ar
    20    27    28   ar
    21    28    29   ar
    22    29    30    1
    23     4     5   ar
    24     5     6   ar
    25     6    18    1
    26    18    19    1
    27    19    20    1
    28    17    12    1
    29     6     1   ar
    30    20    18    1
    31    29    23   ar
    32     9    10    1
    33    21    22    1
@<TRIPOS>MOLECULE
*****
 30 33 0 0 0
SMALL
GASTEIGER

@<TRIPOS>ATOM
      1 C         -13.4052   -0.5969   18.3970 C.ar    1  UNL1        0.0686
      2 C         -13.0985    0.8531   18.1656 C.ar    1  UNL1        0.1045
      3 N         -14.0888    1.9035   18.5730 N.ar    1  UNL1       -0.2290
      4 C         -15.3859    1.5039   19.2117 C.ar    1  UNL1        0.1319
      5 C         -15.6927    0.0539   19.4431 C.ar    1  UNL1        0.0303
      6 C         -14.7023   -0.9965   19.0357 C.ar    1  UNL1       -0.0138
      7 O         -12.4713   -2.2370   16.6116 O.2     1  UNL1       -0.2701
      8 C         -12.4149   -1.6472   17.9896 C.2     1  UNL1        0.2471
      9 N         -11.3682   -2.1079   18.9603 N.am    1  UNL1       -0.3008
     10 H         -11.3311   -1.7208   19.8648 H       1  UNL1        0.1497
     11 C         -10.3779   -3.1582   18.5530 C.3     1  UNL1        0.0898
     12 C         -10.7188   -4.6108   18.7078 C.3     1  UNL1        0.0246
     13 C         -12.1439   -5.0283   18.9191 C.3     1  UNL1        0.0338
     14 C         -12.4848   -6.4808   19.0739 C.3     1  UNL1        0.1422
     15 O         -11.4006   -7.5158   19.0174 O.3     1  UNL1       -0.3538
     16 C          -9.9754   -7.0983   18.8062 C.3     1  UNL1        0.1422
     17 C          -9.6346   -5.6458   18.6513 C.3     1  UNL1        0.0338
     18 C         -15.0090   -2.4464   19.2670 C.3     1  UNL1        0.0226
     19 C         -15.4533   -3.7798   18.7431 C.3     1  UNL1        0.0047
     20 C         -15.0960   -3.6243   20.1916 C.3     1  UNL1        0.0047
     21 N         -16.3762    2.5543   19.6191 N.pl3   1  UNL1       -0.2973
     22 H         -16.9805    2.9475   18.9487 H       1  UNL1        0.1536
     23 C         -16.4458    3.0056   21.0479 C.ar    1  UNL1        0.0609
     24 C         -15.5262    4.0837   21.5395 C.ar    1  UNL1        0.0269
     25 C         -15.5958    4.5350   22.9683 C.ar    1  UNL1        0.0590
     26 CL        -14.6761    5.6132   23.4600 Cl      1  UNL1       -0.0822
     27 C         -16.5851    3.9082   23.9055 C.ar    1  UNL1        0.0123
     28 C         -17.5047    2.8300   23.4139 C.ar    1  UNL1        0.0135
     29 C         -17.4351    2.3787   21.9851 C.ar    1  UNL1        0.0711
     30 CL        -18.3548    1.3005   21.4934 Cl      1  UNL1       -0.0810
@<TRIPOS>BOND
     1     7     8    2
     2     8     9   am
     3     9    11    1
     4    11    12    1
     5    12    13    1
     6    13    14    1
     7    14    15    1
     8    15    16    1
     9    16    17    1
    10     8     1    1
    11     1     2   ar
    12     2     3   ar
    13     3     4   ar
    14     4    21    1
    15    21    23    1
    16    23    24   ar
    17    24    25   ar
    18    25    26    1
    19    25    27   ar
    20    27    28   ar
    21    28    29   ar
    22    29    30    1
    23     4     5   ar
    24     5     6   ar
    25     6    18    1
    26    18    19    1
    27    19    20    1
    28    17    12    1
    29     6     1   ar
    30    20    18    1
    31    29    23   ar
    32     9    10    1
    33    21    22    1
@<TRIPOS>MOLECULE
*****
 30 33 0 0 0
SMALL
GASTEIGER

@<TRIPOS>ATOM
      1 C           5.2499   -2.8683   20.6457 C.ar    1  UNL1        0.0686
      2 C           6.2003   -3.9198   20.1546 C.ar    1  UNL1        0.1045
      3 N           7.2447   -4.4761   21.0762 N.ar    1  UNL1       -0.2290
      4 C           7.3389   -3.9810   22.4891 C.ar    1  UNL1        0.1319
      5 C           6.3885   -2.9295   22.9802 C.ar    1  UNL1        0.0303
      6 C           5.3440   -2.3732   22.0584 C.ar    1  UNL1       -0.0138
      7 O           3.0312   -3.1557   19.3248 O.2     1  UNL1       -0.2701
      8 C           4.2054   -2.3120   19.7240 C.2     1  UNL1        0.2471
      9 N           4.3351   -0.9119   19.2015 N.am    1  UNL1       -0.3008
     10 H           5.1058   -0.3581   19.4635 H       1  UNL1        0.1497
     11 C           3.2907   -0.3555   18.2798 C.3     1  UNL1        0.0898
     12 C           2.1278    0.4095   18.8388 C.3     1  UNL1        0.0246
     13 C           1.2736   -0.2011   19.9100 C.3     1  UNL1        0.0338
     14 C           0.1107    0.5640   20.4689 C.3     1  UNL1        0.1422
     15 O          -0.1979    1.9397   19.9567 O.3     1  UNL1       -0.3538
     16 C           0.6564    2.5502   18.8856 C.3     1  UNL1        0.1422
     17 C           1.8192    1.7852   18.3266 C.3     1  UNL1        0.0338
     18 C           4.3936   -1.3217   22.5495 C.3     1  UNL1        0.0226
     19 C           3.1776   -0.9362   23.3386 C.3     1  UNL1        0.0047
     20 C           3.9636    0.1140   22.6111 C.3     1  UNL1        0.0047
     21 N           8.3833   -4.5373   23.4108 N.pl3   1  UNL1       -0.2973
     22 H           9.3266   -4.2784   23.2992 H       1  UNL1        0.1536
     23 C           7.9907   -5.4882   24.5024 C.ar    1  UNL1        0.0609
     24 C           7.2777   -4.9791   25.7199 C.ar    1  UNL1        0.0269
     25 C           6.8850   -5.9299   26.8116 C.ar    1  UNL1        0.0590
     26 CL          6.1720   -5.4207   28.0292 Cl      1  UNL1       -0.0822
     27 C           7.2053   -7.3898   26.6857 C.ar    1  UNL1        0.0123
     28 C           7.9183   -7.8990   25.4682 C.ar    1  UNL1        0.0135
     29 C           8.3110   -6.9481   24.3766 C.ar    1  UNL1        0.0711
     30 CL          9.0240   -7.4573   23.1590 Cl      1  UNL1       -0.0810
@<TRIPOS>BOND
     1     7     8    2
     2     8     9   am
     3     9    11    1
     4    11    12    1
     5    12    13    1
     6    13    14    1
     7    14    15    1
     8    15    16    1
     9    16    17    1
    10     8     1    1
    11     1     2   ar
    12     2     3   ar
    13     3     4   ar
    14     4    21    1
    15    21    23    1
    16    23    24   ar
    17    24    25   ar
    18    25    26    1
    19    25    27   ar
    20    27    28   ar
    21    28    29   ar
    22    29    30    1
    23     4     5   ar
    24     5     6   ar
    25     6    18    1
    26    18    19    1
    27    19    20    1
    28    17    12    1
    29     6     1   ar
    30    20    18    1
    31    29    23   ar
    32     9    10    1
    33    21    22    1
@<TRIPOS>MOLECULE
*****
 30 33 0 0 0
SMALL
GASTEIGER

@<TRIPOS>ATOM
      1 C          -8.0936  -19.2083   21.3975 C.ar    1  UNL1        0.0686
      2 C          -7.1739  -18.8174   22.5161 C.ar    1  UNL1        0.1045
      3 N          -5.7029  -19.0896   22.4075 N.ar    1  UNL1       -0.2290
      4 C          -5.1515  -19.7527   21.1801 C.ar    1  UNL1        0.1319
      5 C          -6.0712  -20.1436   20.0615 C.ar    1  UNL1        0.0303
      6 C          -7.5423  -19.8713   20.1702 C.ar    1  UNL1       -0.0138
      7 O         -10.5445  -20.0696   21.4348 O.2     1  UNL1       -0.2701
      8 C          -9.5647  -18.9361   21.5062 C.2     1  UNL1        0.2471
      9 N         -10.0560  -17.5303   21.6862 N.am    1  UNL1       -0.3008
     10 H          -9.4130  -16.7863   21.7330 H       1  UNL1        0.1497
     11 C         -11.5271  -17.2581   21.7949 C.3     1  UNL1        0.0898
     12 C         -12.2963  -17.7560   22.9826 C.3     1  UNL1        0.0246
     13 C         -11.5708  -18.3770   24.1393 C.3     1  UNL1        0.0338
     14 C         -12.3400  -18.8749   25.3268 C.3     1  UNL1        0.1422
     15 O         -13.8346  -18.7517   25.3577 O.3     1  UNL1       -0.3538
     16 C         -14.5601  -18.1307   24.2011 C.3     1  UNL1        0.1422
     17 C         -13.7909  -17.6328   23.0135 C.3     1  UNL1        0.0338
     18 C          -8.4620  -20.2622   19.0516 C.3     1  UNL1        0.0226
     19 C          -8.8560  -21.2233   17.9694 C.3     1  UNL1        0.0047
     20 C          -9.6610  -19.9781   18.1962 C.3     1  UNL1        0.0047
     21 N          -3.6804  -20.0249   21.0715 N.pl3   1  UNL1       -0.2973
     22 H          -3.3203  -20.8999   21.3434 H       1  UNL1        0.1536
     23 C          -2.7580  -18.9640   20.5484 C.ar    1  UNL1        0.0609
     24 C          -2.5035  -18.8515   19.0745 C.ar    1  UNL1        0.0269
     25 C          -1.5810  -17.7906   18.5515 C.ar    1  UNL1        0.0590
     26 CL         -1.3265  -17.6781   17.0775 Cl      1  UNL1       -0.0822
     27 C          -0.9131  -16.8422   19.5024 C.ar    1  UNL1        0.0123
     28 C          -1.1676  -16.9547   20.9764 C.ar    1  UNL1        0.0135
     29 C          -2.0900  -18.0156   21.4994 C.ar    1  UNL1        0.0711
     30 CL         -2.3445  -18.1281   22.9734 Cl      1  UNL1       -0.0810
@<TRIPOS>BOND
     1     7     8    2
     2     8     9   am
     3     9    11    1
     4    11    12    1
     5    12    13    1
     6    13    14    1
     7    14    15    1
     8    15    16    1
     9    16    17    1
    10     8     1    1
    11     1     2   ar
    12     2     3   ar
    13     3     4   ar
    14     4    21    1
    15    21    23    1
    16    23    24   ar
    17    24    25   ar
    18    25    26    1
    19    25    27   ar
    20    27    28   ar
    21    28    29   ar
    22    29    30    1
    23     4     5   ar
    24     5     6   ar
    25     6    18    1
    26    18    19    1
    27    19    20    1
    28    17    12    1
    29     6     1   ar
    30    20    18    1
    31    29    23   ar
    32     9    10    1
    33    21    22    1
