@<TRIPOS>MOLECULE
*****
 32 37 0 0 0
SMALL
GASTEIGER

@<TRIPOS>ATOM
      1 C          -0.0007    2.2165   24.5501 C.2     1  UNL1        0.0292
      2 C          -0.9293    3.2340   23.9565 C.2     1  UNL1        0.2320
      3 N          -1.0883    3.3260   22.4679 N.2     1  UNL1       -0.0311
      4 C          -0.3186    2.4006   21.5727 C.2     1  UNL1        0.3720
      5 N          -0.2703    2.2575   20.0803 N.2     1  UNL1       -0.0308
      6 C           0.6882    1.1516   19.7516 C.2     1  UNL1        0.2355
      7 C           1.2322    0.6112   21.0408 C.2     1  UNL1        0.0469
      8 C           0.6100    1.3832   22.1663 C.2     1  UNL1        0.0740
      9 C           0.7689    1.2911   23.6550 C.3     1  UNL1        0.0645
     10 C           2.2244   -0.5052   21.1800 C.2     1  UNL1       -0.0140
     11 C           2.8969   -0.7509   22.4981 C.2     1  UNL1       -0.0023
     12 C           3.8890   -1.8673   22.6373 C.2     1  UNL1        0.0185
     13 C           4.2087   -2.7380   21.4584 C.2     1  UNL1        0.0777
     14 N           5.1368   -3.9049   21.2949 N.2     1  UNL1       -0.2442
     15 C           5.0379   -4.3804   19.8757 C.2     1  UNL1        0.0985
     16 C           4.0487   -3.5073   19.1622 C.2     1  UNL1        0.0182
     17 C           3.5362   -2.4922   20.1404 C.2     1  UNL1        0.0014
     18 C           2.5441   -1.3758   20.0011 C.3     1  UNL1        0.0543
     19 C           0.4763    1.9402   29.0163 C.ar    1  UNL1       -0.0061
     20 C           1.2834    2.9351   28.2359 C.ar    1  UNL1       -0.0029
     21 C           1.1244    3.0271   26.7472 C.ar    1  UNL1       -0.0005
     22 C           0.1583    2.1244   26.0388 C.ar    1  UNL1        0.0000
     23 C          -0.6487    1.1296   26.8192 C.ar    1  UNL1       -0.0005
     24 C          -0.4897    1.0374   28.3079 C.ar    1  UNL1       -0.0029
     25 C           0.6353    1.8481   30.5049 C.3     1  UNL1        0.0992
     26 C           5.0318   -1.4934   32.8512 C.3     1  UNL1        0.0897
     27 N           3.9327   -0.6580   32.2646 N.3     1  UNL1       -0.2691
     28 C           3.4206    0.5385   33.0104 C.3     1  UNL1        0.0897
     29 C           2.3215    1.3739   32.4238 C.3     1  UNL1        0.0899
     30 N           1.7344    1.0128   31.0915 N.3     1  UNL1       -0.2665
     31 C           2.2466   -0.1838   30.3458 C.3     1  UNL1        0.0899
     32 C           3.3457   -1.0191   30.9323 C.3     1  UNL1        0.0897
@<TRIPOS>BOND
     1    26    27    1
     2    27    28    1
     3    28    29    1
     4    29    30    1
     5    30    25    1
     6    25    19    1
     7    19    20   ar
     8    20    21   ar
     9    21    22   ar
    10    22     1    1
    11     1     2    2
    12     2     3    1
    13     3     4    2
    14     4     5    1
    15     5     6    2
    16     6     7    1
    17     7    10    1
    18    10    11    2
    19    11    12    1
    20    12    13    2
    21    13    14    1
    22    14    15    2
    23    15    16    1
    24    16    17    2
    25    17    18    1
    26     7     8    2
    27     8     9    1
    28    22    23   ar
    29    23    24   ar
    30    30    31    1
    31    31    32    1
    32    32    27    1
    33    24    19   ar
    34     9     1    1
    35     8     4    1
    36    18    10    1
    37    17    13    1
@<TRIPOS>MOLECULE
*****
 32 37 0 0 0
SMALL
GASTEIGER

@<TRIPOS>ATOM
      1 C           0.3640    1.9535   23.5715 C.2     1  UNL1        0.0292
      2 C          -0.5359    2.8620   22.7874 C.2     1  UNL1        0.2320
      3 N          -0.6198    2.7296   21.2956 N.2     1  UNL1       -0.0311
      4 C           0.1961    1.6887   20.5880 C.2     1  UNL1        0.3720
      5 N           0.3199    1.3252   19.1379 N.2     1  UNL1       -0.0308
      6 C           1.2963    0.1920   19.0259 C.2     1  UNL1        0.2355
      7 C           1.7759   -0.1448   20.4067 C.2     1  UNL1        0.0469
      8 C           1.0960    0.7802   21.3721 C.2     1  UNL1        0.0740
      9 C           1.1799    0.9126   22.8638 C.3     1  UNL1        0.0645
     10 C           2.7624   -1.2182   20.7600 C.2     1  UNL1       -0.0140
     11 C           3.1895   -2.2149   19.7237 C.2     1  UNL1       -0.0023
     12 C           4.1760   -3.2883   20.0771 C.2     1  UNL1        0.0185
     13 C           4.7352   -3.3649   21.4668 C.2     1  UNL1        0.0777
     14 N           5.7159   -4.3043   22.1036 N.2     1  UNL1       -0.2442
     15 C           5.8949   -3.8882   23.5336 C.2     1  UNL1        0.0985
     16 C           5.0248   -2.6916   23.7805 C.2     1  UNL1        0.0182
     17 C           4.3081   -2.3682   22.5031 C.2     1  UNL1        0.0014
     18 C           3.3216   -1.2948   22.1497 C.3     1  UNL1        0.0543
     19 C           0.6159    2.3506   28.0469 C.ar    1  UNL1       -0.0061
     20 C           1.7840    2.7441   27.1921 C.ar    1  UNL1       -0.0029
     21 C           1.7000    2.6117   25.7003 C.ar    1  UNL1       -0.0005
     22 C           0.4479    2.0858   25.0633 C.ar    1  UNL1        0.0000
     23 C          -0.7202    1.6923   25.9181 C.ar    1  UNL1       -0.0005
     24 C          -0.6362    1.8247   27.4099 C.ar    1  UNL1       -0.0029
     25 C           0.6999    2.4830   29.5387 C.3     1  UNL1        0.0992
     26 C           4.0087   -1.3874   32.7122 C.3     1  UNL1        0.0897
     27 N           3.1815   -0.4198   31.9189 N.3     1  UNL1       -0.2691
     28 C           2.7046   -0.7906   30.5459 C.3     1  UNL1        0.0897
     29 C           1.8774    0.1770   29.7525 C.3     1  UNL1        0.0899
     30 N           1.5271    1.5154   30.3320 N.3     1  UNL1       -0.2665
     31 C           2.0040    1.8862   31.7050 C.3     1  UNL1        0.0899
     32 C           2.8312    0.9186   32.4984 C.3     1  UNL1        0.0897
@<TRIPOS>BOND
     1    26    27    1
     2    27    28    1
     3    28    29    1
     4    29    30    1
     5    30    25    1
     6    25    19    1
     7    19    20   ar
     8    20    21   ar
     9    21    22   ar
    10    22     1    1
    11     1     2    2
    12     2     3    1
    13     3     4    2
    14     4     5    1
    15     5     6    2
    16     6     7    1
    17     7    10    1
    18    10    11    2
    19    11    12    1
    20    12    13    2
    21    13    14    1
    22    14    15    2
    23    15    16    1
    24    16    17    2
    25    17    18    1
    26     7     8    2
    27     8     9    1
    28    22    23   ar
    29    23    24   ar
    30    30    31    1
    31    31    32    1
    32    32    27    1
    33    24    19   ar
    34     9     1    1
    35     8     4    1
    36    18    10    1
    37    17    13    1
@<TRIPOS>MOLECULE
*****
 32 37 0 0 0
SMALL
GASTEIGER

@<TRIPOS>ATOM
      1 C           0.3606    1.5762   22.5621 C.2     1  UNL1        0.0292
      2 C          -0.4272    2.6472   21.8677 C.2     1  UNL1        0.2320
      3 N          -1.2172    3.6373   22.6711 N.2     1  UNL1       -0.0311
      4 C          -1.2194    3.5564   24.1689 C.2     1  UNL1        0.3720
      5 N          -1.8979    4.3866   25.2180 N.2     1  UNL1       -0.0308
      6 C          -1.5294    3.8286   26.5607 C.2     1  UNL1        0.2355
      7 C          -0.6233    2.6536   26.3415 C.2     1  UNL1        0.0469
      8 C          -0.4317    2.4853   24.8633 C.2     1  UNL1        0.0740
      9 C           0.3583    1.4952   24.0599 C.3     1  UNL1        0.0645
     10 C          -0.0154    1.7971   27.4124 C.2     1  UNL1       -0.0140
     11 C          -0.7938    0.6519   27.9889 C.2     1  UNL1       -0.0023
     12 C          -0.1860   -0.2046   29.0599 C.2     1  UNL1        0.0185
     13 C           1.2004    0.0841   29.5543 C.2     1  UNL1        0.0777
     14 N           2.0549   -0.5815   30.5920 N.2     1  UNL1       -0.2442
     15 C           3.3615    0.1524   30.6569 C.2     1  UNL1        0.0985
     16 C           3.3145    1.2715   29.6592 C.2     1  UNL1        0.0182
     17 C           1.9789    1.2294   28.9778 C.2     1  UNL1        0.0014
     18 C           1.3710    2.0858   27.9069 C.3     1  UNL1        0.0543
     19 C           2.7306   -1.3943   20.1518 C.ar    1  UNL1       -0.0061
     20 C           1.4662   -0.8129   19.5922 C.ar    1  UNL1       -0.0029
     21 C           0.6762    0.1773   20.3956 C.ar    1  UNL1       -0.0005
     22 C           1.1506    0.5860   21.7586 C.ar    1  UNL1        0.0000
     23 C           2.4150    0.0046   22.3182 C.ar    1  UNL1       -0.0005
     24 C           3.2051   -0.9856   21.5148 C.ar    1  UNL1       -0.0029
     25 C           3.5206   -2.3845   19.3483 C.3     1  UNL1        0.0992
     26 C           9.5168   -2.1758   19.3863 C.3     1  UNL1        0.0897
     27 N           8.0178   -2.2280   19.3768 N.3     1  UNL1       -0.2691
     28 C           7.2384   -1.2448   18.5548 C.3     1  UNL1        0.0897
     29 C           5.7392   -1.2970   18.5453 C.3     1  UNL1        0.0899
     30 N           5.0196   -2.3323   19.3578 N.3     1  UNL1       -0.2665
     31 C           5.7992   -3.3155   20.1799 C.3     1  UNL1        0.0899
     32 C           7.2982   -3.2633   20.1894 C.3     1  UNL1        0.0897
@<TRIPOS>BOND
     1    26    27    1
     2    27    28    1
     3    28    29    1
     4    29    30    1
     5    30    25    1
     6    25    19    1
     7    19    20   ar
     8    20    21   ar
     9    21    22   ar
    10    22     1    1
    11     1     2    2
    12     2     3    1
    13     3     4    2
    14     4     5    1
    15     5     6    2
    16     6     7    1
    17     7    10    1
    18    10    11    2
    19    11    12    1
    20    12    13    2
    21    13    14    1
    22    14    15    2
    23    15    16    1
    24    16    17    2
    25    17    18    1
    26     7     8    2
    27     8     9    1
    28    22    23   ar
    29    23    24   ar
    30    30    31    1
    31    31    32    1
    32    32    27    1
    33    24    19   ar
    34     9     1    1
    35     8     4    1
    36    18    10    1
    37    17    13    1
@<TRIPOS>MOLECULE
*****
 32 37 0 0 0
SMALL
GASTEIGER

@<TRIPOS>ATOM
      1 C           0.4746    1.6710   24.8860 C.2     1  UNL1        0.0292
      2 C          -0.4562    2.7701   24.4670 C.2     1  UNL1        0.2320
      3 N          -0.7140    3.0199   23.0106 N.2     1  UNL1       -0.0311
      4 C          -0.0412    2.1707   21.9733 C.2     1  UNL1        0.3720
      5 N          -0.1010    2.1812   20.4745 N.2     1  UNL1       -0.0308
      6 C           0.7929    1.0886   19.9673 C.2     1  UNL1        0.2355
      7 C           1.4051    0.4028   21.1526 C.2     1  UNL1        0.0469
      8 C           0.8896    1.0716   22.3924 C.2     1  UNL1        0.0740
      9 C           1.1475    0.8218   23.8488 C.3     1  UNL1        0.0645
     10 C           2.3643   -0.7494   21.1063 C.2     1  UNL1       -0.0140
     11 C           3.1874   -1.0891   22.3134 C.2     1  UNL1       -0.0023
     12 C           4.1467   -2.2413   22.2671 C.2     1  UNL1        0.0185
     13 C           4.2828   -3.0540   21.0137 C.2     1  UNL1        0.0777
     14 N           5.1387   -4.2378   20.6730 N.2     1  UNL1       -0.2442
     15 C           4.8445   -4.6298   19.2554 C.2     1  UNL1        0.0985
     16 C           3.8068   -3.6883   18.7199 C.2     1  UNL1        0.0182
     17 C           3.4597   -2.7143   19.8066 C.2     1  UNL1        0.0014
     18 C           2.5005   -1.5621   19.8529 C.3     1  UNL1        0.0543
     19 C           1.2484    0.9215   29.2553 C.ar    1  UNL1       -0.0061
     20 C           2.3694    1.3577   28.3590 C.ar    1  UNL1       -0.0029
     21 C           2.1115    1.6075   26.9027 C.ar    1  UNL1       -0.0005
     22 C           0.7325    1.4212   26.3425 C.ar    1  UNL1        0.0000
     23 C          -0.3884    0.9850   27.2386 C.ar    1  UNL1       -0.0005
     24 C          -0.1305    0.7351   28.6951 C.ar    1  UNL1       -0.0029
     25 C           1.5064    0.6717   30.7116 C.3     1  UNL1        0.0992
     26 C           0.9862    5.1568   34.6629 C.3     1  UNL1        0.0897
     27 N           1.1162    4.0355   33.6751 N.3     1  UNL1       -0.2691
     28 C           0.3437    4.0748   32.3900 C.3     1  UNL1        0.0897
     29 C           0.4737    2.9535   31.4021 C.3     1  UNL1        0.0899
     30 N           1.3763    1.7929   31.6994 N.3     1  UNL1       -0.2665
     31 C           2.1489    1.7537   32.9846 C.3     1  UNL1        0.0899
     32 C           2.0188    2.8749   33.9724 C.3     1  UNL1        0.0897
@<TRIPOS>BOND
     1    26    27    1
     2    27    28    1
     3    28    29    1
     4    29    30    1
     5    30    25    1
     6    25    19    1
     7    19    20   ar
     8    20    21   ar
     9    21    22   ar
    10    22     1    1
    11     1     2    2
    12     2     3    1
    13     3     4    2
    14     4     5    1
    15     5     6    2
    16     6     7    1
    17     7    10    1
    18    10    11    2
    19    11    12    1
    20    12    13    2
    21    13    14    1
    22    14    15    2
    23    15    16    1
    24    16    17    2
    25    17    18    1
    26     7     8    2
    27     8     9    1
    28    22    23   ar
    29    23    24   ar
    30    30    31    1
    31    31    32    1
    32    32    27    1
    33    24    19   ar
    34     9     1    1
    35     8     4    1
    36    18    10    1
    37    17    13    1
@<TRIPOS>MOLECULE
*****
 32 37 0 0 0
SMALL
GASTEIGER

@<TRIPOS>ATOM
      1 C           7.0981   -2.9362   21.0012 C.2     1  UNL1        0.0292
      2 C           8.2887   -3.0463   20.0957 C.2     1  UNL1        0.2320
      3 N           8.2859   -2.3533   18.7654 N.2     1  UNL1       -0.0311
      4 C           7.0924   -1.5502   18.3407 C.2     1  UNL1        0.3720
      5 N           6.8034   -0.7627   17.0971 N.2     1  UNL1       -0.0308
      6 C           5.4342   -0.1658   17.2341 C.2     1  UNL1        0.2355
      7 C           4.8768   -0.5844   18.5624 C.2     1  UNL1        0.0469
      8 C           5.9017   -1.4400   19.2462 C.2     1  UNL1        0.0740
      9 C           5.9045   -2.1330   20.5765 C.3     1  UNL1        0.0645
     10 C           3.5310   -0.2127   19.1105 C.2     1  UNL1       -0.0140
     11 C           2.7323   -1.2192   19.8844 C.2     1  UNL1       -0.0023
     12 C           1.3864   -0.8476   20.4325 C.2     1  UNL1        0.0185
     13 C           0.8392    0.5307   20.2068 C.2     1  UNL1        0.0777
     14 N          -0.4471    1.1805   20.6230 N.2     1  UNL1       -0.2442
     15 C          -0.4433    2.5887   20.1063 C.2     1  UNL1        0.0985
     16 C           0.8452    2.8092   19.3708 C.2     1  UNL1        0.0182
     17 C           1.6379    1.5372   19.4329 C.2     1  UNL1        0.0014
     18 C           2.9838    1.1655   18.8848 C.3     1  UNL1        0.0543
     19 C           7.1064   -5.0152   24.9923 C.ar    1  UNL1       -0.0061
     20 C           6.2038   -3.8396   24.7608 C.ar    1  UNL1       -0.0029
     21 C           6.2011   -3.1467   23.4305 C.ar    1  UNL1       -0.0005
     22 C           7.1008   -3.6292   22.3316 C.ar    1  UNL1        0.0000
     23 C           8.0034   -4.8047   22.5630 C.ar    1  UNL1       -0.0005
     24 C           8.0062   -5.4977   23.8934 C.ar    1  UNL1       -0.0029
     25 C           7.1092   -5.7081   26.3226 C.3     1  UNL1        0.0992
     26 C           8.1824   -2.5829   31.3307 C.3     1  UNL1        0.0897
     27 N           7.9141   -3.3642   30.0787 N.3     1  UNL1       -0.2691
     28 C           6.7511   -4.3096   30.0193 C.3     1  UNL1        0.0897
     29 C           6.4827   -5.0909   28.7673 C.3     1  UNL1        0.0899
     30 N           7.3775   -4.9268   27.5746 N.3     1  UNL1       -0.2665
     31 C           8.5405   -3.9814   27.6340 C.3     1  UNL1        0.0899
     32 C           8.8088   -3.2001   28.8860 C.3     1  UNL1        0.0897
@<TRIPOS>BOND
     1    26    27    1
     2    27    28    1
     3    28    29    1
     4    29    30    1
     5    30    25    1
     6    25    19    1
     7    19    20   ar
     8    20    21   ar
     9    21    22   ar
    10    22     1    1
    11     1     2    2
    12     2     3    1
    13     3     4    2
    14     4     5    1
    15     5     6    2
    16     6     7    1
    17     7    10    1
    18    10    11    2
    19    11    12    1
    20    12    13    2
    21    13    14    1
    22    14    15    2
    23    15    16    1
    24    16    17    2
    25    17    18    1
    26     7     8    2
    27     8     9    1
    28    22    23   ar
    29    23    24   ar
    30    30    31    1
    31    31    32    1
    32    32    27    1
    33    24    19   ar
    34     9     1    1
    35     8     4    1
    36    18    10    1
    37    17    13    1
@<TRIPOS>MOLECULE
*****
 32 37 0 0 0
SMALL
GASTEIGER

@<TRIPOS>ATOM
      1 C           1.9687    1.2422   24.4860 C.2     1  UNL1        0.0292
      2 C           0.7529    2.0722   24.7738 C.2     1  UNL1        0.2320
      3 N          -0.2037    2.4095   23.6688 N.2     1  UNL1       -0.0311
      4 C           0.0555    1.9167   22.2759 C.2     1  UNL1        0.3720
      5 N          -0.7033    2.0879   20.9933 N.2     1  UNL1       -0.0308
      6 C           0.0437    1.3636   19.9128 C.2     1  UNL1        0.2355
      7 C           1.2640    0.7449   20.5276 C.2     1  UNL1        0.0469
      8 C           1.2713    1.0867   21.9881 C.2     1  UNL1        0.0740
      9 C           2.2279    0.7495   23.0931 C.3     1  UNL1        0.0645
     10 C           2.2959   -0.0722   19.8083 C.2     1  UNL1       -0.0140
     11 C           3.1267    0.5522   18.7267 C.2     1  UNL1       -0.0023
     12 C           4.1586   -0.2649   18.0073 C.2     1  UNL1        0.0185
     13 C           4.3598   -1.7065   18.3696 C.2     1  UNL1        0.0777
     14 N           5.2935   -2.7538   17.8393 N.2     1  UNL1       -0.2442
     15 C           5.0399   -4.0255   18.5931 C.2     1  UNL1        0.0985
     16 C           3.9494   -3.7642   19.5893 C.2     1  UNL1        0.0182
     17 C           3.5290   -2.3310   19.4511 C.2     1  UNL1        0.0014
     18 C           2.4971   -1.5139   20.1705 C.3     1  UNL1        0.0543
     19 C           4.8387    0.2304   27.8011 C.ar    1  UNL1       -0.0061
     20 C           5.3588    0.5607   26.4334 C.ar    1  UNL1       -0.0029
     21 C           4.4022    0.8980   25.3285 C.ar    1  UNL1       -0.0005
     22 C           2.9253    0.9049   25.5911 C.ar    1  UNL1        0.0000
     23 C           2.4052    0.5746   26.9586 C.ar    1  UNL1       -0.0005
     24 C           3.3619    0.2373   28.0637 C.ar    1  UNL1       -0.0029
     25 C           5.7953   -0.1069   28.9060 C.3     1  UNL1        0.0992
     26 C           7.0395   -5.8431   30.1502 C.3     1  UNL1        0.0897
     27 N           6.7285   -4.4091   29.8392 N.3     1  UNL1       -0.2691
     28 C           6.8144   -3.3717   30.9192 C.3     1  UNL1        0.0897
     29 C           6.5034   -1.9376   30.6082 C.3     1  UNL1        0.0899
     30 N           6.1064   -1.5409   29.2171 N.3     1  UNL1       -0.2665
     31 C           6.0204   -2.5784   28.1371 C.3     1  UNL1        0.0899
     32 C           6.3314   -4.0124   28.4481 C.3     1  UNL1        0.0897
@<TRIPOS>BOND
     1    26    27    1
     2    27    28    1
     3    28    29    1
     4    29    30    1
     5    30    25    1
     6    25    19    1
     7    19    20   ar
     8    20    21   ar
     9    21    22   ar
    10    22     1    1
    11     1     2    2
    12     2     3    1
    13     3     4    2
    14     4     5    1
    15     5     6    2
    16     6     7    1
    17     7    10    1
    18    10    11    2
    19    11    12    1
    20    12    13    2
    21    13    14    1
    22    14    15    2
    23    15    16    1
    24    16    17    2
    25    17    18    1
    26     7     8    2
    27     8     9    1
    28    22    23   ar
    29    23    24   ar
    30    30    31    1
    31    31    32    1
    32    32    27    1
    33    24    19   ar
    34     9     1    1
    35     8     4    1
    36    18    10    1
    37    17    13    1
@<TRIPOS>MOLECULE
*****
 32 37 0 0 0
SMALL
GASTEIGER

@<TRIPOS>ATOM
      1 C           4.8489   -2.5221   23.7254 C.2     1  UNL1        0.0292
      2 C           5.6623   -3.7408   23.4047 C.2     1  UNL1        0.2320
      3 N           5.7013   -4.2685   22.0011 N.2     1  UNL1       -0.0311
      4 C           4.9269   -3.5774   20.9183 C.2     1  UNL1        0.3720
      5 N           4.7744   -3.8643   19.4538 N.2     1  UNL1       -0.0308
      6 C           3.8668   -2.8228   18.8695 C.2     1  UNL1        0.2355
      7 C           3.4583   -1.8922   19.9728 C.2     1  UNL1        0.0469
      8 C           4.1135   -2.3586   21.2390 C.2     1  UNL1        0.0740
      9 C           4.0745   -1.8309   22.6425 C.3     1  UNL1        0.0645
     10 C           2.5535   -0.7039   19.8342 C.2     1  UNL1       -0.0140
     11 C           1.1512   -0.7632   20.3633 C.2     1  UNL1       -0.0023
     12 C           0.2464    0.4252   20.2247 C.2     1  UNL1        0.0185
     13 C           0.7439    1.6728   19.5570 C.2     1  UNL1        0.0777
     14 N           0.0870    2.9920   19.2777 N.2     1  UNL1       -0.2442
     15 C           1.0833    3.8667   18.5761 C.2     1  UNL1        0.0985
     16 C           2.3560    3.0880   18.4216 C.2     1  UNL1        0.0182
     17 C           2.1462    1.7321   19.0279 C.2     1  UNL1        0.0014
     18 C           3.0510    0.5438   19.1665 C.3     1  UNL1        0.0543
     19 C           4.7318   -0.9389   27.9361 C.ar    1  UNL1       -0.0061
     20 C           3.6601   -0.5537   26.9599 C.ar    1  UNL1       -0.0029
     21 C           3.6991   -1.0814   25.5564 C.ar    1  UNL1       -0.0005
     22 C           4.8099   -1.9943   25.1290 C.ar    1  UNL1        0.0000
     23 C           5.8816   -2.3796   26.1051 C.ar    1  UNL1       -0.0005
     24 C           5.8426   -1.8518   27.5088 C.ar    1  UNL1       -0.0029
     25 C           4.6928   -0.4112   29.3397 C.3     1  UNL1        0.0992
     26 C           9.0376   -1.8657   33.2134 C.3     1  UNL1        0.0897
     27 N           7.9515   -1.5021   32.2450 N.3     1  UNL1       -0.2691
     28 C           6.7063   -2.3348   32.1673 C.3     1  UNL1        0.0897
     29 C           5.6200   -1.9712   31.1988 C.3     1  UNL1        0.0899
     30 N           5.7790   -0.7748   30.3081 N.3     1  UNL1       -0.2665
     31 C           7.0242    0.0580   30.3859 C.3     1  UNL1        0.0899
     32 C           8.1104   -0.3057   31.3543 C.3     1  UNL1        0.0897
@<TRIPOS>BOND
     1    26    27    1
     2    27    28    1
     3    28    29    1
     4    29    30    1
     5    30    25    1
     6    25    19    1
     7    19    20   ar
     8    20    21   ar
     9    21    22   ar
    10    22     1    1
    11     1     2    2
    12     2     3    1
    13     3     4    2
    14     4     5    1
    15     5     6    2
    16     6     7    1
    17     7    10    1
    18    10    11    2
    19    11    12    1
    20    12    13    2
    21    13    14    1
    22    14    15    2
    23    15    16    1
    24    16    17    2
    25    17    18    1
    26     7     8    2
    27     8     9    1
    28    22    23   ar
    29    23    24   ar
    30    30    31    1
    31    31    32    1
    32    32    27    1
    33    24    19   ar
    34     9     1    1
    35     8     4    1
    36    18    10    1
    37    17    13    1
@<TRIPOS>MOLECULE
*****
 32 37 0 0 0
SMALL
GASTEIGER

@<TRIPOS>ATOM
      1 C           5.9036   -2.0576   22.1608 C.2     1  UNL1        0.0292
      2 C           6.9069   -2.9342   21.4717 C.2     1  UNL1        0.2320
      3 N           6.8394   -3.1265   19.9856 N.2     1  UNL1       -0.0311
      4 C           5.7687   -2.4420   19.1886 C.2     1  UNL1        0.3720
      5 N           5.4538   -2.4427   17.7220 N.2     1  UNL1       -0.0308
      6 C           4.2559   -1.5665   17.5048 C.2     1  UNL1        0.2355
      7 C           3.8305   -1.0243   18.8371 C.2     1  UNL1        0.0469
      8 C           4.7654   -1.5654   19.8777 C.2     1  UNL1        0.0740
      9 C           4.8329   -1.3732   21.3638 C.3     1  UNL1        0.0645
     10 C           2.6732   -0.1027   19.0852 C.2     1  UNL1       -0.0140
     11 C           1.5213   -0.5564   19.9319 C.2     1  UNL1       -0.0023
     12 C           0.3640    0.3651   20.1800 C.2     1  UNL1        0.0185
     13 C           0.3588    1.7405   19.5814 C.2     1  UNL1        0.0777
     14 N          -0.6355    2.8614   19.6505 N.2     1  UNL1       -0.2442
     15 C          -0.0980    4.0080   18.8465 C.2     1  UNL1        0.0985
     16 C           1.2285    3.5956   18.2805 C.2     1  UNL1        0.0182
     17 C           1.5108    2.1942   18.7346 C.2     1  UNL1        0.0014
     18 C           2.6680    1.2726   18.4865 C.3     1  UNL1        0.0543
     19 C           6.1058   -1.4808   26.6192 C.ar    1  UNL1       -0.0061
     20 C           4.7777   -1.6625   25.9458 C.ar    1  UNL1       -0.0029
     21 C           4.7104   -1.8548   24.4597 C.ar    1  UNL1       -0.0005
     22 C           5.9710   -1.8653   23.6469 C.ar    1  UNL1        0.0000
     23 C           7.2990   -1.6837   24.3202 C.ar    1  UNL1       -0.0005
     24 C           7.3664   -1.4914   25.8063 C.ar    1  UNL1       -0.0029
     25 C           6.1732   -1.2886   28.1052 C.3     1  UNL1        0.0992
     26 C           7.0662   -6.0065   31.7029 C.3     1  UNL1        0.0897
     27 N           6.8429   -4.8270   30.8035 N.3     1  UNL1       -0.2691
     28 C           6.7293   -3.4499   31.3869 C.3     1  UNL1        0.0897
     29 C           6.5060   -2.2703   30.4875 C.3     1  UNL1        0.0899
     30 N           6.3964   -2.4680   29.0046 N.3     1  UNL1       -0.2665
     31 C           6.5101   -3.8453   28.4212 C.3     1  UNL1        0.0899
     32 C           6.7333   -5.0247   29.3206 C.3     1  UNL1        0.0897
@<TRIPOS>BOND
     1    26    27    1
     2    27    28    1
     3    28    29    1
     4    29    30    1
     5    30    25    1
     6    25    19    1
     7    19    20   ar
     8    20    21   ar
     9    21    22   ar
    10    22     1    1
    11     1     2    2
    12     2     3    1
    13     3     4    2
    14     4     5    1
    15     5     6    2
    16     6     7    1
    17     7    10    1
    18    10    11    2
    19    11    12    1
    20    12    13    2
    21    13    14    1
    22    14    15    2
    23    15    16    1
    24    16    17    2
    25    17    18    1
    26     7     8    2
    27     8     9    1
    28    22    23   ar
    29    23    24   ar
    30    30    31    1
    31    31    32    1
    32    32    27    1
    33    24    19   ar
    34     9     1    1
    35     8     4    1
    36    18    10    1
    37    17    13    1
@<TRIPOS>MOLECULE
*****
 32 37 0 0 0
SMALL
GASTEIGER

@<TRIPOS>ATOM
      1 C          -0.3063    2.4545   23.1194 C.2     1  UNL1        0.0292
      2 C          -1.2293    3.5543   22.6856 C.2     1  UNL1        0.2320
      3 N          -1.3455    3.9062   21.2321 N.2     1  UNL1       -0.0311
      4 C          -0.5387    3.1582   20.2125 C.2     1  UNL1        0.3720
      5 N          -0.4448    3.2806   18.7204 N.2     1  UNL1       -0.0308
      6 C           0.5362    2.2564   18.2321 C.2     1  UNL1        0.2355
      7 C           1.0486    1.5010   19.4224 C.2     1  UNL1        0.0469
      8 C           0.3843    2.0583   20.6463 C.2     1  UNL1        0.0740
      9 C           0.5005    1.7065   22.0998 C.3     1  UNL1        0.0645
     10 C           2.0497    0.3843   19.3939 C.2     1  UNL1       -0.0140
     11 C           1.7843   -0.8806   20.1552 C.2     1  UNL1       -0.0023
     12 C           2.7853   -1.9973   20.1266 C.2     1  UNL1        0.0185
     13 C           4.0519   -1.8492   19.3367 C.2     1  UNL1        0.0777
     14 N           5.2149   -2.7719   19.1226 N.2     1  UNL1       -0.2442
     15 C           6.1992   -2.0773   18.2289 C.2     1  UNL1        0.0985
     16 C           5.6445   -0.7253   17.8907 C.2     1  UNL1        0.0182
     17 C           4.3173   -0.5843   18.5754 C.2     1  UNL1        0.0014
     18 C           3.3162    0.5324   18.6040 C.3     1  UNL1        0.0543
     19 C           0.0425    1.3987   27.4800 C.ar    1  UNL1       -0.0061
     20 C          -1.1353    2.1888   26.9914 C.ar    1  UNL1       -0.0029
     21 C          -1.2515    2.5407   25.5379 C.ar    1  UNL1       -0.0005
     22 C          -0.1900    2.1025   24.5730 C.ar    1  UNL1        0.0000
     23 C           0.9877    1.3124   25.0614 C.ar    1  UNL1       -0.0005
     24 C           1.1040    0.9605   26.5150 C.ar    1  UNL1       -0.0029
     25 C           0.1587    1.0468   28.9334 C.3     1  UNL1        0.0992
     26 C           5.5716    0.4684   31.4564 C.3     1  UNL1        0.0897
     27 N           4.2184    0.6130   30.8257 N.3     1  UNL1       -0.2691
     28 C           3.4053   -0.6065   30.5071 C.3     1  UNL1        0.0897
     29 C           2.0520   -0.4619   29.8763 C.3     1  UNL1        0.0899
     30 N           1.5119    0.9022   29.5642 N.3     1  UNL1       -0.2665
     31 C           2.3251    2.1218   29.8828 C.3     1  UNL1        0.0899
     32 C           3.6783    1.9772   30.5135 C.3     1  UNL1        0.0897
@<TRIPOS>BOND
     1    26    27    1
     2    27    28    1
     3    28    29    1
     4    29    30    1
     5    30    25    1
     6    25    19    1
     7    19    20   ar
     8    20    21   ar
     9    21    22   ar
    10    22     1    1
    11     1     2    2
    12     2     3    1
    13     3     4    2
    14     4     5    1
    15     5     6    2
    16     6     7    1
    17     7    10    1
    18    10    11    2
    19    11    12    1
    20    12    13    2
    21    13    14    1
    22    14    15    2
    23    15    16    1
    24    16    17    2
    25    17    18    1
    26     7     8    2
    27     8     9    1
    28    22    23   ar
    29    23    24   ar
    30    30    31    1
    31    31    32    1
    32    32    27    1
    33    24    19   ar
    34     9     1    1
    35     8     4    1
    36    18    10    1
    37    17    13    1
