@<TRIPOS>MOLECULE
*****
 32 35 0 0 0
SMALL
GASTEIGER

@<TRIPOS>ATOM
      1 C          -9.6879  -18.9853   20.8535 C.ar    1  UNL1        0.0289
      2 C          -8.2439  -18.5822   20.8035 C.ar    1  UNL1        0.0145
      3 C          -7.4188  -18.8975   19.5912 C.ar    1  UNL1        0.0505
      4 C          -8.0376  -19.6160   18.4289 C.ar    1  UNL1        0.0170
      5 C          -9.4815  -20.0191   18.4789 C.ar    1  UNL1        0.0306
      6 C         -10.3067  -19.7037   19.6912 C.ar    1  UNL1        0.1380
      7 F         -11.7506  -20.1068   19.7412 F       1  UNL1       -0.2044
      8 C         -10.0257  -21.1091   25.8159 C.3     1  UNL1        0.0320
      9 C         -10.1881  -20.2961   24.5659 C.3     1  UNL1        0.1155
     10 C         -11.1757  -19.1677   24.5281 C.3     1  UNL1        0.0327
     11 C         -11.3381  -18.3546   23.2781 C.3     1  UNL1        0.0407
     12 C         -12.3257  -17.2262   23.2404 C.3     1  UNL1        0.0672
     13 S         -12.4881  -16.4131   21.9904 S.3     1  UNL1       -0.0807
     14 C         -11.6629  -16.7285   20.7780 C.2     1  UNL1        0.1482
     15 N         -11.8253  -15.9155   19.5280 N.pl3   1  UNL1       -0.3380
     16 N         -10.6754  -17.8569   20.8158 N.2     1  UNL1       -0.2484
     17 C         -10.5130  -18.6700   22.0658 C.3     1  UNL1        0.1352
     18 C          -9.5255  -19.7983   22.1035 C.3     1  UNL1        0.1685
     19 O          -9.3630  -20.6114   23.3536 O.3     1  UNL1       -0.3539
     20 H         -12.4735  -15.1749   19.5032 H       1  UNL1        0.1442
     21 H         -11.2838  -16.1225   18.7323 H       1  UNL1        0.1442
     22 N          -5.9747  -18.4944   19.5411 N.am    1  UNL1       -0.2791
     23 C          -4.9569  -19.2504   20.3427 C.2     1  UNL1        0.2672
     24 O          -5.3830  -20.4094   21.1942 O.2     1  UNL1       -0.2682
     25 H          -5.6951  -17.7338   18.9822 H       1  UNL1        0.1552
     26 C          -3.5129  -18.8473   20.2926 C.ar    1  UNL1        0.1348
     27 C          -2.5972  -19.1959   21.4284 C.ar    1  UNL1        0.0246
     28 C          -1.1532  -18.7928   21.3784 C.ar    1  UNL1        0.0147
     29 C          -0.6250  -18.0412   20.1926 C.ar    1  UNL1        0.0768
     30 CL          0.8190  -17.6382   20.1425 Cl      1  UNL1       -0.0806
     31 C          -1.5407  -17.6927   19.0568 C.ar    1  UNL1        0.1103
     32 N          -2.9847  -18.0958   19.1069 N.ar    1  UNL1       -0.2384
@<TRIPOS>BOND
     1     9     8    1
     2     9    10    1
     3    11    10    1
     4    11    12    1
     5    12    13    1
     6    13    14    1
     7    14    15    1
     8    14    16    2
     9    16    17    1
    10    17     1    1
    11     1     2   ar
    12     2     3   ar
    13     3    22    1
    14    22    23   am
    15    23    24    2
    16    23    26    1
    17    26    27   ar
    18    27    28   ar
    19    28    29   ar
    20    29    30    1
    21    29    31   ar
    22    31    32   ar
    23     3     4   ar
    24     4     5   ar
    25     5     6   ar
    26     6     7    1
    27    17    18    1
    28    18    19    1
    29    19     9    1
    30    17    11    1
    31     6     1   ar
    32    32    26   ar
    33    15    20    1
    34    15    21    1
    35    22    25    1
@<TRIPOS>MOLECULE
*****
 32 35 0 0 0
SMALL
GASTEIGER

@<TRIPOS>ATOM
      1 C           2.9239   -0.2747   20.9469 C.ar    1  UNL1        0.0289
      2 C           1.4988    0.1367   21.1705 C.ar    1  UNL1        0.0145
      3 C           0.8717    1.1771   20.2906 C.ar    1  UNL1        0.0505
      4 C           1.6695    1.8060   19.1870 C.ar    1  UNL1        0.0170
      5 C           3.0945    1.3946   18.9633 C.ar    1  UNL1        0.0306
      6 C           3.7217    0.3542   19.8432 C.ar    1  UNL1        0.1380
      7 F           5.1467   -0.0572   19.6195 F       1  UNL1       -0.2044
      8 C           3.9822   -0.5644   26.2427 C.3     1  UNL1        0.0320
      9 C           3.8385   -0.8146   24.7707 C.3     1  UNL1        0.1155
     10 C           4.3220   -2.1052   24.1786 C.3     1  UNL1        0.0327
     11 C           4.1783   -2.3554   22.7066 C.3     1  UNL1        0.0407
     12 C           4.6618   -3.6461   22.1146 C.3     1  UNL1        0.0672
     13 S           4.5181   -3.8963   20.6426 S.3     1  UNL1       -0.0807
     14 C           3.8909   -2.8559   19.7627 C.2     1  UNL1        0.1482
     15 N           3.7472   -3.1061   18.2907 N.pl3   1  UNL1       -0.3380
     16 N           3.4074   -1.5653   20.3548 N.2     1  UNL1       -0.2484
     17 C           3.5511   -1.3151   21.8268 C.3     1  UNL1        0.1352
     18 C           3.0676   -0.0245   22.4188 C.3     1  UNL1        0.1685
     19 O           3.2113    0.2257   23.8908 O.3     1  UNL1       -0.3539
     20 H           4.0645   -3.9532   17.9021 H       1  UNL1        0.1442
     21 H           3.3355   -2.4233   17.7132 H       1  UNL1        0.1442
     22 N          -0.5534    1.5886   20.5143 N.am    1  UNL1       -0.2791
     23 C          -0.8618    2.8206   21.3124 C.2     1  UNL1        0.2672
     24 O           0.2548    3.6412   21.8867 O.2     1  UNL1       -0.2682
     25 H          -1.2863    1.0500   20.1373 H       1  UNL1        0.1552
     26 C          -2.2868    3.2321   21.5361 C.ar    1  UNL1        0.1348
     27 C          -2.6717    3.9480   22.7968 C.ar    1  UNL1        0.0246
     28 C          -4.0966    4.3595   23.0205 C.ar    1  UNL1        0.0147
     29 C          -5.1368    4.0551   21.9834 C.ar    1  UNL1        0.0768
     30 CL         -6.5618    4.4666   22.2071 Cl      1  UNL1       -0.0806
     31 C          -4.7520    3.3392   20.7227 C.ar    1  UNL1        0.1103
     32 N          -3.3269    2.9277   20.4990 N.ar    1  UNL1       -0.2384
@<TRIPOS>BOND
     1     9     8    1
     2     9    10    1
     3    11    10    1
     4    11    12    1
     5    12    13    1
     6    13    14    1
     7    14    15    1
     8    14    16    2
     9    16    17    1
    10    17     1    1
    11     1     2   ar
    12     2     3   ar
    13     3    22    1
    14    22    23   am
    15    23    24    2
    16    23    26    1
    17    26    27   ar
    18    27    28   ar
    19    28    29   ar
    20    29    30    1
    21    29    31   ar
    22    31    32   ar
    23     3     4   ar
    24     4     5   ar
    25     5     6   ar
    26     6     7    1
    27    17    18    1
    28    18    19    1
    29    19     9    1
    30    17    11    1
    31     6     1   ar
    32    32    26   ar
    33    15    20    1
    34    15    21    1
    35    22    25    1
@<TRIPOS>MOLECULE
*****
 32 35 0 0 0
SMALL
GASTEIGER

@<TRIPOS>ATOM
      1 C          -1.9225    4.0697   20.7689 C.ar    1  UNL1        0.0289
      2 C          -1.0053    2.8879   20.6582 C.ar    1  UNL1        0.0145
      3 C           0.4641    3.0967   20.4411 C.ar    1  UNL1        0.0505
      4 C           1.0164    4.4872   20.3348 C.ar    1  UNL1        0.0170
      5 C           0.0993    5.6690   20.4455 C.ar    1  UNL1        0.0306
      6 C          -1.3702    5.4602   20.6626 C.ar    1  UNL1        0.1380
      7 F          -2.2873    6.6420   20.7733 F       1  UNL1       -0.2044
      8 C          -5.0211    3.5068   25.1657 C.3     1  UNL1        0.0320
      9 C          -4.4780    3.6248   23.7725 C.3     1  UNL1        0.1155
     10 C          -5.4044    3.5341   22.5962 C.3     1  UNL1        0.0327
     11 C          -4.8614    3.6521   21.2030 C.3     1  UNL1        0.0407
     12 C          -5.7878    3.5613   20.0267 C.3     1  UNL1        0.0672
     13 S          -5.2448    3.6793   18.6335 S.3     1  UNL1       -0.0807
     14 C          -3.7753    3.8881   18.4165 C.2     1  UNL1        0.1482
     15 N          -3.2322    4.0061   17.0232 N.pl3   1  UNL1       -0.3380
     16 N          -2.8489    3.9789   19.5927 N.2     1  UNL1       -0.2484
     17 C          -3.3919    3.8609   20.9859 C.3     1  UNL1        0.1352
     18 C          -2.4656    3.9516   22.1622 C.3     1  UNL1        0.1685
     19 O          -3.0086    3.8336   23.5554 O.3     1  UNL1       -0.3539
     20 H          -3.8403    3.9466   16.2512 H       1  UNL1        0.1442
     21 H          -2.2678    4.1432   16.8808 H       1  UNL1        0.1442
     22 N           1.3813    1.9149   20.3304 N.am    1  UNL1       -0.2791
     23 C           1.3937    1.0899   19.0776 C.2     1  UNL1        0.2672
     24 O           0.4889    1.4468   17.9356 O.2     1  UNL1       -0.2682
     25 H           1.9751    1.6807   21.0799 H       1  UNL1        0.1552
     26 C           2.3108   -0.0918   18.9669 C.ar    1  UNL1        0.1348
     27 C           2.3283   -1.1316   20.0478 C.ar    1  UNL1        0.0246
     28 C           3.2454   -2.3133   19.9371 C.ar    1  UNL1        0.0147
     29 C           4.1452   -2.4553   18.7452 C.ar    1  UNL1        0.0768
     30 CL          5.0623   -3.6371   18.6345 Cl      1  UNL1       -0.0806
     31 C           4.1277   -1.4155   17.6643 C.ar    1  UNL1        0.1103
     32 N           3.2106   -0.2337   17.7751 N.ar    1  UNL1       -0.2384
@<TRIPOS>BOND
     1     9     8    1
     2     9    10    1
     3    11    10    1
     4    11    12    1
     5    12    13    1
     6    13    14    1
     7    14    15    1
     8    14    16    2
     9    16    17    1
    10    17     1    1
    11     1     2   ar
    12     2     3   ar
    13     3    22    1
    14    22    23   am
    15    23    24    2
    16    23    26    1
    17    26    27   ar
    18    27    28   ar
    19    28    29   ar
    20    29    30    1
    21    29    31   ar
    22    31    32   ar
    23     3     4   ar
    24     4     5   ar
    25     5     6   ar
    26     6     7    1
    27    17    18    1
    28    18    19    1
    29    19     9    1
    30    17    11    1
    31     6     1   ar
    32    32    26   ar
    33    15    20    1
    34    15    21    1
    35    22    25    1
@<TRIPOS>MOLECULE
*****
 32 35 0 0 0
SMALL
GASTEIGER

@<TRIPOS>ATOM
      1 C           3.1733    0.1413   20.3509 C.ar    1  UNL1        0.0289
      2 C           1.7504    0.4794   20.0176 C.ar    1  UNL1        0.0145
      3 C           0.8558    1.0740   21.0645 C.ar    1  UNL1        0.0505
      4 C           1.3841    1.3306   22.4448 C.ar    1  UNL1        0.0170
      5 C           2.8069    0.9925   22.7781 C.ar    1  UNL1        0.0306
      6 C           3.7016    0.3978   21.7312 C.ar    1  UNL1        0.1380
      7 F           5.1244    0.0597   22.0645 F       1  UNL1       -0.2044
      8 C           4.3549   -4.9225   18.8639 C.3     1  UNL1        0.0320
      9 C           4.2593   -3.4328   19.0106 C.3     1  UNL1        0.1155
     10 C           5.0582   -2.5377   18.1103 C.3     1  UNL1        0.0327
     11 C           4.9625   -1.0479   18.2570 C.3     1  UNL1        0.0407
     12 C           5.7615   -0.1528   17.3567 C.3     1  UNL1        0.0672
     13 S           5.6658    1.3369   17.5034 S.3     1  UNL1       -0.0807
     14 C           4.7711    1.9315   18.5504 C.2     1  UNL1        0.1482
     15 N           4.6754    3.4213   18.6971 N.pl3   1  UNL1       -0.3380
     16 N           3.9722    1.0364   19.4507 N.2     1  UNL1       -0.2484
     17 C           4.0679   -0.4533   19.3040 C.3     1  UNL1        0.1352
     18 C           3.2690   -1.3485   20.2042 C.3     1  UNL1        0.1685
     19 O           3.3647   -2.8382   20.0575 O.3     1  UNL1       -0.3539
     20 H           5.1998    4.0088   18.1063 H       1  UNL1        0.1442
     21 H           4.0883    3.8115   19.3843 H       1  UNL1        0.1442
     22 N          -0.5671    1.4122   20.7312 N.am    1  UNL1       -0.2791
     23 C          -0.9697    2.8424   20.5256 C.2     1  UNL1        0.2672
     24 O           0.0506    3.9346   20.6533 O.2     1  UNL1       -0.2682
     25 H          -1.2368    0.6954   20.6474 H       1  UNL1        0.1552
     26 C          -2.3926    3.1806   20.1923 C.ar    1  UNL1        0.1348
     27 C          -2.7163    3.8729   18.9016 C.ar    1  UNL1        0.0246
     28 C          -4.1392    4.2111   18.5683 C.ar    1  UNL1        0.0147
     29 C          -5.2383    3.8569   19.5257 C.ar    1  UNL1        0.0768
     30 CL         -6.6612    4.1951   19.1924 Cl      1  UNL1       -0.0806
     31 C          -4.9145    3.1646   20.8164 C.ar    1  UNL1        0.1103
     32 N          -3.4916    2.8264   21.1497 N.ar    1  UNL1       -0.2384
@<TRIPOS>BOND
     1     9     8    1
     2     9    10    1
     3    11    10    1
     4    11    12    1
     5    12    13    1
     6    13    14    1
     7    14    15    1
     8    14    16    2
     9    16    17    1
    10    17     1    1
    11     1     2   ar
    12     2     3   ar
    13     3    22    1
    14    22    23   am
    15    23    24    2
    16    23    26    1
    17    26    27   ar
    18    27    28   ar
    19    28    29   ar
    20    29    30    1
    21    29    31   ar
    22    31    32   ar
    23     3     4   ar
    24     4     5   ar
    25     5     6   ar
    26     6     7    1
    27    17    18    1
    28    18    19    1
    29    19     9    1
    30    17    11    1
    31     6     1   ar
    32    32    26   ar
    33    15    20    1
    34    15    21    1
    35    22    25    1
@<TRIPOS>MOLECULE
*****
 32 35 0 0 0
SMALL
GASTEIGER

@<TRIPOS>ATOM
      1 C          -1.5293    3.7842   21.8223 C.ar    1  UNL1        0.0289
      2 C          -0.6987    2.5821   21.4826 C.ar    1  UNL1        0.0145
      3 C           0.7979    2.6818   21.4775 C.ar    1  UNL1        0.0505
      4 C           1.4641    3.9834   21.8122 C.ar    1  UNL1        0.0170
      5 C           0.6336    5.1854   22.1519 C.ar    1  UNL1        0.0306
      6 C          -0.8632    5.0858   22.1570 C.ar    1  UNL1        0.1380
      7 F          -1.6937    6.2878   22.4967 F       1  UNL1       -0.2044
      8 C          -5.2940    3.6826   17.9407 C.3     1  UNL1        0.0320
      9 C          -4.5380    3.6832   19.2362 C.3     1  UNL1        0.1155
     10 C          -5.2786    3.5842   20.5368 C.3     1  UNL1        0.0327
     11 C          -4.5226    3.5849   21.8324 C.3     1  UNL1        0.0407
     12 C          -5.2633    3.4859   23.1330 C.3     1  UNL1        0.0672
     13 S          -4.5073    3.4865   24.4286 S.3     1  UNL1       -0.0807
     14 C          -3.0106    3.5862   24.4235 C.2     1  UNL1        0.1482
     15 N          -2.2546    3.5868   25.7190 N.pl3   1  UNL1       -0.3380
     16 N          -2.2700    3.6852   23.1229 N.2     1  UNL1       -0.2484
     17 C          -3.0260    3.6845   21.8273 C.3     1  UNL1        0.1352
     18 C          -2.2853    3.7835   20.5267 C.3     1  UNL1        0.1685
     19 O          -3.0413    3.7829   19.2312 O.3     1  UNL1       -0.3539
     20 H          -2.7407    3.5218   26.5727 H       1  UNL1        0.1442
     21 H          -1.2723    3.6522   25.7157 H       1  UNL1        0.1442
     22 N           1.6285    1.4797   21.1378 N.am    1  UNL1       -0.2791
     23 C           1.7835    1.0551   19.7075 C.2     1  UNL1        0.2672
     24 O           1.1079    1.8326   18.6170 O.2     1  UNL1       -0.2682
     25 H           2.0719    0.9695   21.8536 H       1  UNL1        0.1552
     26 C           2.6140   -0.1468   19.3678 C.ar    1  UNL1        0.1348
     27 C           2.7679   -1.2579   20.3636 C.ar    1  UNL1        0.0246
     28 C           3.5985   -2.4599   20.0239 C.ar    1  UNL1        0.0147
     29 C           4.2751   -2.5508   18.6882 C.ar    1  UNL1        0.0768
     30 CL          5.1057   -3.7527   18.3485 Cl      1  UNL1       -0.0806
     31 C           4.1212   -1.4396   17.6924 C.ar    1  UNL1        0.1103
     32 N           3.2906   -0.2376   18.0322 N.ar    1  UNL1       -0.2384
@<TRIPOS>BOND
     1     9     8    1
     2     9    10    1
     3    11    10    1
     4    11    12    1
     5    12    13    1
     6    13    14    1
     7    14    15    1
     8    14    16    2
     9    16    17    1
    10    17     1    1
    11     1     2   ar
    12     2     3   ar
    13     3    22    1
    14    22    23   am
    15    23    24    2
    16    23    26    1
    17    26    27   ar
    18    27    28   ar
    19    28    29   ar
    20    29    30    1
    21    29    31   ar
    22    31    32   ar
    23     3     4   ar
    24     4     5   ar
    25     5     6   ar
    26     6     7    1
    27    17    18    1
    28    18    19    1
    29    19     9    1
    30    17    11    1
    31     6     1   ar
    32    32    26   ar
    33    15    20    1
    34    15    21    1
    35    22    25    1
@<TRIPOS>MOLECULE
*****
 32 35 0 0 0
SMALL
GASTEIGER

@<TRIPOS>ATOM
      1 C           3.5302   -0.1637   20.5670 C.ar    1  UNL1        0.0289
      2 C           2.0913    0.2226   20.3927 C.ar    1  UNL1        0.0145
      3 C           1.7235    1.3513   19.4759 C.ar    1  UNL1        0.0505
      4 C           2.7946    2.0938   18.7333 C.ar    1  UNL1        0.0170
      5 C           4.2335    1.7076   18.9075 C.ar    1  UNL1        0.0306
      6 C           4.6013    0.5788   19.8244 C.ar    1  UNL1        0.1380
      7 F           6.0402    0.1925   19.9986 F       1  UNL1       -0.2044
      8 C           3.7186   -0.7186   25.9435 C.3     1  UNL1        0.0320
      9 C           3.7784   -0.9099   24.4569 C.3     1  UNL1        0.1155
     10 C           4.2060   -2.2299   23.8872 C.3     1  UNL1        0.0327
     11 C           4.2658   -2.4212   22.4007 C.3     1  UNL1        0.0407
     12 C           4.6934   -3.7413   21.8309 C.3     1  UNL1        0.0672
     13 S           4.7532   -3.9326   20.3444 S.3     1  UNL1       -0.0807
     14 C           4.3854   -2.8038   19.4276 C.2     1  UNL1        0.1482
     15 N           4.4452   -2.9951   17.9410 N.pl3   1  UNL1       -0.3380
     16 N           3.9578   -1.4838   19.9973 N.2     1  UNL1       -0.2484
     17 C           3.8980   -1.2925   21.4838 C.3     1  UNL1        0.1352
     18 C           3.4704    0.0276   22.0535 C.3     1  UNL1        0.1685
     19 O           3.4106    0.2188   23.5401 O.3     1  UNL1       -0.3539
     20 H           4.7259   -3.8615   17.5671 H       1  UNL1        0.1442
     21 H           4.2038   -2.2542   17.3393 H       1  UNL1        0.1442
     22 N           0.2845    1.7376   19.3016 N.am    1  UNL1       -0.2791
     23 C          -0.2870    2.8775   20.0916 C.2     1  UNL1        0.2672
     24 O           0.5805    3.6310   21.0558 O.2     1  UNL1       -0.2682
     25 H          -0.2847    1.2430   18.6687 H       1  UNL1        0.1552
     26 C          -1.7258    3.2638   19.9173 C.ar    1  UNL1        0.1348
     27 C          -2.1473    4.0674   18.7230 C.ar    1  UNL1        0.0246
     28 C          -3.5861    4.4537   18.5487 C.ar    1  UNL1        0.0147
     29 C          -4.6036    4.0364   19.5689 C.ar    1  UNL1        0.0768
     30 CL         -6.0425    4.4227   19.3947 Cl      1  UNL1       -0.0806
     31 C          -4.1821    3.2327   20.7633 C.ar    1  UNL1        0.1103
     32 N          -2.7432    2.8464   20.9375 N.ar    1  UNL1       -0.2384
@<TRIPOS>BOND
     1     9     8    1
     2     9    10    1
     3    11    10    1
     4    11    12    1
     5    12    13    1
     6    13    14    1
     7    14    15    1
     8    14    16    2
     9    16    17    1
    10    17     1    1
    11     1     2   ar
    12     2     3   ar
    13     3    22    1
    14    22    23   am
    15    23    24    2
    16    23    26    1
    17    26    27   ar
    18    27    28   ar
    19    28    29   ar
    20    29    30    1
    21    29    31   ar
    22    31    32   ar
    23     3     4   ar
    24     4     5   ar
    25     5     6   ar
    26     6     7    1
    27    17    18    1
    28    18    19    1
    29    19     9    1
    30    17    11    1
    31     6     1   ar
    32    32    26   ar
    33    15    20    1
    34    15    21    1
    35    22    25    1
@<TRIPOS>MOLECULE
*****
 32 35 0 0 0
SMALL
GASTEIGER

@<TRIPOS>ATOM
      1 C          -9.6295  -18.9828   21.2489 C.ar    1  UNL1        0.0289
      2 C          -8.1926  -18.5814   21.0930 C.ar    1  UNL1        0.0145
      3 C          -7.4219  -19.0087   19.8791 C.ar    1  UNL1        0.0505
      4 C          -8.0881  -19.8374   18.8211 C.ar    1  UNL1        0.0170
      5 C          -9.5249  -20.2388   18.9769 C.ar    1  UNL1        0.0306
      6 C         -10.2957  -19.8115   20.1908 C.ar    1  UNL1        0.1380
      7 F         -11.7325  -20.2130   20.3467 F       1  UNL1       -0.2044
      8 C         -13.2601  -15.0907   22.2078 C.3     1  UNL1        0.0320
      9 C         -12.3068  -16.2456   22.2928 C.3     1  UNL1        0.1155
     10 C         -12.1241  -16.9733   23.5917 C.3     1  UNL1        0.0327
     11 C         -11.1707  -18.1283   23.6766 C.3     1  UNL1        0.0407
     12 C         -10.9880  -18.8560   24.9755 C.3     1  UNL1        0.0672
     13 S         -10.0347  -20.0110   25.0605 S.3     1  UNL1       -0.0807
     14 C          -9.2641  -20.4382   23.8465 C.2     1  UNL1        0.1482
     15 N          -8.3107  -21.5932   23.9315 N.pl3   1  UNL1       -0.3380
     16 N          -9.4468  -19.7105   22.5477 N.2     1  UNL1       -0.2484
     17 C         -10.4001  -18.5556   22.4627 C.3     1  UNL1        0.1352
     18 C         -10.5828  -17.8279   21.1639 C.3     1  UNL1        0.1685
     19 O         -11.5361  -16.6729   21.0789 O.3     1  UNL1       -0.3539
     20 H          -8.1908  -22.0708   24.7840 H       1  UNL1        0.1442
     21 H          -7.8049  -21.8736   23.1348 H       1  UNL1        0.1442
     22 N          -5.9850  -18.6072   19.7232 N.am    1  UNL1       -0.2791
     23 C          -4.9516  -19.1346   20.6740 C.2     1  UNL1        0.2672
     24 O          -5.3551  -20.0635   21.7806 O.2     1  UNL1       -0.2682
     25 H          -5.7202  -17.9976   18.9969 H       1  UNL1        0.1552
     26 C          -3.5148  -18.7333   20.5181 C.ar    1  UNL1        0.1348
     27 C          -2.4927  -19.2041   21.5099 C.ar    1  UNL1        0.0246
     28 C          -1.0559  -18.8027   21.3541 C.ar    1  UNL1        0.0147
     29 C          -0.6410  -17.9304   20.2064 C.ar    1  UNL1        0.0768
     30 CL          0.7958  -17.5290   20.0505 Cl      1  UNL1       -0.0806
     31 C          -1.6631  -17.4596   19.2146 C.ar    1  UNL1        0.1103
     32 N          -3.1000  -17.8610   19.3705 N.ar    1  UNL1       -0.2384
@<TRIPOS>BOND
     1     9     8    1
     2     9    10    1
     3    11    10    1
     4    11    12    1
     5    12    13    1
     6    13    14    1
     7    14    15    1
     8    14    16    2
     9    16    17    1
    10    17     1    1
    11     1     2   ar
    12     2     3   ar
    13     3    22    1
    14    22    23   am
    15    23    24    2
    16    23    26    1
    17    26    27   ar
    18    27    28   ar
    19    28    29   ar
    20    29    30    1
    21    29    31   ar
    22    31    32   ar
    23     3     4   ar
    24     4     5   ar
    25     5     6   ar
    26     6     7    1
    27    17    18    1
    28    18    19    1
    29    19     9    1
    30    17    11    1
    31     6     1   ar
    32    32    26   ar
    33    15    20    1
    34    15    21    1
    35    22    25    1
@<TRIPOS>MOLECULE
*****
 32 35 0 0 0
SMALL
GASTEIGER

@<TRIPOS>ATOM
      1 C           4.6204   -0.4984   18.9347 C.ar    1  UNL1        0.0289
      2 C           5.2892   -0.8454   20.2318 C.ar    1  UNL1        0.0145
      3 C           5.7760   -2.2434   20.4741 C.ar    1  UNL1        0.0505
      4 C           5.5940   -3.2944   19.4195 C.ar    1  UNL1        0.0170
      5 C           4.9252   -2.9474   18.1224 C.ar    1  UNL1        0.0306
      6 C           4.4384   -1.5494   17.8800 C.ar    1  UNL1        0.1380
      7 F           3.7697   -1.2025   16.5830 F       1  UNL1       -0.2044
      8 C           6.9512    4.0150   17.0783 C.3     1  UNL1        0.0320
      9 C           6.0120    2.9765   17.6163 C.3     1  UNL1        0.1155
     10 C           4.5860    3.3359   17.9119 C.3     1  UNL1        0.0327
     11 C           3.6469    2.2974   18.4499 C.3     1  UNL1        0.0407
     12 C           2.2208    2.6569   18.7455 C.3     1  UNL1        0.0672
     13 S           1.2817    1.6184   19.2835 S.3     1  UNL1       -0.0807
     14 C           1.7685    0.2204   19.5259 C.2     1  UNL1        0.1482
     15 N           0.8293   -0.8181   20.0639 N.pl3   1  UNL1       -0.3380
     16 N           3.1945   -0.1390   19.2303 N.2     1  UNL1       -0.2484
     17 C           4.1336    0.8995   18.6923 C.3     1  UNL1        0.1352
     18 C           5.5596    0.5401   18.3967 C.3     1  UNL1        0.1685
     19 O           6.4988    1.5786   17.8587 O.3     1  UNL1       -0.3539
     20 H          -0.1066   -0.5822   20.2579 H       1  UNL1        0.1442
     21 H           1.1488   -1.7356   20.2230 H       1  UNL1        0.1442
     22 N           6.4447   -2.5904   21.7712 N.am    1  UNL1       -0.2791
     23 C           5.6934   -3.3529   22.8220 C.2     1  UNL1        0.2672
     24 O           4.2733   -3.7684   22.5756 O.2     1  UNL1       -0.2682
     25 H           7.3768   -2.3177   21.9329 H       1  UNL1        0.1552
     26 C           6.3621   -3.6999   24.1190 C.ar    1  UNL1        0.1348
     27 C           7.3046   -4.8647   24.1888 C.ar    1  UNL1        0.0246
     28 C           7.9733   -5.2117   25.4858 C.ar    1  UNL1        0.0147
     29 C           7.6995   -4.3939   26.7132 C.ar    1  UNL1        0.0768
     30 CL          8.3683   -4.7409   28.0102 Cl      1  UNL1       -0.0806
     31 C           6.7570   -3.2291   26.6434 C.ar    1  UNL1        0.1103
     32 N           6.0883   -2.8821   25.3463 N.ar    1  UNL1       -0.2384
@<TRIPOS>BOND
     1     9     8    1
     2     9    10    1
     3    11    10    1
     4    11    12    1
     5    12    13    1
     6    13    14    1
     7    14    15    1
     8    14    16    2
     9    16    17    1
    10    17     1    1
    11     1     2   ar
    12     2     3   ar
    13     3    22    1
    14    22    23   am
    15    23    24    2
    16    23    26    1
    17    26    27   ar
    18    27    28   ar
    19    28    29   ar
    20    29    30    1
    21    29    31   ar
    22    31    32   ar
    23     3     4   ar
    24     4     5   ar
    25     5     6   ar
    26     6     7    1
    27    17    18    1
    28    18    19    1
    29    19     9    1
    30    17    11    1
    31     6     1   ar
    32    32    26   ar
    33    15    20    1
    34    15    21    1
    35    22    25    1
@<TRIPOS>MOLECULE
*****
 32 35 0 0 0
SMALL
GASTEIGER

@<TRIPOS>ATOM
      1 C         -14.3731   -3.0649   18.5779 C.ar    1  UNL1        0.0289
      2 C         -15.0481   -2.2883   19.6694 C.ar    1  UNL1        0.0145
      3 C         -15.3959   -0.8446   19.4579 C.ar    1  UNL1        0.0505
      4 C         -15.0686   -0.1775   18.1549 C.ar    1  UNL1        0.0170
      5 C         -14.3936   -0.9540   17.0634 C.ar    1  UNL1        0.0306
      6 C         -14.0458   -2.3977   17.2749 C.ar    1  UNL1        0.1380
      7 F         -13.3708   -3.1743   16.1834 F       1  UNL1       -0.2044
      8 C         -17.2904   -7.5937   19.0565 C.3     1  UNL1        0.0320
      9 C         -16.2021   -6.5653   18.9675 C.3     1  UNL1        0.1155
     10 C         -14.7660   -6.9807   19.0900 C.3     1  UNL1        0.0327
     11 C         -13.6776   -5.9523   19.0010 C.3     1  UNL1        0.0407
     12 C         -12.2414   -6.3677   19.1235 C.3     1  UNL1        0.0672
     13 S         -11.1531   -5.3393   19.0345 S.3     1  UNL1       -0.0807
     14 C         -11.5009   -3.8955   18.8229 C.2     1  UNL1        0.1482
     15 N         -10.4125   -2.8672   18.7339 N.pl3   1  UNL1       -0.3380
     16 N         -12.9370   -3.4802   18.7004 N.2     1  UNL1       -0.2484
     17 C         -14.0253   -4.5086   18.7894 C.3     1  UNL1        0.1352
     18 C         -15.4615   -4.0933   18.6669 C.3     1  UNL1        0.1685
     19 O         -16.5498   -5.1217   18.7559 O.3     1  UNL1       -0.3539
     20 H          -9.4699   -3.1398   18.8143 H       1  UNL1        0.1442
     21 H         -10.6408   -1.9196   18.5951 H       1  UNL1        0.1442
     22 N         -16.0709   -0.0680   20.5493 N.am    1  UNL1       -0.2791
     23 C         -17.5167    0.3094   20.4174 C.2     1  UNL1        0.2672
     24 O         -18.2874   -0.0898   19.1939 O.2     1  UNL1       -0.2682
     25 H         -15.5651    0.1939   21.3523 H       1  UNL1        0.1552
     26 C         -18.1917    1.0860   21.5088 C.ar    1  UNL1        0.1348
     27 C         -17.3843    1.9790   22.4035 C.ar    1  UNL1        0.0246
     28 C         -18.0594    2.7555   23.4949 C.ar    1  UNL1        0.0147
     29 C         -19.5419    2.6391   23.6916 C.ar    1  UNL1        0.0768
     30 CL        -20.2170    3.4156   24.7830 Cl      1  UNL1       -0.0806
     31 C         -20.3493    1.7461   22.7969 C.ar    1  UNL1        0.1103
     32 N         -19.6742    0.9695   21.7054 N.ar    1  UNL1       -0.2384
@<TRIPOS>BOND
     1     9     8    1
     2     9    10    1
     3    11    10    1
     4    11    12    1
     5    12    13    1
     6    13    14    1
     7    14    15    1
     8    14    16    2
     9    16    17    1
    10    17     1    1
    11     1     2   ar
    12     2     3   ar
    13     3    22    1
    14    22    23   am
    15    23    24    2
    16    23    26    1
    17    26    27   ar
    18    27    28   ar
    19    28    29   ar
    20    29    30    1
    21    29    31   ar
    22    31    32   ar
    23     3     4   ar
    24     4     5   ar
    25     5     6   ar
    26     6     7    1
    27    17    18    1
    28    18    19    1
    29    19     9    1
    30    17    11    1
    31     6     1   ar
    32    32    26   ar
    33    15    20    1
    34    15    21    1
    35    22    25    1
