@<TRIPOS>MOLECULE
*****
 21 23 0 0 0
SMALL
GASTEIGER

@<TRIPOS>ATOM
      1 C         -10.8407  -18.9046   21.7885 C.2     1  UNL1        0.1700
      2 O         -11.0102  -19.8901   20.6705 O.2     1  UNL1       -0.2916
      3 C          -9.4721  -18.4072   22.1488 C.2     1  UNL1        0.0192
      4 C          -8.2705  -19.2689   21.8970 C.2     1  UNL1        0.0301
      5 C          -6.9020  -18.7714   22.2572 C.2     1  UNL1        0.1571
      6 F          -5.7003  -19.6332   22.0053 F       1  UNL1       -0.2026
      7 C          -6.7352  -17.4122   22.8693 C.2     1  UNL1        0.1050
      8 N          -5.5208  -16.6590   23.3254 N.2     1  UNL1       -0.2419
      9 C          -5.9720  -15.3317   23.8591 C.2     1  UNL1        0.0986
     10 C          -7.4652  -15.2646   23.7328 C.2     1  UNL1        0.0183
     11 C          -7.9369  -16.5504   23.1211 C.2     1  UNL1        0.0037
     12 C          -9.3053  -17.0479   22.7609 C.3     1  UNL1        0.0572
     13 C         -12.0396  -18.4166   22.5464 C.3     1  UNL1        0.0710
     14 C         -13.3258  -17.8123   23.0265 C.3     1  UNL1        0.0257
     15 C         -13.4523  -18.0968   24.4938 C.3     1  UNL1        0.0690
     16 N         -12.2444  -18.8769   24.9205 N.3     1  UNL1       -0.2971
     17 C         -11.3712  -19.0745   23.7171 C.3     1  UNL1        0.0758
     18 H         -12.5308  -19.7823   25.2928 H       1  UNL1        0.1233
     19 C         -12.4573  -17.8606   21.2173 C.3     1  UNL1        0.0086
     20 C         -11.6494  -15.9182   19.6928 C.3     1  UNL1        0.0000
     21 C         -12.3271  -16.3914   20.9445 C.3     1  UNL1        0.0005
@<TRIPOS>BOND
     1    20    21    1
     2    21    19    1
     3    19    13    1
     4    13     1    1
     5     1     2    2
     6     1     3    1
     7     3     4    2
     8     4     5    1
     9     5     6    1
    10     5     7    2
    11     7     8    1
    12     8     9    2
    13     9    10    1
    14    10    11    2
    15    11    12    1
    16    13    14    1
    17    14    15    1
    18    15    16    1
    19    16    17    1
    20    17    13    1
    21    12     3    1
    22    11     7    1
    23    16    18    1
@<TRIPOS>MOLECULE
*****
 21 23 0 0 0
SMALL
GASTEIGER

@<TRIPOS>ATOM
      1 C         -10.6997  -18.9803   21.7102 C.2     1  UNL1        0.1700
      2 O         -10.8858  -19.9804   20.6080 O.2     1  UNL1       -0.2916
      3 C          -9.3240  -18.4923   22.0558 C.2     1  UNL1        0.0192
      4 C          -9.1351  -17.1110   22.6090 C.2     1  UNL1        0.0301
      5 C          -7.7594  -16.6230   22.9546 C.2     1  UNL1        0.1571
      6 F          -7.5705  -15.2416   23.5078 F       1  UNL1       -0.2026
      7 C          -6.5726  -17.5166   22.7470 C.2     1  UNL1        0.1050
      8 N          -5.1072  -17.3124   22.9938 N.2     1  UNL1       -0.2419
      9 C          -4.3904  -18.5676   22.5930 C.2     1  UNL1        0.0986
     10 C          -5.4128  -19.5476   22.0987 C.2     1  UNL1        0.0183
     11 C          -6.7615  -18.8980   22.1938 C.2     1  UNL1        0.0037
     12 C          -8.1372  -19.3859   21.8482 C.3     1  UNL1        0.0572
     13 C         -11.8892  -18.4680   22.4669 C.3     1  UNL1        0.0710
     14 C         -13.1664  -17.8429   22.9446 C.3     1  UNL1        0.0257
     15 C         -13.2877  -18.1034   24.4167 C.3     1  UNL1        0.0690
     16 N         -12.0856  -18.8896   24.8489 N.3     1  UNL1       -0.2971
     17 C         -11.2213  -19.1149   23.6439 C.3     1  UNL1        0.0758
     18 H         -12.3794  -19.7861   25.2367 H       1  UNL1        0.1233
     19 C         -12.3085  -17.9282   21.1317 C.3     1  UNL1        0.0086
     20 C         -11.6102  -15.8880   19.6826 C.3     1  UNL1        0.0000
     21 C         -12.3070  -16.4483   20.8870 C.3     1  UNL1        0.0005
@<TRIPOS>BOND
     1    20    21    1
     2    21    19    1
     3    19    13    1
     4    13     1    1
     5     1     2    2
     6     1     3    1
     7     3     4    2
     8     4     5    1
     9     5     6    1
    10     5     7    2
    11     7     8    1
    12     8     9    2
    13     9    10    1
    14    10    11    2
    15    11    12    1
    16    13    14    1
    17    14    15    1
    18    15    16    1
    19    16    17    1
    20    17    13    1
    21    12     3    1
    22    11     7    1
    23    16    18    1
@<TRIPOS>MOLECULE
*****
 21 23 0 0 0
SMALL
GASTEIGER

@<TRIPOS>ATOM
      1 C          -9.8141  -19.2987   20.2239 C.2     1  UNL1        0.1700
      2 O         -10.0786  -19.9702   18.9090 O.2     1  UNL1       -0.2916
      3 C          -8.4055  -19.1386   20.7144 C.2     1  UNL1        0.0192
      4 C          -8.0971  -18.1502   21.7997 C.2     1  UNL1        0.0301
      5 C          -6.6886  -17.9901   22.2901 C.2     1  UNL1        0.1571
      6 F          -6.3802  -17.0016   23.3755 F       1  UNL1       -0.2026
      7 C          -5.5886  -18.8183   21.6952 C.2     1  UNL1        0.1050
      8 N          -4.1158  -18.8797   21.9732 N.2     1  UNL1       -0.2419
      9 C          -3.5141  -19.9060   21.0597 C.2     1  UNL1        0.0986
     10 C          -4.6150  -20.4789   20.2171 C.2     1  UNL1        0.0183
     11 C          -5.8970  -19.8067   20.6098 C.2     1  UNL1        0.0037
     12 C          -7.3055  -19.9668   20.1194 C.3     1  UNL1        0.0572
     13 C         -10.9580  -18.7874   21.0485 C.3     1  UNL1        0.0710
     14 C         -12.0482  -18.5316   22.0466 C.3     1  UNL1        0.0257
     15 C         -12.7400  -17.2578   21.6611 C.3     1  UNL1        0.0690
     16 N         -12.0775  -16.7263   20.4248 N.3     1  UNL1       -0.2971
     17 C         -10.9761  -17.6716   20.0461 C.3     1  UNL1        0.0758
     18 H         -11.6909  -15.8008   20.6099 H       1  UNL1        0.1233
     19 C         -10.7007  -20.0101   21.8785 C.3     1  UNL1        0.0086
     20 C          -9.6469  -20.4368   24.2146 C.3     1  UNL1        0.0000
     21 C         -10.7822  -19.9320   23.3742 C.3     1  UNL1        0.0005
@<TRIPOS>BOND
     1    20    21    1
     2    21    19    1
     3    19    13    1
     4    13     1    1
     5     1     2    2
     6     1     3    1
     7     3     4    2
     8     4     5    1
     9     5     6    1
    10     5     7    2
    11     7     8    1
    12     8     9    2
    13     9    10    1
    14    10    11    2
    15    11    12    1
    16    13    14    1
    17    14    15    1
    18    15    16    1
    19    16    17    1
    20    17    13    1
    21    12     3    1
    22    11     7    1
    23    16    18    1
@<TRIPOS>MOLECULE
*****
 21 23 0 0 0
SMALL
GASTEIGER

@<TRIPOS>ATOM
      1 C          -8.4823  -17.5638   22.1273 C.2     1  UNL1        0.1700
      2 O          -9.5752  -17.3773   21.1172 O.2     1  UNL1       -0.2916
      3 C          -7.2613  -18.3600   21.7730 C.2     1  UNL1        0.0192
      4 C          -7.3801  -19.5556   20.8752 C.2     1  UNL1        0.0301
      5 C          -6.1591  -20.3518   20.5209 C.2     1  UNL1        0.1571
      6 F          -6.2780  -21.5476   19.6231 F       1  UNL1       -0.2026
      7 C          -4.8194  -19.9521   21.0645 C.2     1  UNL1        0.1050
      8 N          -3.4501  -20.5394   20.8909 N.2     1  UNL1       -0.2419
      9 C          -2.4851  -19.7065   21.6815 C.2     1  UNL1        0.0986
     10 C          -3.2579  -18.6046   22.3437 C.2     1  UNL1        0.0183
     11 C          -4.7007  -18.7564   21.9623 C.2     1  UNL1        0.0037
     12 C          -5.9216  -17.9603   22.3166 C.3     1  UNL1        0.0572
     13 C          -8.6101  -16.9542   23.4919 C.3     1  UNL1        0.0710
     14 C          -8.8569  -16.6240   24.9342 C.3     1  UNL1        0.0257
     15 C          -8.4134  -15.2104   25.1686 C.3     1  UNL1        0.0690
     16 N          -7.8924  -14.6669   23.8712 N.3     1  UNL1       -0.2971
     17 C          -8.0139  -15.7446   22.8350 C.3     1  UNL1        0.0758
     18 H          -6.9144  -14.3970   23.9768 H       1  UNL1        0.1233
     19 C          -9.1795  -18.2912   23.8636 C.3     1  UNL1        0.0086
     20 C         -11.7398  -18.6940   23.6825 C.3     1  UNL1        0.0000
     21 C         -10.5299  -18.3776   24.5108 C.3     1  UNL1        0.0005
@<TRIPOS>BOND
     1    20    21    1
     2    21    19    1
     3    19    13    1
     4    13     1    1
     5     1     2    2
     6     1     3    1
     7     3     4    2
     8     4     5    1
     9     5     6    1
    10     5     7    2
    11     7     8    1
    12     8     9    2
    13     9    10    1
    14    10    11    2
    15    11    12    1
    16    13    14    1
    17    14    15    1
    18    15    16    1
    19    16    17    1
    20    17    13    1
    21    12     3    1
    22    11     7    1
    23    16    18    1
@<TRIPOS>MOLECULE
*****
 21 23 0 0 0
SMALL
GASTEIGER

@<TRIPOS>ATOM
      1 C         -10.6597  -16.8305   22.6630 C.2     1  UNL1        0.1700
      2 O         -11.7786  -15.8339   22.5941 O.2     1  UNL1       -0.2916
      3 C          -9.4400  -16.5332   23.4840 C.2     1  UNL1        0.0192
      4 C          -8.0744  -16.7047   22.8877 C.2     1  UNL1        0.0301
      5 C          -6.8547  -16.4074   23.7087 C.2     1  UNL1        0.1571
      6 F          -5.4891  -16.5790   23.1123 F       1  UNL1       -0.2026
      7 C          -7.0007  -15.9386   25.1261 C.2     1  UNL1        0.1050
      8 N          -5.9892  -15.5710   26.1709 N.2     1  UNL1       -0.2419
      9 C          -6.7296  -15.1722   27.4129 C.2     1  UNL1        0.0986
     10 C          -8.1988  -15.2934   27.1357 C.2     1  UNL1        0.0183
     11 C          -8.3664  -15.7671   25.7224 C.2     1  UNL1        0.0037
     12 C          -9.5860  -16.0644   24.9014 C.3     1  UNL1        0.0572
     13 C         -10.7604  -18.1244   21.9110 C.3     1  UNL1        0.0710
     14 C         -10.9554  -19.5335   21.4349 C.3     1  UNL1        0.0257
     15 C         -10.6038  -19.5832   19.9776 C.3     1  UNL1        0.0690
     16 N         -10.1915  -18.2049   19.5530 N.3     1  UNL1       -0.2971
     17 C         -10.2883  -17.3033   20.7478 C.3     1  UNL1        0.0758
     18 H         -10.8114  -17.8700   18.8155 H       1  UNL1        0.1233
     19 C         -11.2116  -18.6750   23.2313 C.3     1  UNL1        0.0086
     20 C          -9.9089  -20.0511   25.0088 C.3     1  UNL1        0.0000
     21 C         -10.6737  -19.9872   23.7200 C.3     1  UNL1        0.0005
@<TRIPOS>BOND
     1    20    21    1
     2    21    19    1
     3    19    13    1
     4    13     1    1
     5     1     2    2
     6     1     3    1
     7     3     4    2
     8     4     5    1
     9     5     6    1
    10     5     7    2
    11     7     8    1
    12     8     9    2
    13     9    10    1
    14    10    11    2
    15    11    12    1
    16    13    14    1
    17    14    15    1
    18    15    16    1
    19    16    17    1
    20    17    13    1
    21    12     3    1
    22    11     7    1
    23    16    18    1
@<TRIPOS>MOLECULE
*****
 21 23 0 0 0
SMALL
GASTEIGER

@<TRIPOS>ATOM
      1 C          -9.6634  -19.2252   20.3458 C.2     1  UNL1        0.1700
      2 O          -9.7470  -19.9650   19.0437 O.2     1  UNL1       -0.2916
      3 C          -8.3255  -18.9318   20.9573 C.2     1  UNL1        0.0192
      4 C          -7.1330  -19.7626   20.5866 C.2     1  UNL1        0.0301
      5 C          -5.7950  -19.4692   21.1981 C.2     1  UNL1        0.1571
      6 F          -4.6025  -20.3002   20.8274 F       1  UNL1       -0.2026
      7 C          -5.6497  -18.3448   22.1802 C.2     1  UNL1        0.1050
      8 N          -4.4667  -17.8230   22.9407 N.2     1  UNL1       -0.2419
      9 C          -4.9282  -16.6696   23.7813 C.2     1  UNL1        0.0986
     10 C          -6.3963  -16.4786   23.5404 C.2     1  UNL1        0.0183
     11 C          -6.8423  -17.5139   22.5509 C.2     1  UNL1        0.0037
     12 C          -8.1801  -17.8074   21.9394 C.3     1  UNL1        0.0572
     13 C         -10.9178  -18.7788   21.0366 C.3     1  UNL1        0.0710
     14 C         -12.1192  -18.5799   21.9125 C.3     1  UNL1        0.0257
     15 C         -12.8530  -17.3663   21.4242 C.3     1  UNL1        0.0690
     16 N         -12.1052  -16.8152   20.2465 N.3     1  UNL1       -0.2971
     17 C         -10.9092  -17.6881   20.0070 C.3     1  UNL1        0.0758
     18 H         -11.8034  -15.8610   20.4438 H       1  UNL1        0.1233
     19 C         -10.6642  -19.9629   21.9219 C.3     1  UNL1        0.0086
     20 C          -9.7988  -20.3354   24.3432 C.3     1  UNL1        0.0000
     21 C         -10.8619  -19.8470   23.4043 C.3     1  UNL1        0.0005
@<TRIPOS>BOND
     1    20    21    1
     2    21    19    1
     3    19    13    1
     4    13     1    1
     5     1     2    2
     6     1     3    1
     7     3     4    2
     8     4     5    1
     9     5     6    1
    10     5     7    2
    11     7     8    1
    12     8     9    2
    13     9    10    1
    14    10    11    2
    15    11    12    1
    16    13    14    1
    17    14    15    1
    18    15    16    1
    19    16    17    1
    20    17    13    1
    21    12     3    1
    22    11     7    1
    23    16    18    1
@<TRIPOS>MOLECULE
*****
 21 23 0 0 0
SMALL
GASTEIGER

@<TRIPOS>ATOM
      1 C          -8.4891  -19.1755   21.6080 C.2     1  UNL1        0.1700
      2 O          -9.2881  -19.4812   20.3760 O.2     1  UNL1       -0.2916
      3 C          -6.9908  -19.2332   21.5638 C.2     1  UNL1        0.0192
      4 C          -6.3037  -20.1479   20.5937 C.2     1  UNL1        0.0301
      5 C          -4.8054  -20.2055   20.5495 C.2     1  UNL1        0.1571
      6 F          -4.1184  -21.1203   19.5793 F       1  UNL1       -0.2026
      7 C          -3.9943  -19.3484   21.4755 C.2     1  UNL1        0.1050
      8 N          -2.5139  -19.1921   21.6598 N.2     1  UNL1       -0.2419
      9 C          -2.2861  -18.1807   22.7439 C.2     1  UNL1        0.0986
     10 C          -3.6257  -17.7120   23.2295 C.2     1  UNL1        0.0183
     11 C          -4.6814  -18.4336   22.4456 C.2     1  UNL1        0.0037
     12 C          -6.1797  -18.3760   22.4897 C.3     1  UNL1        0.0572
     13 C          -9.1882  -18.8122   22.8844 C.3     1  UNL1        0.0710
     14 C          -9.9092  -18.1649   24.0296 C.3     1  UNL1        0.0257
     15 C         -10.1044  -19.1991   25.0983 C.3     1  UNL1        0.0690
     16 N          -9.5041  -20.4855   24.6138 N.3     1  UNL1       -0.2971
     17 C          -8.9379  -20.2464   23.2455 C.3     1  UNL1        0.0758
     18 H         -10.2229  -21.2078   24.5695 H       1  UNL1        0.1233
     19 C          -9.2924  -17.4539   22.2565 C.3     1  UNL1        0.0086
     20 C         -11.3044  -16.4995   20.9182 C.3     1  UNL1        0.0000
     21 C         -10.6116  -16.7406   22.2266 C.3     1  UNL1        0.0005
@<TRIPOS>BOND
     1    20    21    1
     2    21    19    1
     3    19    13    1
     4    13     1    1
     5     1     2    2
     6     1     3    1
     7     3     4    2
     8     4     5    1
     9     5     6    1
    10     5     7    2
    11     7     8    1
    12     8     9    2
    13     9    10    1
    14    10    11    2
    15    11    12    1
    16    13    14    1
    17    14    15    1
    18    15    16    1
    19    16    17    1
    20    17    13    1
    21    12     3    1
    22    11     7    1
    23    16    18    1
@<TRIPOS>MOLECULE
*****
 21 23 0 0 0
SMALL
GASTEIGER

@<TRIPOS>ATOM
      1 C          -9.3518  -17.1338   22.7349 C.2     1  UNL1        0.1700
      2 O          -8.9996  -15.8786   23.4767 O.2     1  UNL1       -0.2916
      3 C          -8.2713  -17.9579   22.0998 C.2     1  UNL1        0.0192
      4 C          -8.5885  -18.8317   20.9227 C.2     1  UNL1        0.0301
      5 C          -7.5080  -19.6559   20.2875 C.2     1  UNL1        0.1571
      6 F          -7.8253  -20.5298   19.1103 F       1  UNL1       -0.2026
      7 C          -6.1103  -19.6061   20.8296 C.2     1  UNL1        0.1050
      8 N          -4.8476  -20.3014   20.4148 N.2     1  UNL1       -0.2419
      9 C          -3.7499  -19.8572   21.3355 C.2     1  UNL1        0.0986
     10 C          -4.3343  -18.8874   22.3195 C.2     1  UNL1        0.0183
     11 C          -5.7931  -18.7323   22.0068 C.2     1  UNL1        0.0037
     12 C          -6.8736  -17.9082   22.6419 C.3     1  UNL1        0.0572
     13 C         -10.7845  -17.5649   22.6282 C.3     1  UNL1        0.0710
     14 C         -12.1582  -18.1452   22.7910 C.3     1  UNL1        0.0257
     15 C         -12.9903  -17.7007   21.6248 C.3     1  UNL1        0.0690
     16 N         -12.1309  -16.8457   20.7414 N.3     1  UNL1       -0.2971
     17 C         -10.7677  -16.7618   21.3614 C.3     1  UNL1        0.0758
     18 H         -12.5344  -15.9120   20.6648 H       1  UNL1        0.1233
     19 C         -10.5018  -18.2779   23.9173 C.3     1  UNL1        0.0086
     20 C          -9.5709  -20.6663   24.3404 C.3     1  UNL1        0.0000
     21 C         -10.7209  -19.7584   24.0192 C.3     1  UNL1        0.0005
@<TRIPOS>BOND
     1    20    21    1
     2    21    19    1
     3    19    13    1
     4    13     1    1
     5     1     2    2
     6     1     3    1
     7     3     4    2
     8     4     5    1
     9     5     6    1
    10     5     7    2
    11     7     8    1
    12     8     9    2
    13     9    10    1
    14    10    11    2
    15    11    12    1
    16    13    14    1
    17    14    15    1
    18    15    16    1
    19    16    17    1
    20    17    13    1
    21    12     3    1
    22    11     7    1
    23    16    18    1
@<TRIPOS>MOLECULE
*****
 21 23 0 0 0
SMALL
GASTEIGER

@<TRIPOS>ATOM
      1 C          -8.4390  -18.2125   22.0603 C.2     1  UNL1        0.1700
      2 O          -9.1767  -17.8172   20.8156 O.2     1  UNL1       -0.2916
      3 C          -6.9544  -18.4231   22.0175 C.2     1  UNL1        0.0192
      4 C          -6.0755  -17.7792   23.0482 C.2     1  UNL1        0.0301
      5 C          -4.5909  -17.9899   23.0054 C.2     1  UNL1        0.1571
      6 F          -3.7119  -17.3458   24.0363 F       1  UNL1       -0.2026
      7 C          -3.9854  -18.8445   21.9316 C.2     1  UNL1        0.1050
      8 N          -2.5662  -19.2305   21.6371 N.2     1  UNL1       -0.2419
      9 C          -2.5681  -20.1130   20.4242 C.2     1  UNL1        0.0986
     10 C          -3.9885  -20.2725   19.9691 C.2     1  UNL1        0.0183
     11 C          -4.8645  -19.4885   20.9008 C.2     1  UNL1        0.0037
     12 C          -6.3490  -19.2778   20.9437 C.3     1  UNL1        0.0572
     13 C          -9.1858  -18.3972   23.3480 C.3     1  UNL1        0.0710
     14 C          -9.9690  -18.2709   24.6211 C.3     1  UNL1        0.0257
     15 C         -10.1226  -19.6423   25.2088 C.3     1  UNL1        0.0690
     16 N          -9.4344  -20.6162   24.2990 N.3     1  UNL1       -0.2971
     17 C          -8.8554  -19.8468   23.1490 C.3     1  UNL1        0.0758
     18 H         -10.1064  -21.3015   23.9537 H       1  UNL1        0.1233
     19 C          -9.3601  -16.9090   23.2779 C.3     1  UNL1        0.0086
     20 C          -8.0028  -15.1033   24.5614 C.3     1  UNL1        0.0000
     21 C          -9.1479  -16.0704   24.5034 C.3     1  UNL1        0.0005
@<TRIPOS>BOND
     1    20    21    1
     2    21    19    1
     3    19    13    1
     4    13     1    1
     5     1     2    2
     6     1     3    1
     7     3     4    2
     8     4     5    1
     9     5     6    1
    10     5     7    2
    11     7     8    1
    12     8     9    2
    13     9    10    1
    14    10    11    2
    15    11    12    1
    16    13    14    1
    17    14    15    1
    18    15    16    1
    19    16    17    1
    20    17    13    1
    21    12     3    1
    22    11     7    1
    23    16    18    1
