@<TRIPOS>MOLECULE
*****
 14 15 0 0 0
SMALL
GASTEIGER

@<TRIPOS>ATOM
      1 N          -5.3995  -15.0021   23.4504 N.pl3   1  UNL1       -0.3521
      2 C          -6.8140  -15.4012   23.7505 C.ar    1  UNL1        0.0719
      3 C          -7.4692  -15.3784   25.0997 C.ar    1  UNL1        0.0213
      4 C          -8.8818  -15.8562   24.9370 C.ar    1  UNL1        0.0083
      5 C          -9.0996  -16.1742   23.4874 C.ar    1  UNL1        0.0322
      6 S          -7.8216  -15.8930   22.7541 S.2     1  UNL1       -0.0727
      7 H          -4.8116  -14.6904   24.1759 H       1  UNL1        0.1428
      8 H          -5.0591  -15.0519   22.5280 H       1  UNL1        0.1428
      9 C         -10.3720  -16.6839   22.8780 C.ar    1  UNL1        0.0252
     10 C         -11.2268  -17.6588   23.6322 C.ar    1  UNL1        0.0036
     11 C         -12.4991  -18.1685   23.0229 C.ar    1  UNL1        0.0207
     12 C         -12.9166  -17.7033   21.6593 C.ar    1  UNL1        0.0989
     13 N         -12.0618  -16.7284   20.9051 N.ar    1  UNL1       -0.2423
     14 C         -10.7895  -16.2187   21.5145 C.ar    1  UNL1        0.0993
@<TRIPOS>BOND
     1     1     2    1
     2     2     3   ar
     3     3     4   ar
     4     4     5   ar
     5     5     9    1
     6     9    10   ar
     7    10    11   ar
     8    11    12   ar
     9    12    13   ar
    10    13    14   ar
    11     5     6   ar
    12     6     2   ar
    13    14     9   ar
    14     1     7    1
    15     1     8    1
@<TRIPOS>MOLECULE
*****
 14 15 0 0 0
SMALL
GASTEIGER

@<TRIPOS>ATOM
      1 N         -10.7165  -17.0127   20.1003 N.pl3   1  UNL1       -0.3521
      2 C         -10.3158  -16.9885   21.5456 C.ar    1  UNL1        0.0719
      3 C         -11.0669  -17.6210   22.6795 C.ar    1  UNL1        0.0213
      4 C         -10.3089  -17.3508   23.9454 C.ar    1  UNL1        0.0083
      5 C          -9.0893  -16.5514   23.5938 C.ar    1  UNL1        0.0322
      6 S          -9.0936  -16.3274   22.1106 S.2     1  UNL1       -0.0727
      7 H         -11.5412  -17.4751   19.8258 H       1  UNL1        0.1428
      8 H         -10.1549  -16.5663   19.4261 H       1  UNL1        0.1428
      9 C          -8.0483  -16.0618   24.5564 C.ar    1  UNL1        0.0252
     10 C          -8.3165  -16.0945   26.0319 C.ar    1  UNL1        0.0036
     11 C          -7.2755  -15.6050   26.9944 C.ar    1  UNL1        0.0207
     12 C          -5.9662  -15.0828   26.4815 C.ar    1  UNL1        0.0989
     13 N          -5.6979  -15.0501   25.0061 N.ar    1  UNL1       -0.2423
     14 C          -6.7390  -15.5396   24.0436 C.ar    1  UNL1        0.0993
@<TRIPOS>BOND
     1     1     2    1
     2     2     3   ar
     3     3     4   ar
     4     4     5   ar
     5     5     9    1
     6     9    10   ar
     7    10    11   ar
     8    11    12   ar
     9    12    13   ar
    10    13    14   ar
    11     5     6   ar
    12     6     2   ar
    13    14     9   ar
    14     1     7    1
    15     1     8    1
@<TRIPOS>MOLECULE
*****
 14 15 0 0 0
SMALL
GASTEIGER

@<TRIPOS>ATOM
      1 N          -5.9984  -18.8718   19.8528 N.pl3   1  UNL1       -0.3521
      2 C          -7.4689  -19.0358   20.0991 C.ar    1  UNL1        0.0719
      3 C          -8.4591  -19.6453   19.1513 C.ar    1  UNL1        0.0213
      4 C          -9.8095  -19.6053   19.8029 C.ar    1  UNL1        0.0083
      5 C          -9.6541  -18.9712   21.1534 C.ar    1  UNL1        0.0322
      6 S          -8.2075  -18.6193   21.3365 S.2     1  UNL1       -0.0727
      7 H          -5.6042  -19.1784   19.0044 H       1  UNL1        0.1428
      8 H          -5.4274  -18.4575   20.5396 H       1  UNL1        0.1428
      9 C         -10.7524  -18.7312   22.1465 C.ar    1  UNL1        0.0252
     10 C         -12.0191  -18.0538   21.7147 C.ar    1  UNL1        0.0036
     11 C         -13.1174  -17.8138   22.7077 C.ar    1  UNL1        0.0207
     12 C         -12.9489  -18.2513   24.1326 C.ar    1  UNL1        0.0989
     13 N         -11.6822  -18.9287   24.5644 N.ar    1  UNL1       -0.2423
     14 C         -10.5839  -19.1687   23.5714 C.ar    1  UNL1        0.0993
@<TRIPOS>BOND
     1     1     2    1
     2     2     3   ar
     3     3     4   ar
     4     4     5   ar
     5     5     9    1
     6     9    10   ar
     7    10    11   ar
     8    11    12   ar
     9    12    13   ar
    10    13    14   ar
    11     5     6   ar
    12     6     2   ar
    13    14     9   ar
    14     1     7    1
    15     1     8    1
@<TRIPOS>MOLECULE
*****
 14 15 0 0 0
SMALL
GASTEIGER

@<TRIPOS>ATOM
      1 N          -6.1216  -14.7890   26.4299 N.pl3   1  UNL1       -0.3521
      2 C          -6.9546  -15.3736   25.3280 C.ar    1  UNL1        0.0719
      3 C          -6.5029  -15.6256   23.9199 C.ar    1  UNL1        0.0213
      4 C          -7.6548  -16.2166   23.1624 C.ar    1  UNL1        0.0083
      5 C          -8.8184  -16.3299   24.1022 C.ar    1  UNL1        0.0322
      6 S          -8.3856  -15.8089   25.4406 S.2     1  UNL1       -0.0727
      7 H          -5.1868  -14.5327   26.2573 H       1  UNL1        0.1428
      8 H          -6.5096  -14.6615   27.3257 H       1  UNL1        0.1428
      9 C         -10.1763  -16.8694   23.7631 C.ar    1  UNL1        0.0252
     10 C         -11.0529  -16.1373   22.7908 C.ar    1  UNL1        0.0036
     11 C         -12.4108  -16.6768   22.4518 C.ar    1  UNL1        0.0207
     12 C         -12.8920  -17.9486   23.0850 C.ar    1  UNL1        0.0989
     13 N         -12.0154  -18.6808   24.0573 N.ar    1  UNL1       -0.2423
     14 C         -10.6576  -18.1412   24.3963 C.ar    1  UNL1        0.0993
@<TRIPOS>BOND
     1     1     2    1
     2     2     3   ar
     3     3     4   ar
     4     4     5   ar
     5     5     9    1
     6     9    10   ar
     7    10    11   ar
     8    11    12   ar
     9    12    13   ar
    10    13    14   ar
    11     5     6   ar
    12     6     2   ar
    13    14     9   ar
    14     1     7    1
    15     1     8    1
@<TRIPOS>MOLECULE
*****
 14 15 0 0 0
SMALL
GASTEIGER

@<TRIPOS>ATOM
      1 N          -9.0962  -19.4457   20.2061 N.pl3   1  UNL1       -0.3521
      2 C          -7.7011  -19.4853   20.7557 C.ar    1  UNL1        0.0719
      3 C          -7.3090  -19.9251   22.1351 C.ar    1  UNL1        0.0213
      4 C          -5.8187  -19.8037   22.2543 C.ar    1  UNL1        0.0083
      5 C          -5.2897  -19.2888   20.9485 C.ar    1  UNL1        0.0322
      6 S          -6.4531  -19.0920   20.0223 S.2     1  UNL1       -0.0727
      7 H          -9.8548  -19.7254   20.7679 H       1  UNL1        0.1428
      8 H          -9.2534  -19.1400   19.2835 H       1  UNL1        0.1428
      9 C          -3.8500  -19.0181   20.6256 C.ar    1  UNL1        0.0252
     10 C          -3.4759  -18.4420   19.2922 C.ar    1  UNL1        0.0036
     11 C          -2.0363  -18.1714   18.9694 C.ar    1  UNL1        0.0207
     12 C          -0.9708  -18.4770   19.9800 C.ar    1  UNL1        0.0989
     13 N          -1.3449  -19.0531   21.3134 N.ar    1  UNL1       -0.2423
     14 C          -2.7845  -19.3237   21.6362 C.ar    1  UNL1        0.0993
@<TRIPOS>BOND
     1     1     2    1
     2     2     3   ar
     3     3     4   ar
     4     4     5   ar
     5     5     9    1
     6     9    10   ar
     7    10    11   ar
     8    11    12   ar
     9    12    13   ar
    10    13    14   ar
    11     5     6   ar
    12     6     2   ar
    13    14     9   ar
    14     1     7    1
    15     1     8    1
@<TRIPOS>MOLECULE
*****
 14 15 0 0 0
SMALL
GASTEIGER

@<TRIPOS>ATOM
      1 N          -1.0204  -18.4954   19.3170 N.pl3   1  UNL1       -0.3521
      2 C          -2.2103  -18.8230   20.1697 C.ar    1  UNL1        0.0719
      3 C          -2.1710  -19.3253   21.5826 C.ar    1  UNL1        0.0213
      4 C          -3.5847  -19.5185   22.0453 C.ar    1  UNL1        0.0083
      5 C          -4.4977  -19.1356   20.9184 C.ar    1  UNL1        0.0322
      6 S          -3.6482  -18.7058   19.7592 S.2     1  UNL1       -0.0727
      7 H          -0.1110  -18.6056   19.6777 H       1  UNL1        0.1428
      8 H          -1.1489  -18.1704   18.3967 H       1  UNL1        0.1428
      9 C          -5.9970  -19.1756   20.9458 C.ar    1  UNL1        0.0252
     10 C          -6.7245  -19.1324   22.2568 C.ar    1  UNL1        0.0036
     11 C          -8.2237  -19.1724   22.2843 C.ar    1  UNL1        0.0207
     12 C          -8.9953  -19.2556   21.0007 C.ar    1  UNL1        0.0989
     13 N          -8.2678  -19.2987   19.6896 N.ar    1  UNL1       -0.2423
     14 C          -6.7686  -19.2587   19.6622 C.ar    1  UNL1        0.0993
@<TRIPOS>BOND
     1     1     2    1
     2     2     3   ar
     3     3     4   ar
     4     4     5   ar
     5     5     9    1
     6     9    10   ar
     7    10    11   ar
     8    11    12   ar
     9    12    13   ar
    10    13    14   ar
    11     5     6   ar
    12     6     2   ar
    13    14     9   ar
    14     1     7    1
    15     1     8    1
@<TRIPOS>MOLECULE
*****
 14 15 0 0 0
SMALL
GASTEIGER

@<TRIPOS>ATOM
      1 N         -10.5081  -19.2471   19.5776 N.pl3   1  UNL1       -0.3521
      2 C         -10.3909  -19.1135   21.0670 C.ar    1  UNL1        0.0719
      3 C         -10.9378  -20.0711   22.0839 C.ar    1  UNL1        0.0213
      4 C         -10.5911  -19.5482   23.4464 C.ar    1  UNL1        0.0083
      5 C          -9.8300  -18.2675   23.2716 C.ar    1  UNL1        0.0322
      6 S          -9.7063  -17.9988   21.8011 S.2     1  UNL1       -0.0727
      7 H         -10.9792  -20.0188   19.1882 H       1  UNL1        0.1428
      8 H         -10.1140  -18.5630   18.9895 H       1  UNL1        0.1428
      9 C          -9.2877  -17.4067   24.3739 C.ar    1  UNL1        0.0252
     10 C          -9.3393  -17.8860   25.7943 C.ar    1  UNL1        0.0036
     11 C          -8.7971  -17.0252   26.8965 C.ar    1  UNL1        0.0207
     12 C          -8.2033  -15.6850   26.5783 C.ar    1  UNL1        0.0989
     13 N          -8.1517  -15.2056   25.1580 N.ar    1  UNL1       -0.2423
     14 C          -8.6939  -16.0664   24.0558 C.ar    1  UNL1        0.0993
@<TRIPOS>BOND
     1     1     2    1
     2     2     3   ar
     3     3     4   ar
     4     4     5   ar
     5     5     9    1
     6     9    10   ar
     7    10    11   ar
     8    11    12   ar
     9    12    13   ar
    10    13    14   ar
    11     5     6   ar
    12     6     2   ar
    13    14     9   ar
    14     1     7    1
    15     1     8    1
@<TRIPOS>MOLECULE
*****
 14 15 0 0 0
SMALL
GASTEIGER

@<TRIPOS>ATOM
      1 N          -2.4013  -20.1703   21.2136 N.pl3   1  UNL1       -0.3521
      2 C          -3.5513  -19.4029   21.7954 C.ar    1  UNL1        0.0719
      3 C          -3.4495  -18.2546   22.7552 C.ar    1  UNL1        0.0213
      4 C          -4.8403  -17.7910   23.0726 C.ar    1  UNL1        0.0083
      5 C          -5.8017  -18.6528   22.3089 C.ar    1  UNL1        0.0322
      6 S          -5.0050  -19.6490   21.5196 S.2     1  UNL1       -0.0727
      7 H          -1.4774  -19.9323   21.4567 H       1  UNL1        0.1428
      8 H          -2.5703  -20.9120   20.5887 H       1  UNL1        0.1428
      9 C          -7.2972  -18.5385   22.3308 C.ar    1  UNL1        0.0252
     10 C          -8.1387  -19.7538   22.5856 C.ar    1  UNL1        0.0036
     11 C          -9.6341  -19.6394   22.6074 C.ar    1  UNL1        0.0207
     12 C         -10.2881  -18.3097   22.3745 C.ar    1  UNL1        0.0989
     13 N          -9.4466  -17.0944   22.1197 N.ar    1  UNL1       -0.2423
     14 C          -7.9512  -17.2088   22.0978 C.ar    1  UNL1        0.0993
@<TRIPOS>BOND
     1     1     2    1
     2     2     3   ar
     3     3     4   ar
     4     4     5   ar
     5     5     9    1
     6     9    10   ar
     7    10    11   ar
     8    11    12   ar
     9    12    13   ar
    10    13    14   ar
    11     5     6   ar
    12     6     2   ar
    13    14     9   ar
    14     1     7    1
    15     1     8    1
@<TRIPOS>MOLECULE
*****
 14 15 0 0 0
SMALL
GASTEIGER

@<TRIPOS>ATOM
      1 N          -4.8339  -18.9186   21.4349 N.pl3   1  UNL1       -0.3521
      2 C          -6.3080  -19.0318   21.6886 C.ar    1  UNL1        0.0719
      3 C          -7.0020  -20.1821   22.3558 C.ar    1  UNL1        0.0213
      4 C          -8.4698  -19.8757   22.3991 C.ar    1  UNL1        0.0083
      5 C          -8.6828  -18.5362   21.7586 C.ar    1  UNL1        0.0322
      6 S          -7.3468  -18.0146   21.3195 S.2     1  UNL1       -0.0727
      7 H          -4.2291  -19.6428   21.7157 H       1  UNL1        0.1428
      8 H          -4.4713  -18.1200   20.9876 H       1  UNL1        0.1428
      9 C         -10.0007  -17.8404   21.5873 C.ar    1  UNL1        0.0252
     10 C         -10.5736  -17.0314   22.7131 C.ar    1  UNL1        0.0036
     11 C         -11.8913  -16.3356   22.5417 C.ar    1  UNL1        0.0207
     12 C         -12.6362  -16.4489   21.2447 C.ar    1  UNL1        0.0989
     13 N         -12.0633  -17.2579   20.1190 N.ar    1  UNL1       -0.2423
     14 C         -10.7456  -17.9536   20.2903 C.ar    1  UNL1        0.0993
@<TRIPOS>BOND
     1     1     2    1
     2     2     3   ar
     3     3     4   ar
     4     4     5   ar
     5     5     9    1
     6     9    10   ar
     7    10    11   ar
     8    11    12   ar
     9    12    13   ar
    10    13    14   ar
    11     5     6   ar
    12     6     2   ar
    13    14     9   ar
    14     1     7    1
    15     1     8    1
