@<TRIPOS>MOLECULE
*****
 29 33 0 0 0
SMALL
GASTEIGER

@<TRIPOS>ATOM
      1 C         -10.9578  -18.4526   21.3363 C.ar    1  UNL1        0.0585
      2 C          -9.7160  -19.0971   21.8769 C.ar    1  UNL1        0.0955
      3 N          -9.9525  -19.4188   23.3228 N.ar    1  UNL1       -0.2292
      4 C         -11.3406  -18.9730   23.6758 C.ar    1  UNL1        0.1481
      5 C         -12.1190  -19.0337   24.9566 C.ar    1  UNL1        0.0488
      6 C         -13.5187  -18.4973   25.0096 C.ar    1  UNL1        0.0622
      7 CL        -14.2972  -18.5579   26.2904 Cl      1  UNL1       -0.0821
      8 C         -14.1401  -17.9001   23.7818 C.ar    1  UNL1        0.0305
      9 C         -13.3617  -17.8394   22.5011 C.ar    1  UNL1        0.0820
     10 N         -11.9619  -18.3759   22.4481 N.ar    1  UNL1       -0.2928
     11 C         -11.1602  -17.9695   19.9307 C.3     1  UNL1        0.0514
     12 C         -11.6257  -16.5660   19.6797 C.3     1  UNL1        0.0480
     13 O          -9.7324  -15.1994   20.8191 O.co2   1  UNL1       -0.5492
     14 C         -10.6334  -15.4416   19.6446 C.2     1  UNL1        0.0507
     15 O         -10.5422  -14.5594   18.4349 O.co2   1  UNL1       -0.5492
     16 C          -8.4584  -19.3718   21.1069 C.3     1  UNL1        0.1575
     17 N          -7.1393  -18.8801   21.6248 N.ar    1  UNL1       -0.2726
     18 C          -5.7926  -19.4487   21.2882 C.ar    1  UNL1        0.3318
     19 O          -5.5286  -20.6087   20.3746 O.2     1  UNL1       -0.2463
     20 N          -4.7562  -18.6535   22.0256 N.ar    1  UNL1       -0.2817
     21 C          -5.4624  -17.5935   22.8180 C.ar    1  UNL1        0.0827
     22 C          -4.9547  -16.5189   23.7330 C.ar    1  UNL1        0.0395
     23 C          -5.9196  -15.5843   24.4004 C.ar    1  UNL1        0.1005
     24 N          -7.3924  -15.7244   24.1526 N.ar    1  UNL1       -0.2407
     25 C          -7.9002  -16.7990   23.2376 C.ar    1  UNL1        0.1176
     26 C          -6.9352  -17.7336   22.5702 C.ar    1  UNL1        0.0992
     27 C          -3.2741  -18.8788   21.9788 C.3     1  UNL1        0.0900
     28 C          -1.8815  -18.4369   22.3191 C.3     1  UNL1        0.0246
     29 C          -2.0991  -19.7108   21.5576 C.3     1  UNL1        0.0246
@<TRIPOS>UNITY_ATOM_ATTR
13 1
charge -1
@<TRIPOS>BOND
     1    13    14   ar
     2    14    15   ar
     3    14    12    1
     4    12    11    1
     5    11     1    1
     6     1     2   ar
     7     2    16    1
     8    16    17    1
     9    17    18   ar
    10    18    19    2
    11    18    20   ar
    12    20    27    1
    13    27    28    1
    14    28    29    1
    15    20    21   ar
    16    21    22   ar
    17    22    23   ar
    18    23    24   ar
    19    24    25   ar
    20    25    26   ar
    21     2     3   ar
    22     3     4   ar
    23     4     5   ar
    24     5     6   ar
    25     6     7    1
    26     6     8   ar
    27     8     9   ar
    28     9    10   ar
    29    10     1   ar
    30    26    17   ar
    31    10     4   ar
    32    29    27    1
    33    26    21   ar
@<TRIPOS>MOLECULE
*****
 29 33 0 0 0
SMALL
GASTEIGER

@<TRIPOS>ATOM
      1 C          -5.6597  -18.3164   22.3755 C.ar    1  UNL1        0.0585
      2 C          -5.7618  -17.0536   23.1786 C.ar    1  UNL1        0.0955
      3 N          -4.4442  -16.3418   23.0925 N.ar    1  UNL1       -0.2292
      4 C          -3.5279  -17.1646   22.2362 C.ar    1  UNL1        0.1481
      5 C          -2.1065  -16.9604   21.8027 C.ar    1  UNL1        0.0488
      6 C          -1.4363  -17.9764   20.9262 C.ar    1  UNL1        0.0622
      7 CL         -0.0149  -17.7722   20.4927 Cl      1  UNL1       -0.0821
      8 C          -2.1876  -19.1968   20.4831 C.ar    1  UNL1        0.0305
      9 C          -3.6089  -19.4011   20.9165 C.ar    1  UNL1        0.0820
     10 N          -4.2791  -18.3850   21.7931 N.ar    1  UNL1       -0.2928
     11 C          -6.7473  -19.3322   22.1878 C.3     1  UNL1        0.0514
     12 C          -7.2786  -19.6171   20.8144 C.3     1  UNL1        0.0480
     13 O          -9.1914  -18.7015   19.3134 O.co2   1  UNL1       -0.5492
     14 C          -8.7425  -19.4579   20.5285 C.2     1  UNL1        0.0507
     15 O          -9.7574  -20.0550   21.4576 O.co2   1  UNL1       -0.5492
     16 C          -6.9693  -16.5849   23.9349 C.3     1  UNL1        0.1575
     17 N          -8.3324  -16.7045   23.3203 N.ar    1  UNL1       -0.2726
     18 C          -8.7904  -16.0412   22.0552 C.ar    1  UNL1        0.3318
     19 O          -7.9658  -15.1418   21.1828 O.2     1  UNL1       -0.2463
     20 N         -10.2178  -16.4351   21.8158 N.ar    1  UNL1       -0.2817
     21 C         -10.6420  -17.3419   22.9329 C.ar    1  UNL1        0.0827
     22 C         -11.9387  -18.0375   23.2236 C.ar    1  UNL1        0.0395
     23 C         -12.0703  -18.8997   24.4441 C.ar    1  UNL1        0.1005
     24 N         -10.9050  -19.0661   25.3738 N.ar    1  UNL1       -0.2407
     25 C          -9.6082  -18.3705   25.0832 C.ar    1  UNL1        0.1176
     26 C          -9.4767  -17.5084   23.8627 C.ar    1  UNL1        0.0992
     27 C         -11.0712  -15.9989   20.6620 C.3     1  UNL1        0.0900
     28 C         -12.4253  -15.8251   20.0404 C.3     1  UNL1        0.0246
     29 C         -11.1953  -15.4171   19.2849 C.3     1  UNL1        0.0246
@<TRIPOS>UNITY_ATOM_ATTR
13 1
charge -1
@<TRIPOS>BOND
     1    13    14   ar
     2    14    15   ar
     3    14    12    1
     4    12    11    1
     5    11     1    1
     6     1     2   ar
     7     2    16    1
     8    16    17    1
     9    17    18   ar
    10    18    19    2
    11    18    20   ar
    12    20    27    1
    13    27    28    1
    14    28    29    1
    15    20    21   ar
    16    21    22   ar
    17    22    23   ar
    18    23    24   ar
    19    24    25   ar
    20    25    26   ar
    21     2     3   ar
    22     3     4   ar
    23     4     5   ar
    24     5     6   ar
    25     6     7    1
    26     6     8   ar
    27     8     9   ar
    28     9    10   ar
    29    10     1   ar
    30    26    17   ar
    31    10     4   ar
    32    29    27    1
    33    26    21   ar
@<TRIPOS>MOLECULE
*****
 29 33 0 0 0
SMALL
GASTEIGER

@<TRIPOS>ATOM
      1 C          -5.2912  -18.5397   22.3347 C.ar    1  UNL1        0.0585
      2 C          -5.7565  -19.7296   21.5488 C.ar    1  UNL1        0.0955
      3 N          -4.6793  -20.0874   20.5682 N.ar    1  UNL1       -0.2292
      4 C          -3.5482  -19.1186   20.7480 C.ar    1  UNL1        0.1481
      5 C          -2.2229  -18.9839   20.0587 C.ar    1  UNL1        0.0488
      6 C          -1.2757  -17.8927   20.4612 C.ar    1  UNL1        0.0622
      7 CL          0.0497  -17.7579   19.7718 Cl      1  UNL1       -0.0821
      8 C          -1.6540  -16.9361   21.5529 C.ar    1  UNL1        0.0305
      9 C          -2.9793  -17.0708   22.2422 C.ar    1  UNL1        0.0820
     10 N          -3.9265  -18.1621   21.8398 N.ar    1  UNL1       -0.2928
     11 C          -6.0564  -17.8487   23.4242 C.3     1  UNL1        0.0514
     12 C          -6.3712  -16.3867   23.3085 C.3     1  UNL1        0.0480
     13 O          -8.8463  -15.9574   23.9714 O.co2   1  UNL1       -0.5492
     14 C          -7.7566  -15.9446   22.9407 C.2     1  UNL1        0.0507
     15 O          -8.0522  -15.4898   21.5422 O.co2   1  UNL1       -0.5492
     16 C          -7.0686  -20.4374   21.7144 C.3     1  UNL1        0.1575
     17 N          -8.3410  -19.6479   21.8002 N.ar    1  UNL1       -0.2726
     18 C          -8.9165  -18.7826   20.7185 C.ar    1  UNL1        0.3318
     19 O          -8.3204  -18.5549   19.3610 O.2     1  UNL1       -0.2463
     20 N         -10.1926  -18.1850   21.2325 N.ar    1  UNL1       -0.2817
     21 C         -10.4060  -18.6809   22.6321 C.ar    1  UNL1        0.0827
     22 C         -11.4943  -18.4261   23.6322 C.ar    1  UNL1        0.0395
     23 C         -11.4384  -19.0753   24.9834 C.ar    1  UNL1        0.1005
     24 N         -10.2941  -19.9794   25.3341 N.ar    1  UNL1       -0.2407
     25 C          -9.2056  -20.2344   24.3339 C.ar    1  UNL1        0.1176
     26 C          -9.2616  -19.5851   22.9829 C.ar    1  UNL1        0.0992
     27 C         -11.0967  -17.2548   20.4794 C.3     1  UNL1        0.0900
     28 C         -11.3406  -16.3374   19.3179 C.3     1  UNL1        0.0246
     29 C         -12.4189  -16.5608   20.3364 C.3     1  UNL1        0.0246
@<TRIPOS>UNITY_ATOM_ATTR
13 1
charge -1
@<TRIPOS>BOND
     1    13    14   ar
     2    14    15   ar
     3    14    12    1
     4    12    11    1
     5    11     1    1
     6     1     2   ar
     7     2    16    1
     8    16    17    1
     9    17    18   ar
    10    18    19    2
    11    18    20   ar
    12    20    27    1
    13    27    28    1
    14    28    29    1
    15    20    21   ar
    16    21    22   ar
    17    22    23   ar
    18    23    24   ar
    19    24    25   ar
    20    25    26   ar
    21     2     3   ar
    22     3     4   ar
    23     4     5   ar
    24     5     6   ar
    25     6     7    1
    26     6     8   ar
    27     8     9   ar
    28     9    10   ar
    29    10     1   ar
    30    26    17   ar
    31    10     4   ar
    32    29    27    1
    33    26    21   ar
@<TRIPOS>MOLECULE
*****
 29 33 0 0 0
SMALL
GASTEIGER

@<TRIPOS>ATOM
      1 C          -8.8207  -19.4628   20.8989 C.ar    1  UNL1        0.0585
      2 C          -7.9736  -19.8905   22.0606 C.ar    1  UNL1        0.0955
      3 N          -8.7664  -19.6766   23.3159 N.ar    1  UNL1       -0.2292
      4 C         -10.1034  -19.1166   22.9300 C.ar    1  UNL1        0.1481
      5 C         -11.2945  -18.7099   23.7459 C.ar    1  UNL1        0.0488
      6 C         -12.5193  -18.1711   23.0680 C.ar    1  UNL1        0.0622
      7 CL        -13.7105  -17.7644   23.8839 Cl      1  UNL1       -0.0821
      8 C         -12.5529  -18.0390   21.5742 C.ar    1  UNL1        0.0305
      9 C         -11.3617  -18.4456   20.7583 C.ar    1  UNL1        0.0820
     10 N         -10.1369  -18.9844   21.4362 N.ar    1  UNL1       -0.2928
     11 C          -8.4216  -19.5058   19.4536 C.3     1  UNL1        0.0514
     12 C          -9.3522  -20.0955   18.4358 C.3     1  UNL1        0.0480
     13 O          -9.4359  -21.4598   16.2263 O.co2   1  UNL1       -0.5492
     14 C          -8.9220  -21.2814   17.6242 C.2     1  UNL1        0.0507
     15 O          -7.9780  -22.2888   18.2105 O.co2   1  UNL1       -0.5492
     16 C          -6.5788  -20.4364   21.9809 C.3     1  UNL1        0.1575
     17 N          -5.4193  -19.5057   21.7824 N.ar    1  UNL1       -0.2726
     18 C          -4.2695  -19.7176   20.8426 C.ar    1  UNL1        0.3318
     19 O          -4.0773  -20.8974   19.9365 O.2     1  UNL1       -0.2463
     20 N          -3.3456  -18.5426   20.9681 N.ar    1  UNL1       -0.2817
     21 C          -3.9245  -17.6044   21.9854 C.ar    1  UNL1        0.0827
     22 C          -3.4502  -16.2851   22.5185 C.ar    1  UNL1        0.0395
     23 C          -4.2574  -15.5609   23.5549 C.ar    1  UNL1        0.1005
     24 N          -5.5390  -16.1561   24.0581 N.ar    1  UNL1       -0.2407
     25 C          -6.0134  -17.4756   23.5250 C.ar    1  UNL1        0.1176
     26 C          -5.2061  -18.1997   22.4886 C.ar    1  UNL1        0.0992
     27 C          -2.0675  -18.3410   20.2096 C.3     1  UNL1        0.0900
     28 C          -1.3525  -17.9726   18.9433 C.3     1  UNL1        0.0246
     29 C          -0.5683  -18.3604   20.1618 C.3     1  UNL1        0.0246
@<TRIPOS>UNITY_ATOM_ATTR
13 1
charge -1
@<TRIPOS>BOND
     1    13    14   ar
     2    14    15   ar
     3    14    12    1
     4    12    11    1
     5    11     1    1
     6     1     2   ar
     7     2    16    1
     8    16    17    1
     9    17    18   ar
    10    18    19    2
    11    18    20   ar
    12    20    27    1
    13    27    28    1
    14    28    29    1
    15    20    21   ar
    16    21    22   ar
    17    22    23   ar
    18    23    24   ar
    19    24    25   ar
    20    25    26   ar
    21     2     3   ar
    22     3     4   ar
    23     4     5   ar
    24     5     6   ar
    25     6     7    1
    26     6     8   ar
    27     8     9   ar
    28     9    10   ar
    29    10     1   ar
    30    26    17   ar
    31    10     4   ar
    32    29    27    1
    33    26    21   ar
@<TRIPOS>MOLECULE
*****
 29 33 0 0 0
SMALL
GASTEIGER

@<TRIPOS>ATOM
      1 C         -10.3500  -18.7200   21.8476 C.ar    1  UNL1        0.0585
      2 C          -9.2697  -19.3675   22.6623 C.ar    1  UNL1        0.0955
      3 N          -9.8015  -19.5849   24.0479 N.ar    1  UNL1       -0.2292
      4 C         -11.2104  -19.0718   24.0896 C.ar    1  UNL1        0.1481
      5 C         -12.2284  -19.0223   25.1901 C.ar    1  UNL1        0.0488
      6 C         -13.5854  -18.4382   24.9307 C.ar    1  UNL1        0.0622
      7 CL        -14.6035  -18.3887   26.0312 Cl      1  UNL1       -0.0821
      8 C         -13.9244  -17.9037   23.5708 C.ar    1  UNL1        0.0305
      9 C         -12.9064  -17.9532   22.4702 C.ar    1  UNL1        0.0820
     10 N         -11.5494  -18.5373   22.7296 N.ar    1  UNL1       -0.2928
     11 C         -10.2487  -18.3247   20.4041 C.3     1  UNL1        0.0514
     12 C         -10.2797  -19.3758   19.3346 C.3     1  UNL1        0.0480
     13 O          -7.7033  -19.2048   19.0462 O.co2   1  UNL1       -0.5492
     14 C          -8.9964  -19.9151   18.7756 C.2     1  UNL1        0.0507
     15 O          -9.0063  -21.1648   17.9459 O.co2   1  UNL1       -0.5492
     16 C          -7.8985  -19.7333   22.1766 C.3     1  UNL1        0.1575
     17 N          -6.7418  -18.8135   22.4333 N.ar    1  UNL1       -0.2726
     18 C          -5.3338  -19.0130   21.9559 C.ar    1  UNL1        0.3318
     19 O          -4.8354  -20.1674   21.1381 O.2     1  UNL1       -0.2463
     20 N          -4.5117  -17.8555   22.4400 N.ar    1  UNL1       -0.2817
     21 C          -5.4116  -16.9405   23.2166 C.ar    1  UNL1        0.0827
     22 C          -5.1541  -15.6447   23.9269 C.ar    1  UNL1        0.0395
     23 C          -6.2749  -14.9410   24.6332 C.ar    1  UNL1        0.1005
     24 N          -7.6530  -15.5330   24.6290 N.ar    1  UNL1       -0.2407
     25 C          -7.9106  -16.8289   23.9187 C.ar    1  UNL1        0.1176
     26 C          -6.7899  -17.5326   23.2124 C.ar    1  UNL1        0.0992
     27 C          -3.0470  -17.6491   22.1912 C.3     1  UNL1        0.0900
     28 C          -1.6453  -18.1829   22.1685 C.3     1  UNL1        0.0246
     29 C          -1.9115  -16.7580   21.7829 C.3     1  UNL1        0.0246
@<TRIPOS>UNITY_ATOM_ATTR
13 1
charge -1
@<TRIPOS>BOND
     1    13    14   ar
     2    14    15   ar
     3    14    12    1
     4    12    11    1
     5    11     1    1
     6     1     2   ar
     7     2    16    1
     8    16    17    1
     9    17    18   ar
    10    18    19    2
    11    18    20   ar
    12    20    27    1
    13    27    28    1
    14    28    29    1
    15    20    21   ar
    16    21    22   ar
    17    22    23   ar
    18    23    24   ar
    19    24    25   ar
    20    25    26   ar
    21     2     3   ar
    22     3     4   ar
    23     4     5   ar
    24     5     6   ar
    25     6     7    1
    26     6     8   ar
    27     8     9   ar
    28     9    10   ar
    29    10     1   ar
    30    26    17   ar
    31    10     4   ar
    32    29    27    1
    33    26    21   ar
@<TRIPOS>MOLECULE
*****
 29 33 0 0 0
SMALL
GASTEIGER

@<TRIPOS>ATOM
      1 C          -4.5494  -17.7157   22.8458 C.ar    1  UNL1        0.0585
      2 C          -5.3734  -18.8703   22.3580 C.ar    1  UNL1        0.0955
      3 N          -4.7184  -19.4189   21.1251 N.ar    1  UNL1       -0.2292
      4 C          -3.4897  -18.6034   20.8509 C.ar    1  UNL1        0.1481
      5 C          -2.4525  -18.6834   19.7703 C.ar    1  UNL1        0.0488
      6 C          -1.3108  -17.7107   19.7532 C.ar    1  UNL1        0.0622
      7 CL         -0.2735  -17.7906   18.6725 Cl      1  UNL1       -0.0821
      8 C          -1.2063  -16.6580   20.8166 C.ar    1  UNL1        0.0305
      9 C          -2.2435  -16.5781   21.8973 C.ar    1  UNL1        0.0820
     10 N          -3.3852  -17.5508   21.9144 N.ar    1  UNL1       -0.2928
     11 C          -4.8387  -16.8738   24.0531 C.3     1  UNL1        0.0514
     12 C          -5.3288  -15.4661   23.8859 C.3     1  UNL1        0.0480
     13 O          -7.3269  -15.4216   22.2259 O.co2   1  UNL1       -0.5492
     14 C          -6.7791  -15.2051   23.6053 C.2     1  UNL1        0.0507
     15 O          -7.6815  -14.7277   24.7043 O.co2   1  UNL1       -0.5492
     16 C          -6.6314  -19.3857   22.9918 C.3     1  UNL1        0.1575
     17 N          -7.9670  -19.0073   22.4236 N.ar    1  UNL1       -0.2726
     18 C          -9.0408  -18.2367   23.1330 C.ar    1  UNL1        0.3318
     19 O          -8.9673  -17.7093   24.5353 O.2     1  UNL1       -0.2463
     20 N         -10.2008  -18.0862   22.1940 N.ar    1  UNL1       -0.2817
     21 C          -9.8440  -18.7638   20.9042 C.ar    1  UNL1        0.0827
     22 C         -10.5978  -18.9360   19.6189 C.ar    1  UNL1        0.0395
     23 C          -9.9711  -19.6775   18.4754 C.ar    1  UNL1        0.1005
     24 N          -8.5906  -20.2467   18.6173 N.ar    1  UNL1       -0.2407
     25 C          -7.8367  -20.0745   19.9026 C.ar    1  UNL1        0.1176
     26 C          -8.4634  -19.3331   21.0461 C.ar    1  UNL1        0.0992
     27 C         -11.4910  -17.3818   22.4924 C.3     1  UNL1        0.0900
     28 C         -12.8626  -17.3851   23.0998 C.3     1  UNL1        0.0246
     29 C         -12.3543  -16.1584   22.4019 C.3     1  UNL1        0.0246
@<TRIPOS>UNITY_ATOM_ATTR
13 1
charge -1
@<TRIPOS>BOND
     1    13    14   ar
     2    14    15   ar
     3    14    12    1
     4    12    11    1
     5    11     1    1
     6     1     2   ar
     7     2    16    1
     8    16    17    1
     9    17    18   ar
    10    18    19    2
    11    18    20   ar
    12    20    27    1
    13    27    28    1
    14    28    29    1
    15    20    21   ar
    16    21    22   ar
    17    22    23   ar
    18    23    24   ar
    19    24    25   ar
    20    25    26   ar
    21     2     3   ar
    22     3     4   ar
    23     4     5   ar
    24     5     6   ar
    25     6     7    1
    26     6     8   ar
    27     8     9   ar
    28     9    10   ar
    29    10     1   ar
    30    26    17   ar
    31    10     4   ar
    32    29    27    1
    33    26    21   ar
@<TRIPOS>MOLECULE
*****
 29 33 0 0 0
SMALL
GASTEIGER

@<TRIPOS>ATOM
      1 C         -11.0516  -18.6241   21.4105 C.ar    1  UNL1        0.0585
      2 C          -9.8522  -19.3084   21.9962 C.ar    1  UNL1        0.0955
      3 N         -10.1399  -19.5922   23.4408 N.ar    1  UNL1       -0.2292
      4 C         -11.5171  -19.0833   23.7478 C.ar    1  UNL1        0.1481
      5 C         -12.3309  -19.0875   25.0078 C.ar    1  UNL1        0.0488
      6 C         -13.7081  -18.4933   25.0131 C.ar    1  UNL1        0.0622
      7 CL        -14.5220  -18.4975   26.2732 Cl      1  UNL1       -0.0821
      8 C         -14.2716  -17.8950   23.7583 C.ar    1  UNL1        0.0305
      9 C         -13.4579  -17.8908   22.4983 C.ar    1  UNL1        0.0820
     10 N         -12.0806  -18.4850   22.4930 N.ar    1  UNL1       -0.2928
     11 C         -11.1966  -18.1603   19.9914 C.3     1  UNL1        0.0514
     12 C         -11.6850  -16.7719   19.7023 C.3     1  UNL1        0.0480
     13 O         -10.6845  -14.6622   18.5629 O.co2   1  UNL1       -0.5492
     14 C         -10.7236  -15.6205   19.7161 C.2     1  UNL1        0.0507
     15 O          -9.8013  -15.4275   20.8832 O.co2   1  UNL1       -0.5492
     16 C          -8.5871  -19.6490   21.2657 C.3     1  UNL1        0.1575
     17 N          -7.2836  -19.0500   21.7037 N.ar    1  UNL1       -0.2726
     18 C          -7.1167  -17.8876   22.6371 C.ar    1  UNL1        0.3318
     19 O          -8.2243  -17.1203   23.2963 O.2     1  UNL1       -0.2463
     20 N          -5.6480  -17.6274   22.7956 N.ar    1  UNL1       -0.2817
     21 C          -4.9070  -18.6289   21.9601 C.ar    1  UNL1        0.0827
     22 C          -3.4426  -18.8539   21.7266 C.ar    1  UNL1        0.0395
     23 C          -2.9888  -19.9581   20.8182 C.ar    1  UNL1        0.1005
     24 N          -3.9996  -20.8372   20.1435 N.ar    1  UNL1       -0.2407
     25 C          -5.4642  -20.6123   20.3770 C.ar    1  UNL1        0.1176
     26 C          -5.9179  -19.5082   21.2853 C.ar    1  UNL1        0.0992
     27 C          -5.0290  -16.5542   23.6410 C.3     1  UNL1        0.0900
     28 C          -4.5924  -16.0483   24.9840 C.3     1  UNL1        0.0246
     29 C          -4.3932  -15.2009   23.7624 C.3     1  UNL1        0.0246
@<TRIPOS>UNITY_ATOM_ATTR
13 1
charge -1
@<TRIPOS>BOND
     1    13    14   ar
     2    14    15   ar
     3    14    12    1
     4    12    11    1
     5    11     1    1
     6     1     2   ar
     7     2    16    1
     8    16    17    1
     9    17    18   ar
    10    18    19    2
    11    18    20   ar
    12    20    27    1
    13    27    28    1
    14    28    29    1
    15    20    21   ar
    16    21    22   ar
    17    22    23   ar
    18    23    24   ar
    19    24    25   ar
    20    25    26   ar
    21     2     3   ar
    22     3     4   ar
    23     4     5   ar
    24     5     6   ar
    25     6     7    1
    26     6     8   ar
    27     8     9   ar
    28     9    10   ar
    29    10     1   ar
    30    26    17   ar
    31    10     4   ar
    32    29    27    1
    33    26    21   ar
@<TRIPOS>MOLECULE
*****
 29 33 0 0 0
SMALL
GASTEIGER

@<TRIPOS>ATOM
      1 C          -8.7065  -16.7252   23.8992 C.ar    1  UNL1        0.0585
      2 C          -7.5139  -16.9235   23.0112 C.ar    1  UNL1        0.0955
      3 N          -7.9765  -16.8342   21.5871 N.ar    1  UNL1       -0.2292
      4 C          -9.4549  -16.5808   21.5949 C.ar    1  UNL1        0.1481
      5 C         -10.4486  -16.4026   20.4855 C.ar    1  UNL1        0.0488
      6 C         -11.8934  -16.1572   20.8051 C.ar    1  UNL1        0.0622
      7 CL        -12.8872  -15.9790   19.6956 Cl      1  UNL1       -0.0821
      8 C         -12.3446  -16.0898   22.2340 C.ar    1  UNL1        0.0305
      9 C         -11.3509  -16.2679   23.3435 C.ar    1  UNL1        0.0820
     10 N          -9.9061  -16.5134   23.0239 N.ar    1  UNL1       -0.2928
     11 C          -8.7005  -16.7368   25.3991 C.3     1  UNL1        0.0514
     12 C          -8.2049  -15.5407   26.1564 C.3     1  UNL1        0.0480
     13 O          -5.7657  -14.6827   25.9030 O.co2   1  UNL1       -0.5492
     14 C          -6.7865  -15.4956   26.6426 C.2     1  UNL1        0.0507
     15 O          -6.3891  -16.2635   27.8683 O.co2   1  UNL1       -0.5492
     16 C          -6.1060  -17.1681   23.4672 C.3     1  UNL1        0.1575
     17 N          -5.1026  -17.7569   22.5205 N.ar    1  UNL1       -0.2726
     18 C          -3.7595  -17.1780   22.1871 C.ar    1  UNL1        0.3318
     19 O          -3.1842  -15.9088   22.7420 O.2     1  UNL1       -0.2463
     20 N          -3.0928  -18.0913   21.2014 N.ar    1  UNL1       -0.2817
     21 C          -4.0239  -19.2346   20.9256 C.ar    1  UNL1        0.0827
     22 C          -3.9012  -20.4371   20.0375 C.ar    1  UNL1        0.0395
     23 C          -5.0205  -21.4331   19.9645 C.ar    1  UNL1        0.1005
     24 N          -6.2625  -21.2264   20.7797 N.ar    1  UNL1       -0.2407
     25 C          -6.3853  -20.0238   21.6679 C.ar    1  UNL1        0.1176
     26 C          -5.2660  -19.0279   21.7408 C.ar    1  UNL1        0.0992
     27 C          -1.7338  -17.8956   20.5976 C.3     1  UNL1        0.0900
     28 C          -0.6016  -16.9902   20.2121 C.3     1  UNL1        0.0246
     29 C          -0.5119  -18.4621   19.9372 C.3     1  UNL1        0.0246
@<TRIPOS>UNITY_ATOM_ATTR
13 1
charge -1
@<TRIPOS>BOND
     1    13    14   ar
     2    14    15   ar
     3    14    12    1
     4    12    11    1
     5    11     1    1
     6     1     2   ar
     7     2    16    1
     8    16    17    1
     9    17    18   ar
    10    18    19    2
    11    18    20   ar
    12    20    27    1
    13    27    28    1
    14    28    29    1
    15    20    21   ar
    16    21    22   ar
    17    22    23   ar
    18    23    24   ar
    19    24    25   ar
    20    25    26   ar
    21     2     3   ar
    22     3     4   ar
    23     4     5   ar
    24     5     6   ar
    25     6     7    1
    26     6     8   ar
    27     8     9   ar
    28     9    10   ar
    29    10     1   ar
    30    26    17   ar
    31    10     4   ar
    32    29    27    1
    33    26    21   ar
@<TRIPOS>MOLECULE
*****
 29 33 0 0 0
SMALL
GASTEIGER

@<TRIPOS>ATOM
      1 C          -7.2172  -18.6504   22.4856 C.ar    1  UNL1        0.0585
      2 C          -7.6343  -19.5523   21.3620 C.ar    1  UNL1        0.0955
      3 N          -6.4207  -19.8512   20.5327 N.ar    1  UNL1       -0.2292
      4 C          -5.2535  -19.1341   21.1437 C.ar    1  UNL1        0.1481
      5 C          -3.8061  -19.0609   20.7570 C.ar    1  UNL1        0.0488
      6 C          -2.8510  -18.2456   21.5773 C.ar    1  UNL1        0.0622
      7 CL         -1.4035  -18.1725   21.1906 Cl      1  UNL1       -0.0821
      8 C          -3.3432  -17.5034   22.7842 C.ar    1  UNL1        0.0305
      9 C          -4.7906  -17.5766   23.1710 C.ar    1  UNL1        0.0820
     10 N          -5.7458  -18.3919   22.3507 N.ar    1  UNL1       -0.2928
     11 C          -8.1140  -18.1030   23.5561 C.3     1  UNL1        0.0514
     12 C          -8.6927  -16.7261   23.4183 C.3     1  UNL1        0.0480
     13 O          -6.9077  -14.8891   23.8534 O.co2   1  UNL1       -0.5492
     14 C          -7.8382  -15.6001   22.9161 C.2     1  UNL1        0.0507
     15 O          -7.9143  -15.1852   21.4766 O.co2   1  UNL1       -0.5492
     16 C          -9.0215  -20.0652   21.1116 C.3     1  UNL1        0.1575
     17 N         -10.2086  -19.2762   21.5788 N.ar    1  UNL1       -0.2726
     18 C         -11.0158  -19.5459   22.8140 C.ar    1  UNL1        0.3318
     19 O         -10.7776  -20.6519   23.7988 O.2     1  UNL1       -0.2463
     20 N         -12.1030  -18.5153   22.8915 N.ar    1  UNL1       -0.2817
     21 C         -11.9677  -17.6087   21.7041 C.ar    1  UNL1        0.0827
     22 C         -12.7593  -16.4158   21.2568 C.ar    1  UNL1        0.0395
     23 C         -12.3802  -15.6930   19.9982 C.ar    1  UNL1        0.1005
     24 N         -11.2094  -16.1633   19.1870 N.ar    1  UNL1       -0.2407
     25 C         -10.4177  -17.3563   19.6343 C.ar    1  UNL1        0.1176
     26 C         -10.7969  -18.0790   20.8928 C.ar    1  UNL1        0.0992
     27 C         -13.1429  -18.4099   23.9673 C.3     1  UNL1        0.0900
     28 C         -13.5316  -18.5103   25.4126 C.3     1  UNL1        0.0246
     29 C         -14.5554  -18.1269   24.3855 C.3     1  UNL1        0.0246
@<TRIPOS>UNITY_ATOM_ATTR
13 1
charge -1
@<TRIPOS>BOND
     1    13    14   ar
     2    14    15   ar
     3    14    12    1
     4    12    11    1
     5    11     1    1
     6     1     2   ar
     7     2    16    1
     8    16    17    1
     9    17    18   ar
    10    18    19    2
    11    18    20   ar
    12    20    27    1
    13    27    28    1
    14    28    29    1
    15    20    21   ar
    16    21    22   ar
    17    22    23   ar
    18    23    24   ar
    19    24    25   ar
    20    25    26   ar
    21     2     3   ar
    22     3     4   ar
    23     4     5   ar
    24     5     6   ar
    25     6     7    1
    26     6     8   ar
    27     8     9   ar
    28     9    10   ar
    29    10     1   ar
    30    26    17   ar
    31    10     4   ar
    32    29    27    1
    33    26    21   ar
