@<TRIPOS>MOLECULE
*****
 32 35 0 0 0
SMALL
GASTEIGER

@<TRIPOS>ATOM
      1 C          -8.8870  -18.1067   22.0679 C.2     1  UNL1        0.1397
      2 C          -7.4187  -17.9032   21.8387 C.2     1  UNL1        0.1355
      3 N          -6.6112  -17.1010   22.8156 N.pl3   1  UNL1       -0.1998
      4 C          -7.2720  -16.5023   24.0218 C.2     1  UNL1        0.3442
      5 N          -8.7403  -16.7059   24.2510 N.2     1  UNL1       -0.0580
      6 C          -9.5478  -17.5081   23.2741 C.3     1  UNL1        0.2692
      7 H          -5.6475  -16.9674   22.6651 H       1  UNL1        0.2983
      8 C         -11.0162  -17.7116   23.5034 C.ar    1  UNL1        0.0371
      9 C         -12.0110  -16.7987   22.8499 C.ar    1  UNL1        0.0030
     10 C         -13.4793  -17.0022   23.0792 C.ar    1  UNL1        0.0295
     11 C         -13.9529  -18.1187   23.9620 C.ar    1  UNL1        0.1406
     12 F         -15.4212  -18.3222   24.1913 F       1  UNL1       -0.2042
     13 C         -12.9581  -19.0316   24.6155 C.ar    1  UNL1        0.0362
     14 C         -11.4898  -18.8281   24.3862 C.ar    1  UNL1        0.0372
     15 BR        -10.4950  -19.7410   25.0397 Br      1  UNL1       -0.0491
     16 C          -6.4645  -15.7001   24.9987 C.ar    1  UNL1        0.1931
     17 N          -5.1887  -14.9705   24.6988 N.ar    1  UNL1       -0.2297
     18 C          -4.7267  -14.3061   25.9618 C.ar    1  UNL1        0.1067
     19 C          -5.7170  -14.6251   27.0423 C.ar    1  UNL1        0.0577
     20 S          -6.7910  -15.4867   26.4471 S.2     1  UNL1       -0.0586
     21 C          -9.6946  -18.9089   21.0910 C.2     1  UNL1        0.3447
     22 O         -10.0835  -20.3198   21.4195 O.2     1  UNL1       -0.2450
     23 O         -10.1131  -18.3002   19.7855 O.3     1  UNL1       -0.4455
     24 C         -11.3745  -16.0497   19.4792 C.3     1  UNL1        0.0513
     25 C         -11.3994  -17.5341   19.6934 C.3     1  UNL1        0.2089
     26 C          -6.7579  -18.5018   20.6324 C.3     1  UNL1        0.1405
     27 N          -5.3011  -18.8567   20.6740 N.3     1  UNL1       -0.2617
     28 C          -4.7039  -19.4285   21.9255 C.3     1  UNL1        0.1050
     29 C          -3.2470  -19.7834   21.9671 C.3     1  UNL1        0.1595
     30 O          -2.3874  -19.5664   20.7571 O.3     1  UNL1       -0.3508
     31 C          -2.9846  -18.9946   19.5056 C.3     1  UNL1        0.1595
     32 C          -4.4414  -18.6397   19.4640 C.3     1  UNL1        0.1050
@<TRIPOS>BOND
     1    24    25    1
     2    25    23    1
     3    23    21    1
     4    21    22    2
     5    21     1    1
     6     1     2    2
     7     2    26    1
     8    26    27    1
     9    27    28    1
    10    28    29    1
    11    29    30    1
    12    30    31    1
    13    31    32    1
    14     2     3    1
    15     3     4    1
    16     4    16    1
    17    16    17   ar
    18    17    18   ar
    19    18    19   ar
    20    19    20   ar
    21     4     5    2
    22     5     6    1
    23     6     8    1
    24     8     9   ar
    25     9    10   ar
    26    10    11   ar
    27    11    12    1
    28    11    13   ar
    29    13    14   ar
    30    14    15    1
    31     6     1    1
    32    14     8   ar
    33    32    27    1
    34    20    16   ar
    35     3     7    1
@<TRIPOS>MOLECULE
*****
 32 35 0 0 0
SMALL
GASTEIGER

@<TRIPOS>ATOM
      1 C           6.3015   -2.6147   22.8781 C.2     1  UNL1        0.1397
      2 C           6.6835   -2.8336   24.3120 C.2     1  UNL1        0.1355
      3 N           5.8284   -2.2738   25.4099 N.pl3   1  UNL1       -0.1998
      4 C           4.5912   -1.4949   25.0739 C.2     1  UNL1        0.3442
      5 N           4.2092   -1.2760   23.6400 N.2     1  UNL1       -0.0580
      6 C           5.0643   -1.8358   22.5421 C.3     1  UNL1        0.2692
      7 H           6.0791   -2.4175   26.3510 H       1  UNL1        0.2983
      8 C           4.6823   -1.6169   21.1082 C.ar    1  UNL1        0.0371
      9 C           3.9329   -2.6799   20.3609 C.ar    1  UNL1        0.0030
     10 C           3.5508   -2.4610   18.9271 C.ar    1  UNL1        0.0295
     11 C           3.9181   -1.1789   18.2403 C.ar    1  UNL1        0.1406
     12 F           3.5361   -0.9600   16.8064 F       1  UNL1       -0.2042
     13 C           4.6676   -0.1159   18.9875 C.ar    1  UNL1        0.0362
     14 C           5.0496   -0.3349   20.4215 C.ar    1  UNL1        0.0372
     15 BR          5.7991    0.7281   21.1687 Br      1  UNL1       -0.0491
     16 C           3.7361   -0.9351   26.1718 C.ar    1  UNL1        0.1931
     17 N           3.4562   -1.5895   27.4921 N.ar    1  UNL1       -0.2297
     18 C           2.5579   -0.6814   28.2784 C.ar    1  UNL1        0.1067
     19 C           2.2826    0.5344   27.4441 C.ar    1  UNL1        0.0577
     20 S           3.0108    0.3776   26.1421 S.2     1  UNL1       -0.0586
     21 C           7.1566   -3.1745   21.7802 C.2     1  UNL1        0.3447
     22 O           6.8909   -4.5529   21.2515 O.2     1  UNL1       -0.2450
     23 O           8.2773   -2.3561   21.2111 O.3     1  UNL1       -0.4455
     24 C           7.6626   -2.2170   18.6906 C.3     1  UNL1        0.0513
     25 C           8.6623   -2.5111   19.7696 C.3     1  UNL1        0.2089
     26 C           7.9206   -3.6125   24.6481 C.3     1  UNL1        0.1405
     27 N           7.8283   -5.0835   24.9264 N.3     1  UNL1       -0.2617
     28 C           8.4834   -6.0647   24.0000 C.3     1  UNL1        0.1050
     29 C           8.3911   -7.5358   24.2784 C.3     1  UNL1        0.1595
     30 O           7.6436   -8.0256   25.4830 O.3     1  UNL1       -0.3508
     31 C           6.9885   -7.0445   26.4094 C.3     1  UNL1        0.1595
     32 C           7.0808   -5.5735   26.1311 C.3     1  UNL1        0.1050
@<TRIPOS>BOND
     1    24    25    1
     2    25    23    1
     3    23    21    1
     4    21    22    2
     5    21     1    1
     6     1     2    2
     7     2    26    1
     8    26    27    1
     9    27    28    1
    10    28    29    1
    11    29    30    1
    12    30    31    1
    13    31    32    1
    14     2     3    1
    15     3     4    1
    16     4    16    1
    17    16    17   ar
    18    17    18   ar
    19    18    19   ar
    20    19    20   ar
    21     4     5    2
    22     5     6    1
    23     6     8    1
    24     8     9   ar
    25     9    10   ar
    26    10    11   ar
    27    11    12    1
    28    11    13   ar
    29    13    14   ar
    30    14    15    1
    31     6     1    1
    32    14     8   ar
    33    32    27    1
    34    20    16   ar
    35     3     7    1
@<TRIPOS>MOLECULE
*****
 32 35 0 0 0
SMALL
GASTEIGER

@<TRIPOS>ATOM
      1 C           6.5799   -3.5223   24.5312 C.2     1  UNL1        0.1397
      2 C           6.6495   -3.4194   26.0260 C.2     1  UNL1        0.1355
      3 N           5.6592   -2.5699   26.7662 N.pl3   1  UNL1       -0.1998
      4 C           4.5994   -1.8234   26.0115 C.2     1  UNL1        0.3442
      5 N           4.5299   -1.9264   24.5167 N.2     1  UNL1       -0.0580
      6 C           5.5201   -2.7758   23.7765 C.3     1  UNL1        0.2692
      7 H           5.7049   -2.5024   27.7473 H       1  UNL1        0.2983
      8 C           5.4505   -2.8787   22.2816 C.ar    1  UNL1        0.0371
      9 C           4.6169   -3.9489   21.6416 C.ar    1  UNL1        0.0030
     10 C           4.5472   -4.0518   20.1468 C.ar    1  UNL1        0.0295
     11 C           5.3113   -3.0845   19.2919 C.ar    1  UNL1        0.1406
     12 F           5.2417   -3.1875   17.7971 F       1  UNL1       -0.2042
     13 C           6.1450   -2.0144   19.9320 C.ar    1  UNL1        0.0362
     14 C           6.2146   -1.9115   21.4269 C.ar    1  UNL1        0.0372
     15 BR          7.0483   -0.8413   22.0670 Br      1  UNL1       -0.0491
     16 C           3.6092   -0.9740   26.7517 C.ar    1  UNL1        0.1931
     17 N           2.9981   -1.2907   28.0845 N.ar    1  UNL1       -0.2297
     18 C           2.0674   -0.1712   28.4456 C.ar    1  UNL1        0.1067
     19 C           2.1033    0.8375   27.3360 C.ar    1  UNL1        0.0577
     20 S           3.0561    0.3413   26.2891 S.2     1  UNL1       -0.0586
     21 C           7.5702   -4.3717   23.7910 C.2     1  UNL1        0.3447
     22 O           8.8349   -3.7619   23.2632 O.2     1  UNL1       -0.2450
     23 O           7.2958   -5.8310   23.5786 O.3     1  UNL1       -0.4455
     24 C           7.9833   -7.6681   25.2823 C.3     1  UNL1        0.0513
     25 C           8.2806   -6.8566   24.0562 C.3     1  UNL1        0.2089
     26 C           7.7093   -4.1659   26.7807 C.3     1  UNL1        0.1405
     27 N           7.6272   -4.2798   28.2741 N.3     1  UNL1       -0.2617
     28 C           8.2201   -3.2095   29.1417 C.3     1  UNL1        0.1050
     29 C           8.1379   -3.3235   30.6351 C.3     1  UNL1        0.1595
     30 O           7.4628   -4.5078   31.2609 O.3     1  UNL1       -0.3508
     31 C           6.8698   -5.5781   30.3933 C.3     1  UNL1        0.1595
     32 C           6.9520   -5.4642   28.8999 C.3     1  UNL1        0.1050
@<TRIPOS>BOND
     1    24    25    1
     2    25    23    1
     3    23    21    1
     4    21    22    2
     5    21     1    1
     6     1     2    2
     7     2    26    1
     8    26    27    1
     9    27    28    1
    10    28    29    1
    11    29    30    1
    12    30    31    1
    13    31    32    1
    14     2     3    1
    15     3     4    1
    16     4    16    1
    17    16    17   ar
    18    17    18   ar
    19    18    19   ar
    20    19    20   ar
    21     4     5    2
    22     5     6    1
    23     6     8    1
    24     8     9   ar
    25     9    10   ar
    26    10    11   ar
    27    11    12    1
    28    11    13   ar
    29    13    14   ar
    30    14    15    1
    31     6     1    1
    32    14     8   ar
    33    32    27    1
    34    20    16   ar
    35     3     7    1
@<TRIPOS>MOLECULE
*****
 32 35 0 0 0
SMALL
GASTEIGER

@<TRIPOS>ATOM
      1 C           5.3502   -2.5669   23.1881 C.2     1  UNL1        0.1397
      2 C           5.6973   -3.0578   24.5623 C.2     1  UNL1        0.1355
      3 N           5.0573   -2.4323   25.7661 N.pl3   1  UNL1       -0.1998
      4 C           4.0702   -1.3159   25.5957 C.2     1  UNL1        0.3442
      5 N           3.7230   -0.8249   24.2215 N.2     1  UNL1       -0.0580
      6 C           4.3630   -1.4504   23.0177 C.3     1  UNL1        0.2692
      7 H           5.2851   -2.7546   26.6680 H       1  UNL1        0.2983
      8 C           4.0159   -0.9594   21.6435 C.ar    1  UNL1        0.0371
      9 C           2.8358   -1.5343   20.9176 C.ar    1  UNL1        0.0030
     10 C           2.4886   -1.0433   19.5434 C.ar    1  UNL1        0.0295
     11 C           3.3215    0.0226   18.8951 C.ar    1  UNL1        0.1406
     12 F           2.9743    0.5135   17.5209 F       1  UNL1       -0.2042
     13 C           4.5016    0.5974   19.6210 C.ar    1  UNL1        0.0362
     14 C           4.8487    0.1064   20.9952 C.ar    1  UNL1        0.0372
     15 BR          6.0288    0.6813   21.7211 Br      1  UNL1       -0.0491
     16 C           3.4301   -0.6904   26.7995 C.ar    1  UNL1        0.1931
     17 N           3.1221   -1.3826   28.0941 N.ar    1  UNL1       -0.2297
     18 C           2.4874   -0.3829   29.0148 C.ar    1  UNL1        0.1067
     19 C           2.4031    0.9272   28.2893 C.ar    1  UNL1        0.0577
     20 S           2.9858    0.7372   26.9202 S.2     1  UNL1       -0.0586
     21 C           5.9902   -3.1924   21.9843 C.2     1  UNL1        0.3447
     22 O           7.3571   -2.7543   21.5489 O.2     1  UNL1       -0.2450
     23 O           5.2633   -4.2559   21.2159 O.3     1  UNL1       -0.4455
     24 C           3.9414   -4.6254   19.0099 C.3     1  UNL1        0.0513
     25 C           5.1853   -4.1795   19.7199 C.3     1  UNL1        0.2089
     26 C           6.6845   -4.1743   24.7327 C.3     1  UNL1        0.1405
     27 N           7.2709   -4.4572   26.0840 N.3     1  UNL1       -0.2617
     28 C           8.4454   -3.6627   26.5732 C.3     1  UNL1        0.1050
     29 C           9.0318   -3.9456   27.9246 C.3     1  UNL1        0.1595
     30 O           8.4437   -5.0230   28.7867 O.3     1  UNL1       -0.3508
     31 C           7.2692   -5.8176   28.2975 C.3     1  UNL1        0.1595
     32 C           6.6828   -5.5347   26.9462 C.3     1  UNL1        0.1050
@<TRIPOS>BOND
     1    24    25    1
     2    25    23    1
     3    23    21    1
     4    21    22    2
     5    21     1    1
     6     1     2    2
     7     2    26    1
     8    26    27    1
     9    27    28    1
    10    28    29    1
    11    29    30    1
    12    30    31    1
    13    31    32    1
    14     2     3    1
    15     3     4    1
    16     4    16    1
    17    16    17   ar
    18    17    18   ar
    19    18    19   ar
    20    19    20   ar
    21     4     5    2
    22     5     6    1
    23     6     8    1
    24     8     9   ar
    25     9    10   ar
    26    10    11   ar
    27    11    12    1
    28    11    13   ar
    29    13    14   ar
    30    14    15    1
    31     6     1    1
    32    14     8   ar
    33    32    27    1
    34    20    16   ar
    35     3     7    1
@<TRIPOS>MOLECULE
*****
 32 35 0 0 0
SMALL
GASTEIGER

@<TRIPOS>ATOM
      1 C           3.7891   -1.8456   21.5462 C.2     1  UNL1        0.1397
      2 C           4.3765   -2.7638   22.5766 C.2     1  UNL1        0.1355
      3 N           4.2959   -2.4079   24.0315 N.pl3   1  UNL1       -0.1998
      4 C           3.6278   -1.1338   24.4560 C.2     1  UNL1        0.3442
      5 N           3.0403   -0.2156   23.4257 N.2     1  UNL1       -0.0580
      6 C           3.1210   -0.5715   21.9707 C.3     1  UNL1        0.2692
      7 H           4.6814   -3.0105   24.7078 H       1  UNL1        0.2983
      8 C           2.5335    0.3468   20.9403 C.ar    1  UNL1        0.0371
      9 C           1.1332    0.1257   20.4498 C.ar    1  UNL1        0.0030
     10 C           0.5457    1.0439   19.4195 C.ar    1  UNL1        0.0295
     11 C           1.3584    2.1833   18.8795 C.ar    1  UNL1        0.1406
     12 F           0.7709    3.1015   17.8491 F       1  UNL1       -0.2042
     13 C           2.7586    2.4043   19.3700 C.ar    1  UNL1        0.0362
     14 C           3.3461    1.4861   20.4004 C.ar    1  UNL1        0.0372
     15 BR          4.7463    1.7072   20.8909 Br      1  UNL1       -0.0491
     16 C           3.5471   -0.7779   25.9110 C.ar    1  UNL1        0.1931
     17 N           2.6410    0.2520   26.5178 N.ar    1  UNL1       -0.2297
     18 C           2.8922    0.2770   27.9964 C.ar    1  UNL1        0.1067
     19 C           3.9537   -0.7374   28.3034 C.ar    1  UNL1        0.0577
     20 S           4.3584   -1.3894   27.0145 S.2     1  UNL1       -0.0586
     21 C           3.8697   -2.2015   20.0912 C.2     1  UNL1        0.3447
     22 O           2.8662   -3.1418   19.4924 O.2     1  UNL1       -0.2450
     23 O           4.9539   -1.6170   19.2352 O.3     1  UNL1       -0.4455
     24 C           3.5572   -0.5582   17.3173 C.3     1  UNL1        0.0513
     25 C           4.7160   -1.3959   17.7707 C.3     1  UNL1        0.2089
     26 C           5.0447   -4.0379   22.1521 C.3     1  UNL1        0.1405
     27 N           6.5417   -4.1294   22.1326 N.3     1  UNL1       -0.2617
     28 C           7.2924   -3.8715   20.8598 C.3     1  UNL1        0.1050
     29 C           8.7895   -3.9629   20.8403 C.3     1  UNL1        0.1595
     30 O           9.5359   -4.3122   22.0937 O.3     1  UNL1       -0.3508
     31 C           8.7853   -4.5701   23.3664 C.3     1  UNL1        0.1595
     32 C           7.2882   -4.4787   23.3859 C.3     1  UNL1        0.1050
@<TRIPOS>BOND
     1    24    25    1
     2    25    23    1
     3    23    21    1
     4    21    22    2
     5    21     1    1
     6     1     2    2
     7     2    26    1
     8    26    27    1
     9    27    28    1
    10    28    29    1
    11    29    30    1
    12    30    31    1
    13    31    32    1
    14     2     3    1
    15     3     4    1
    16     4    16    1
    17    16    17   ar
    18    17    18   ar
    19    18    19   ar
    20    19    20   ar
    21     4     5    2
    22     5     6    1
    23     6     8    1
    24     8     9   ar
    25     9    10   ar
    26    10    11   ar
    27    11    12    1
    28    11    13   ar
    29    13    14   ar
    30    14    15    1
    31     6     1    1
    32    14     8   ar
    33    32    27    1
    34    20    16   ar
    35     3     7    1
@<TRIPOS>MOLECULE
*****
 32 35 0 0 0
SMALL
GASTEIGER

@<TRIPOS>ATOM
      1 C           5.3614   -1.9201   24.8440 C.2     1  UNL1        0.1397
      2 C           5.5003   -1.7520   26.3280 C.2     1  UNL1        0.1355
      3 N           6.1103   -2.8462   27.1529 N.pl3   1  UNL1       -0.1998
      4 C           6.5814   -4.1086   26.4939 C.2     1  UNL1        0.3442
      5 N           6.4425   -4.2767   25.0098 N.2     1  UNL1       -0.0580
      6 C           5.8325   -3.1825   24.1849 C.3     1  UNL1        0.2692
      7 H           6.2015   -2.7358   28.1270 H       1  UNL1        0.2983
      8 C           5.6935   -3.3507   22.7008 C.ar    1  UNL1        0.0371
      9 C           4.4295   -3.9173   22.1253 C.ar    1  UNL1        0.0030
     10 C           4.2905   -4.0855   20.6413 C.ar    1  UNL1        0.0295
     11 C           5.4156   -3.6871   19.7327 C.ar    1  UNL1        0.1406
     12 F           5.2767   -3.8553   18.2487 F       1  UNL1       -0.2042
     13 C           6.6797   -3.1206   20.3082 C.ar    1  UNL1        0.0362
     14 C           6.8186   -2.9523   21.7923 C.ar    1  UNL1        0.0372
     15 BR          8.0827   -2.3858   22.3677 Br      1  UNL1       -0.0491
     16 C           7.1915   -5.2028   27.3188 C.ar    1  UNL1        0.1931
     17 N           7.5170   -5.1275   28.7811 N.ar    1  UNL1       -0.2297
     18 C           8.1098   -6.4426   29.1924 C.ar    1  UNL1        0.1067
     19 C           8.1507   -7.3307   27.9842 C.ar    1  UNL1        0.0577
     20 S           7.5831   -6.5644   26.8263 S.2     1  UNL1       -0.0586
     21 C           4.7513   -0.8259   24.0190 C.2     1  UNL1        0.3447
     22 O           5.6320    0.1752   23.3319 O.2     1  UNL1       -0.2450
     23 O           3.2606   -0.7327   23.8812 O.3     1  UNL1       -0.4455
     24 C           2.7882   -0.7621   21.3266 C.3     1  UNL1        0.0513
     25 C           2.6583   -0.0956   22.6641 C.3     1  UNL1        0.2089
     26 C           5.0292   -0.4895   26.9871 C.3     1  UNL1        0.1405
     27 N           4.0544   -0.5564   28.1252 N.3     1  UNL1       -0.2617
     28 C           2.5844   -0.4139   27.8630 C.3     1  UNL1        0.1050
     29 C           1.6096   -0.4807   29.0012 C.3     1  UNL1        0.1595
     30 O           2.1048   -0.6900   30.4015 O.3     1  UNL1       -0.3508
     31 C           3.5748   -0.8325   30.6637 C.3     1  UNL1        0.1595
     32 C           4.5496   -0.7657   29.5256 C.3     1  UNL1        0.1050
@<TRIPOS>BOND
     1    24    25    1
     2    25    23    1
     3    23    21    1
     4    21    22    2
     5    21     1    1
     6     1     2    2
     7     2    26    1
     8    26    27    1
     9    27    28    1
    10    28    29    1
    11    29    30    1
    12    30    31    1
    13    31    32    1
    14     2     3    1
    15     3     4    1
    16     4    16    1
    17    16    17   ar
    18    17    18   ar
    19    18    19   ar
    20    19    20   ar
    21     4     5    2
    22     5     6    1
    23     6     8    1
    24     8     9   ar
    25     9    10   ar
    26    10    11   ar
    27    11    12    1
    28    11    13   ar
    29    13    14   ar
    30    14    15    1
    31     6     1    1
    32    14     8   ar
    33    32    27    1
    34    20    16   ar
    35     3     7    1
@<TRIPOS>MOLECULE
*****
 32 35 0 0 0
SMALL
GASTEIGER

@<TRIPOS>ATOM
      1 C           1.9513    1.6340   22.1762 C.2     1  UNL1        0.1397
      2 C           1.0910    2.5906   22.9474 C.2     1  UNL1        0.1355
      3 N          -0.1973    3.0833   22.3578 N.pl3   1  UNL1       -0.1998
      4 C          -0.6252    2.6195   20.9971 C.2     1  UNL1        0.3442
      5 N           0.2351    1.6629   20.2259 N.2     1  UNL1       -0.0580
      6 C           1.5233    1.1702   20.8155 C.3     1  UNL1        0.2692
      7 H          -0.7619    3.7112   22.8640 H       1  UNL1        0.2983
      8 C           2.3837    0.2135   20.0442 C.ar    1  UNL1        0.0371
      9 C           2.2800   -1.2610   20.2989 C.ar    1  UNL1        0.0030
     10 C           3.1403   -2.2176   19.5277 C.ar    1  UNL1        0.0295
     11 C           4.1042   -1.6997   18.5017 C.ar    1  UNL1        0.1406
     12 F           4.9645   -2.6563   17.7306 F       1  UNL1       -0.2042
     13 C           4.2079   -0.2251   18.2470 C.ar    1  UNL1        0.0362
     14 C           3.3476    0.7315   19.0183 C.ar    1  UNL1        0.0372
     15 BR          3.4512    2.2061   18.7636 Br      1  UNL1       -0.0491
     16 C          -1.9135    3.1123   20.4075 C.ar    1  UNL1        0.1931
     17 N          -3.2896    2.8235   20.9299 N.ar    1  UNL1       -0.2297
     18 C          -4.2785    3.5131   20.0373 C.ar    1  UNL1        0.1067
     19 C          -3.5135    4.2280   18.9632 C.ar    1  UNL1        0.0577
     20 S          -2.0519    3.9803   19.1921 S.2     1  UNL1       -0.0586
     21 C           3.2396    1.1413   22.7658 C.2     1  UNL1        0.3447
     22 O           4.4896    1.9584   22.6255 O.2     1  UNL1       -0.2450
     23 O           3.2778   -0.1686   23.4956 O.3     1  UNL1       -0.4455
     24 C           4.3962   -2.4814   23.1080 C.3     1  UNL1        0.0513
     25 C           4.5095   -1.0228   23.4394 C.3     1  UNL1        0.2089
     26 C           1.5189    3.0545   24.3082 C.3     1  UNL1        0.1405
     27 N           1.1294    2.2689   25.5252 N.3     1  UNL1       -0.2617
     28 C           2.1799    1.5624   26.3297 C.3     1  UNL1        0.1050
     29 C           1.7904    0.7768   27.5468 C.3     1  UNL1        0.1595
     30 O           0.3504    0.6978   27.9593 O.3     1  UNL1       -0.3508
     31 C          -0.7001    1.4043   27.1548 C.3     1  UNL1        0.1595
     32 C          -0.3106    2.1899   25.9378 C.3     1  UNL1        0.1050
@<TRIPOS>BOND
     1    24    25    1
     2    25    23    1
     3    23    21    1
     4    21    22    2
     5    21     1    1
     6     1     2    2
     7     2    26    1
     8    26    27    1
     9    27    28    1
    10    28    29    1
    11    29    30    1
    12    30    31    1
    13    31    32    1
    14     2     3    1
    15     3     4    1
    16     4    16    1
    17    16    17   ar
    18    17    18   ar
    19    18    19   ar
    20    19    20   ar
    21     4     5    2
    22     5     6    1
    23     6     8    1
    24     8     9   ar
    25     9    10   ar
    26    10    11   ar
    27    11    12    1
    28    11    13   ar
    29    13    14   ar
    30    14    15    1
    31     6     1    1
    32    14     8   ar
    33    32    27    1
    34    20    16   ar
    35     3     7    1
@<TRIPOS>MOLECULE
*****
 32 35 0 0 0
SMALL
GASTEIGER

@<TRIPOS>ATOM
      1 C          -0.6104    2.8210   22.8215 C.2     1  UNL1        0.1397
      2 C          -1.2768    3.2757   24.0861 C.2     1  UNL1        0.1355
      3 N          -0.8653    2.6886   25.4036 N.pl3   1  UNL1       -0.1998
      4 C           0.2126    1.6468   25.4567 C.2     1  UNL1        0.3442
      5 N           0.8790    1.1922   24.1921 N.2     1  UNL1       -0.0580
      6 C           0.4675    1.7793   22.8745 C.3     1  UNL1        0.2692
      7 H          -1.3028    2.9870   26.2336 H       1  UNL1        0.2983
      8 C           1.1340    1.3246   21.6100 C.ar    1  UNL1        0.0371
      9 C           0.5536    0.1867   20.8236 C.ar    1  UNL1        0.0030
     10 C           1.2200   -0.2680   19.5590 C.ar    1  UNL1        0.0295
     11 C           2.4669    0.4152   19.0808 C.ar    1  UNL1        0.1406
     12 F           3.1333   -0.0395   17.8163 F       1  UNL1       -0.2042
     13 C           3.0473    1.5530   19.8672 C.ar    1  UNL1        0.0362
     14 C           2.3808    2.0077   21.1318 C.ar    1  UNL1        0.0372
     15 BR          2.9613    3.1456   21.9182 Br      1  UNL1       -0.0491
     16 C           0.6240    1.0597   26.7742 C.ar    1  UNL1        0.1931
     17 N           2.0143    0.6511   27.1618 N.ar    1  UNL1       -0.2297
     18 C           1.9670    0.1170   28.5627 C.ar    1  UNL1        0.1067
     19 C           0.5474    0.1955   29.0410 C.ar    1  UNL1        0.0577
     20 S          -0.2825    0.7781   27.9356 S.2     1  UNL1       -0.0586
     21 C          -1.0219    3.4081   21.5039 C.2     1  UNL1        0.3447
     22 O          -0.3375    4.6376   20.9842 O.2     1  UNL1       -0.2450
     23 O          -2.1176    2.7658   20.7061 O.3     1  UNL1       -0.4455
     24 C          -4.6476    3.0305   21.2344 C.3     1  UNL1        0.0513
     25 C          -3.4186    3.4846   20.5041 C.3     1  UNL1        0.2089
     26 C          -2.3548    4.3175   24.0331 C.3     1  UNL1        0.1405
     27 N          -2.9718    4.8235   25.3032 N.3     1  UNL1       -0.2617
     28 C          -4.2500    4.2220   25.8075 C.3     1  UNL1        0.1050
     29 C          -4.8671    4.7281   27.0777 C.3     1  UNL1        0.1595
     30 O          -4.2060    5.8355   27.8434 O.3     1  UNL1       -0.3508
     31 C          -2.9277    6.4370   27.3390 C.3     1  UNL1        0.1595
     32 C          -2.3107    5.9310   26.0689 C.3     1  UNL1        0.1050
@<TRIPOS>BOND
     1    24    25    1
     2    25    23    1
     3    23    21    1
     4    21    22    2
     5    21     1    1
     6     1     2    2
     7     2    26    1
     8    26    27    1
     9    27    28    1
    10    28    29    1
    11    29    30    1
    12    30    31    1
    13    31    32    1
    14     2     3    1
    15     3     4    1
    16     4    16    1
    17    16    17   ar
    18    17    18   ar
    19    18    19   ar
    20    19    20   ar
    21     4     5    2
    22     5     6    1
    23     6     8    1
    24     8     9   ar
    25     9    10   ar
    26    10    11   ar
    27    11    12    1
    28    11    13   ar
    29    13    14   ar
    30    14    15    1
    31     6     1    1
    32    14     8   ar
    33    32    27    1
    34    20    16   ar
    35     3     7    1
@<TRIPOS>MOLECULE
*****
 32 35 0 0 0
SMALL
GASTEIGER

@<TRIPOS>ATOM
      1 C           3.0524    0.7642   32.5671 C.2     1  UNL1        0.1397
      2 C           2.0384    1.7847   32.9917 C.2     1  UNL1        0.1355
      3 N           2.0334    2.2951   34.4022 N.pl3   1  UNL1       -0.1998
      4 C           3.0423    1.7850   35.3880 C.2     1  UNL1        0.3442
      5 N           4.0562    0.7645   34.9633 N.2     1  UNL1       -0.0580
      6 C           4.0613    0.2541   33.5528 C.3     1  UNL1        0.2692
      7 H           1.3678    2.9649   34.6810 H       1  UNL1        0.2983
      8 C           5.0753   -0.7665   33.1282 C.ar    1  UNL1        0.0371
      9 C           4.7170   -2.2230   33.1239 C.ar    1  UNL1        0.0030
     10 C           5.7310   -3.2436   32.6992 C.ar    1  UNL1        0.0295
     11 C           7.1033   -2.8075   32.2789 C.ar    1  UNL1        0.1406
     12 F           8.1173   -3.8281   31.8542 F       1  UNL1       -0.2042
     13 C           7.4616   -1.3510   32.2832 C.ar    1  UNL1        0.0362
     14 C           6.4476   -0.3304   32.7079 C.ar    1  UNL1        0.0372
     15 BR          6.8059    1.1262   32.7122 Br      1  UNL1       -0.0491
     16 C           3.0372    2.2954   36.7985 C.ar    1  UNL1        0.1931
     17 N           1.8729    2.2632   37.7437 N.ar    1  UNL1       -0.2297
     18 C           2.3117    2.8755   39.0408 C.ar    1  UNL1        0.1067
     19 C           3.7472    3.2861   38.8973 C.ar    1  UNL1        0.0577
     20 S           4.1956    2.9276   37.5115 S.2     1  UNL1       -0.0586
     21 C           3.0574    0.2538   31.1566 C.2     1  UNL1        0.3447
     22 O           2.1290   -0.8543   30.7566 O.2     1  UNL1       -0.2450
     23 O           3.9910    0.8515   30.1460 O.3     1  UNL1       -0.4455
     24 C           2.2259    1.7718   28.4764 C.3     1  UNL1        0.0513
     25 C           3.5104    1.9400   29.2326 C.3     1  UNL1        0.2089
     26 C           1.0294    2.2948   32.0059 C.3     1  UNL1        0.1405
     27 N           0.7942    3.7699   31.8688 N.3     1  UNL1       -0.2617
     28 C          -0.3317    4.4224   32.6149 C.3     1  UNL1        0.1050
     29 C          -0.5669    5.8975   32.4777 C.3     1  UNL1        0.1595
     30 O           0.3238    6.7201   31.5945 O.3     1  UNL1       -0.3508
     31 C           1.4497    6.0676   30.8484 C.3     1  UNL1        0.1595
     32 C           1.6849    4.5925   30.9855 C.3     1  UNL1        0.1050
@<TRIPOS>BOND
     1    24    25    1
     2    25    23    1
     3    23    21    1
     4    21    22    2
     5    21     1    1
     6     1     2    2
     7     2    26    1
     8    26    27    1
     9    27    28    1
    10    28    29    1
    11    29    30    1
    12    30    31    1
    13    31    32    1
    14     2     3    1
    15     3     4    1
    16     4    16    1
    17    16    17   ar
    18    17    18   ar
    19    18    19   ar
    20    19    20   ar
    21     4     5    2
    22     5     6    1
    23     6     8    1
    24     8     9   ar
    25     9    10   ar
    26    10    11   ar
    27    11    12    1
    28    11    13   ar
    29    13    14   ar
    30    14    15    1
    31     6     1    1
    32    14     8   ar
    33    32    27    1
    34    20    16   ar
    35     3     7    1
