@<TRIPOS>MOLECULE
*****
 31 34 0 0 0
SMALL
GASTEIGER

@<TRIPOS>ATOM
      1 C          -9.8032  -18.3443   22.2113 C.ar    1  UNL1       -0.0011
      2 C          -8.5927  -17.5398   21.8408 C.ar    1  UNL1       -0.0012
      3 C          -7.2296  -18.1627   21.9051 C.ar    1  UNL1        0.0143
      4 C          -7.0771  -19.5901   22.3399 C.ar    1  UNL1        0.0483
      5 C          -8.2877  -20.3948   22.7104 C.ar    1  UNL1        0.0143
      6 C          -9.6507  -19.7719   22.6461 C.ar    1  UNL1       -0.0012
      7 N          -5.7141  -20.2130   22.4042 N.pl3   1  UNL1       -0.3125
      8 H          -5.6165  -21.1586   22.6604 H       1  UNL1        0.1522
      9 C          -4.4996  -19.3952   22.0781 C.ar    1  UNL1        0.0483
     10 C          -3.8435  -18.5688   23.1442 C.ar    1  UNL1        0.0146
     11 C          -2.6291  -17.7510   22.8182 C.ar    1  UNL1        0.0013
     12 C          -2.0707  -17.7596   21.4260 C.ar    1  UNL1        0.0001
     13 C          -0.8562  -16.9418   21.1000 C.ar    1  UNL1        0.0000
     14 C          -0.2978  -16.9505   19.7078 C.ar    1  UNL1        0.0000
     15 C          -0.9539  -17.7769   18.6417 C.ar    1  UNL1        0.0000
     16 C          -2.1683  -18.5947   18.9678 C.ar    1  UNL1        0.0000
     17 C          -2.7267  -18.5861   20.3599 C.ar    1  UNL1        0.0012
     18 C          -3.9412  -19.4039   20.6860 C.ar    1  UNL1        0.0146
     19 C         -11.1662  -17.7214   22.1470 C.3     1  UNL1        0.1194
     20 N         -12.1888  -18.0447   23.1957 N.ar    1  UNL1       -0.3053
     21 C         -13.6735  -17.8806   23.0595 C.ar    1  UNL1        0.0982
     22 C         -14.3086  -18.3233   24.3443 C.ar    1  UNL1        0.1193
     23 N         -13.2162  -18.7611   25.2746 N.ar    1  UNL1       -0.2223
     24 C         -11.9062  -18.5888   24.5646 C.ar    1  UNL1        0.1788
     25 C         -11.5066  -16.7752   21.0339 C.3     1  UNL1        0.1124
     26 C         -11.6951  -15.6704   22.0307 C.3     1  UNL1        0.0134
     27 C         -11.3182  -17.8801   20.0371 C.3     1  UNL1        0.0134
     28 C         -11.8470  -15.8291   19.9209 C.2     1  UNL1        0.3181
     29 O         -13.2824  -15.5449   19.5907 O.2     1  UNL1       -0.2501
     30 C          -9.6627  -14.4240   19.8527 C.3     1  UNL1        0.2556
     31 O         -10.7521  -15.1671   19.1379 O.3     1  UNL1       -0.4444
@<TRIPOS>BOND
     1    30    31    1
     2    31    28    1
     3    28    29    2
     4    28    25    1
     5    25    26    1
     6    25    27    1
     7    25    19    1
     8    19     1    1
     9     1     2   ar
    10     2     3   ar
    11     3     4   ar
    12     4     7    1
    13     7     9    1
    14     9    10   ar
    15    10    11   ar
    16    11    12   ar
    17    12    13   ar
    18    13    14   ar
    19    14    15   ar
    20    15    16   ar
    21    16    17   ar
    22    17    18   ar
    23     4     5   ar
    24     5     6   ar
    25    19    20    1
    26    20    21   ar
    27    21    22   ar
    28    22    23   ar
    29    23    24   ar
    30     6     1   ar
    31    24    20   ar
    32    18     9   ar
    33    17    12   ar
    34     7     8    1
@<TRIPOS>MOLECULE
*****
 31 34 0 0 0
SMALL
GASTEIGER

@<TRIPOS>ATOM
      1 C           2.8169    0.0105   19.9964 C.ar    1  UNL1       -0.0011
      2 C           3.0491    1.4915   19.9471 C.ar    1  UNL1       -0.0012
      3 C           1.9057    2.4376   20.1652 C.ar    1  UNL1        0.0143
      4 C           0.5301    1.9027   20.4327 C.ar    1  UNL1        0.0483
      5 C           0.2979    0.4215   20.4820 C.ar    1  UNL1        0.0143
      6 C           1.4413   -0.5246   20.2638 C.ar    1  UNL1       -0.0012
      7 N          -0.6132    2.8487   20.6508 N.pl3   1  UNL1       -0.3125
      8 H          -0.9954    3.3428   19.8899 H       1  UNL1        0.1522
      9 C          -1.1744    3.0420   22.0285 C.ar    1  UNL1        0.0483
     10 C          -0.2951    2.8557   23.2294 C.ar    1  UNL1        0.0146
     11 C          -0.8561    3.0489   24.6070 C.ar    1  UNL1        0.0013
     12 C          -2.2966    3.4286   24.7837 C.ar    1  UNL1        0.0001
     13 C          -2.8576    3.6219   26.1613 C.ar    1  UNL1        0.0000
     14 C          -4.2979    4.0015   26.3380 C.ar    1  UNL1        0.0000
     15 C          -5.1772    4.1879   25.1372 C.ar    1  UNL1        0.0000
     16 C          -4.6162    3.9946   23.7596 C.ar    1  UNL1        0.0000
     17 C          -3.1758    3.6150   23.5828 C.ar    1  UNL1        0.0012
     18 C          -2.6147    3.4217   22.2052 C.ar    1  UNL1        0.0146
     19 C           3.9603   -0.9356   19.7782 C.3     1  UNL1        0.1194
     20 N           4.1694   -2.0881   20.7152 N.ar    1  UNL1       -0.3053
     21 C           4.3160   -1.9975   22.2053 C.ar    1  UNL1        0.0982
     22 C           4.5058   -3.3869   22.7377 C.ar    1  UNL1        0.1193
     23 N           4.4764   -4.3363   21.5766 N.ar    1  UNL1       -0.2223
     24 C           4.2685   -3.5335   20.3267 C.ar    1  UNL1        0.1788
     25 C           4.8946   -0.7292   18.6230 C.3     1  UNL1        0.1124
     26 C           3.8016   -1.1132   17.6703 C.3     1  UNL1        0.0134
     27 C           5.9877   -0.3451   19.5757 C.3     1  UNL1        0.0134
     28 C           5.8289   -0.5227   17.4678 C.2     1  UNL1        0.3181
     29 O           6.8424   -1.5743   17.1257 O.2     1  UNL1       -0.2501
     30 C           6.9933    1.3175   16.0508 C.3     1  UNL1        0.2556
     31 O           5.7498    0.7354   16.6547 O.3     1  UNL1       -0.4444
@<TRIPOS>BOND
     1    30    31    1
     2    31    28    1
     3    28    29    2
     4    28    25    1
     5    25    26    1
     6    25    27    1
     7    25    19    1
     8    19     1    1
     9     1     2   ar
    10     2     3   ar
    11     3     4   ar
    12     4     7    1
    13     7     9    1
    14     9    10   ar
    15    10    11   ar
    16    11    12   ar
    17    12    13   ar
    18    13    14   ar
    19    14    15   ar
    20    15    16   ar
    21    16    17   ar
    22    17    18   ar
    23     4     5   ar
    24     5     6   ar
    25    19    20    1
    26    20    21   ar
    27    21    22   ar
    28    22    23   ar
    29    23    24   ar
    30     6     1   ar
    31    24    20   ar
    32    18     9   ar
    33    17    12   ar
    34     7     8    1
@<TRIPOS>MOLECULE
*****
 31 34 0 0 0
SMALL
GASTEIGER

@<TRIPOS>ATOM
      1 C           4.3210   -1.1863   21.5286 C.ar    1  UNL1       -0.0011
      2 C           3.6315   -1.7555   22.7330 C.ar    1  UNL1       -0.0012
      3 C           4.4323   -2.1539   23.9372 C.ar    1  UNL1        0.0143
      4 C           5.9225   -1.9830   23.9370 C.ar    1  UNL1        0.0483
      5 C           6.6120   -1.4138   22.7326 C.ar    1  UNL1        0.0143
      6 C           5.8113   -1.0154   21.5284 C.ar    1  UNL1       -0.0012
      7 N           6.7232   -2.3814   25.1412 N.pl3   1  UNL1       -0.3125
      8 H           6.9489   -1.7111   25.8261 H       1  UNL1        0.1522
      9 C           7.1801   -3.8011   25.3020 C.ar    1  UNL1        0.0483
     10 C           7.4244   -4.6520   24.0911 C.ar    1  UNL1        0.0146
     11 C           7.8813   -6.0717   24.2518 C.ar    1  UNL1        0.0013
     12 C           8.0938   -6.6405   25.6234 C.ar    1  UNL1        0.0001
     13 C           8.5506   -8.0601   25.7841 C.ar    1  UNL1        0.0000
     14 C           8.7631   -8.6289   27.1557 C.ar    1  UNL1        0.0000
     15 C           8.5187   -7.7780   28.3666 C.ar    1  UNL1        0.0000
     16 C           8.0618   -6.3584   28.2059 C.ar    1  UNL1        0.0000
     17 C           7.8494   -5.7896   26.8343 C.ar    1  UNL1        0.0012
     18 C           7.3925   -4.3699   26.6736 C.ar    1  UNL1        0.0146
     19 C           3.5203   -0.7879   20.3244 C.3     1  UNL1        0.1194
     20 N           2.2477   -0.0120   20.4930 N.ar    1  UNL1       -0.3053
     21 C           2.1304    1.3827   21.0325 C.ar    1  UNL1        0.0982
     22 C           0.6792    1.7621   21.0247 C.ar    1  UNL1        0.1193
     23 N          -0.1004    0.6019   20.4804 N.ar    1  UNL1       -0.2223
     24 C           0.8690   -0.4946   20.1519 C.ar    1  UNL1        0.1788
     25 C           3.9922   -1.1654   18.9515 C.3     1  UNL1        0.1124
     26 C           3.6569   -2.6005   19.2308 C.3     1  UNL1        0.0134
     27 C           4.3275    0.2696   18.6721 C.3     1  UNL1        0.0134
     28 C           4.4641   -1.5429   17.5786 C.2     1  UNL1        0.3181
     29 O           3.7490   -1.0180   16.3690 O.2     1  UNL1       -0.2501
     30 C           6.9493   -2.1057   18.0856 C.3     1  UNL1        0.2556
     31 O           5.6511   -2.4454   17.4153 O.3     1  UNL1       -0.4444
@<TRIPOS>BOND
     1    30    31    1
     2    31    28    1
     3    28    29    2
     4    28    25    1
     5    25    26    1
     6    25    27    1
     7    25    19    1
     8    19     1    1
     9     1     2   ar
    10     2     3   ar
    11     3     4   ar
    12     4     7    1
    13     7     9    1
    14     9    10   ar
    15    10    11   ar
    16    11    12   ar
    17    12    13   ar
    18    13    14   ar
    19    14    15   ar
    20    15    16   ar
    21    16    17   ar
    22    17    18   ar
    23     4     5   ar
    24     5     6   ar
    25    19    20    1
    26    20    21   ar
    27    21    22   ar
    28    22    23   ar
    29    23    24   ar
    30     6     1   ar
    31    24    20   ar
    32    18     9   ar
    33    17    12   ar
    34     7     8    1
@<TRIPOS>MOLECULE
*****
 31 34 0 0 0
SMALL
GASTEIGER

@<TRIPOS>ATOM
      1 C           4.0864   -0.5240   21.4896 C.ar    1  UNL1       -0.0011
      2 C           5.5524   -0.2443   21.6397 C.ar    1  UNL1       -0.0012
      3 C           6.2407   -0.5286   22.9418 C.ar    1  UNL1        0.0143
      4 C           5.4630   -1.0926   24.0938 C.ar    1  UNL1        0.0483
      5 C           3.9969   -1.3724   23.9436 C.ar    1  UNL1        0.0143
      6 C           3.3086   -1.0881   22.6416 C.ar    1  UNL1       -0.0012
      7 N           6.1512   -1.3769   25.3959 N.pl3   1  UNL1       -0.3125
      8 H           6.3783   -0.6371   26.0044 H       1  UNL1        0.1522
      9 C           6.4936   -2.7885   25.7707 C.ar    1  UNL1        0.0483
     10 C           6.2884   -3.2611   27.1794 C.ar    1  UNL1        0.0146
     11 C           6.6307   -4.6726   27.5543 C.ar    1  UNL1        0.0013
     12 C           7.1783   -5.6115   26.5204 C.ar    1  UNL1        0.0001
     13 C           7.5206   -7.0229   26.8953 C.ar    1  UNL1        0.0000
     14 C           8.0681   -7.9617   25.8614 C.ar    1  UNL1        0.0000
     15 C           8.2733   -7.4890   24.4527 C.ar    1  UNL1        0.0000
     16 C           7.9310   -6.0776   24.0778 C.ar    1  UNL1        0.0000
     17 C           7.3835   -5.1388   25.1117 C.ar    1  UNL1        0.0012
     18 C           7.0411   -3.7272   24.7368 C.ar    1  UNL1        0.0146
     19 C           3.3981   -0.2398   20.1875 C.3     1  UNL1        0.1194
     20 N           2.2090    0.6738   20.1515 N.ar    1  UNL1       -0.3053
     21 C           0.8922    0.3816   19.4954 C.ar    1  UNL1        0.0982
     22 C          -0.0027    1.5672   19.7037 C.ar    1  UNL1        0.1193
     23 N           0.7610    2.5923   20.4886 N.ar    1  UNL1       -0.2223
     24 C           2.1279    2.0401   20.7654 C.ar    1  UNL1        0.1788
     25 C           3.8990   -0.8691   18.9213 C.3     1  UNL1        0.1124
     26 C           3.4373   -2.2115   19.4058 C.3     1  UNL1        0.0134
     27 C           4.3607    0.4732   18.4368 C.3     1  UNL1        0.0134
     28 C           4.3999   -1.4984   17.6552 C.2     1  UNL1        0.3181
     29 O           3.8641   -1.0452   16.3295 O.2     1  UNL1       -0.2501
     30 C           6.8560   -2.2418   18.0614 C.3     1  UNL1        0.2556
     31 O           5.4366   -2.5809   17.7148 O.3     1  UNL1       -0.4444
@<TRIPOS>BOND
     1    30    31    1
     2    31    28    1
     3    28    29    2
     4    28    25    1
     5    25    26    1
     6    25    27    1
     7    25    19    1
     8    19     1    1
     9     1     2   ar
    10     2     3   ar
    11     3     4   ar
    12     4     7    1
    13     7     9    1
    14     9    10   ar
    15    10    11   ar
    16    11    12   ar
    17    12    13   ar
    18    13    14   ar
    19    14    15   ar
    20    15    16   ar
    21    16    17   ar
    22    17    18   ar
    23     4     5   ar
    24     5     6   ar
    25    19    20    1
    26    20    21   ar
    27    21    22   ar
    28    22    23   ar
    29    23    24   ar
    30     6     1   ar
    31    24    20   ar
    32    18     9   ar
    33    17    12   ar
    34     7     8    1
@<TRIPOS>MOLECULE
*****
 31 34 0 0 0
SMALL
GASTEIGER

@<TRIPOS>ATOM
      1 C           2.6647    0.0274   20.1539 C.ar    1  UNL1       -0.0011
      2 C           1.2814   -0.5515   20.1198 C.ar    1  UNL1       -0.0012
      3 C           0.1075    0.2858   20.5330 C.ar    1  UNL1        0.0143
      4 C           0.3169    1.7021   20.9804 C.ar    1  UNL1        0.0483
      5 C           1.7002    2.2812   21.0145 C.ar    1  UNL1        0.0143
      6 C           2.8742    1.4438   20.6013 C.ar    1  UNL1       -0.0012
      7 N          -0.8570    2.5395   21.3936 N.pl3   1  UNL1       -0.3125
      8 H          -1.0184    2.7246   22.3470 H       1  UNL1        0.1522
      9 C          -1.7852    3.0948   20.3542 C.ar    1  UNL1        0.0483
     10 C          -1.2322    3.6541   19.0769 C.ar    1  UNL1        0.0146
     11 C          -2.1603    4.2093   18.0375 C.ar    1  UNL1        0.0013
     12 C          -3.6413    4.2054   18.2754 C.ar    1  UNL1        0.0001
     13 C          -4.5694    4.7607   17.2360 C.ar    1  UNL1        0.0000
     14 C          -6.0503    4.7567   17.4739 C.ar    1  UNL1        0.0000
     15 C          -6.6033    4.1974   18.7512 C.ar    1  UNL1        0.0000
     16 C          -5.6752    3.6421   19.7906 C.ar    1  UNL1        0.0000
     17 C          -4.1943    3.6461   19.5527 C.ar    1  UNL1        0.0012
     18 C          -3.2661    3.0908   20.5921 C.ar    1  UNL1        0.0146
     19 C           3.8386   -0.8099   19.7407 C.3     1  UNL1        0.1194
     20 N           4.0879   -2.1316   20.4047 N.ar    1  UNL1       -0.3053
     21 C           4.3234   -2.3518   21.8696 C.ar    1  UNL1        0.0982
     22 C           4.5265   -3.8214   22.0907 C.ar    1  UNL1        0.1193
     23 N           4.4167   -4.5096   20.7623 N.ar    1  UNL1       -0.2223
     24 C           4.1456   -3.4652   19.7204 C.ar    1  UNL1        0.1788
     25 C           4.7632   -0.3255   18.6633 C.3     1  UNL1        0.1124
     26 C           5.8392   -0.1064   19.6852 C.3     1  UNL1        0.0134
     27 C           3.6873   -0.5447   17.6415 C.3     1  UNL1        0.0134
     28 C           5.6877    0.1588   17.5861 C.2     1  UNL1        0.3181
     29 O           6.6677   -0.7870   16.9575 O.2     1  UNL1       -0.2501
     30 C           6.8793    2.4227   17.1331 C.3     1  UNL1        0.2556
     31 O           5.6323    1.5891   17.1372 O.3     1  UNL1       -0.4444
@<TRIPOS>BOND
     1    30    31    1
     2    31    28    1
     3    28    29    2
     4    28    25    1
     5    25    26    1
     6    25    27    1
     7    25    19    1
     8    19     1    1
     9     1     2   ar
    10     2     3   ar
    11     3     4   ar
    12     4     7    1
    13     7     9    1
    14     9    10   ar
    15    10    11   ar
    16    11    12   ar
    17    12    13   ar
    18    13    14   ar
    19    14    15   ar
    20    15    16   ar
    21    16    17   ar
    22    17    18   ar
    23     4     5   ar
    24     5     6   ar
    25    19    20    1
    26    20    21   ar
    27    21    22   ar
    28    22    23   ar
    29    23    24   ar
    30     6     1   ar
    31    24    20   ar
    32    18     9   ar
    33    17    12   ar
    34     7     8    1
@<TRIPOS>MOLECULE
*****
 31 34 0 0 0
SMALL
GASTEIGER

@<TRIPOS>ATOM
      1 C           2.6192   -0.1188   20.8138 C.ar    1  UNL1       -0.0011
      2 C           1.2887   -0.4640   20.2135 C.ar    1  UNL1       -0.0012
      3 C           0.0976    0.4087   20.4773 C.ar    1  UNL1        0.0143
      4 C           0.2371    1.6267   21.3416 C.ar    1  UNL1        0.0483
      5 C           1.5677    1.9720   21.9420 C.ar    1  UNL1        0.0143
      6 C           2.7587    1.0993   21.6781 C.ar    1  UNL1       -0.0012
      7 N          -0.9540    2.4995   21.6054 N.pl3   1  UNL1       -0.3125
      8 H          -1.2227    2.6988   22.5313 H       1  UNL1        0.1522
      9 C          -1.7356    3.0686   20.4585 C.ar    1  UNL1        0.0483
     10 C          -1.0197    3.5805   19.2438 C.ar    1  UNL1        0.0146
     11 C          -1.8012    4.1496   18.0969 C.ar    1  UNL1        0.0013
     12 C          -3.2986    4.2068   18.1647 C.ar    1  UNL1        0.0001
     13 C          -4.0801    4.7759   17.0179 C.ar    1  UNL1        0.0000
     14 C          -5.5775    4.8331   17.0857 C.ar    1  UNL1        0.0000
     15 C          -6.2933    4.3213   18.3004 C.ar    1  UNL1        0.0000
     16 C          -5.5118    3.7522   19.4473 C.ar    1  UNL1        0.0000
     17 C          -4.0145    3.6950   19.3795 C.ar    1  UNL1        0.0012
     18 C          -3.2329    3.1258   20.5264 C.ar    1  UNL1        0.0146
     19 C           3.8103   -0.9916   20.5500 C.3     1  UNL1        0.1194
     20 N           4.6120   -1.5330   21.6963 N.ar    1  UNL1       -0.3053
     21 C           6.1073   -1.5137   21.8132 C.ar    1  UNL1        0.0982
     22 C           6.4787   -2.1575   23.1161 C.ar    1  UNL1        0.1193
     23 N           5.2129   -2.5748   23.8044 N.ar    1  UNL1       -0.2223
     24 C           4.0593   -2.1888   22.9269 C.ar    1  UNL1        0.1788
     25 C           4.1996   -1.3229   19.1397 C.3     1  UNL1        0.1124
     26 C           3.7682   -2.7434   19.3544 C.3     1  UNL1        0.0134
     27 C           4.6310    0.0975   18.9251 C.3     1  UNL1        0.0134
     28 C           4.5889   -1.6542   17.7296 C.2     1  UNL1        0.3181
     29 O           3.7863   -1.1139   16.5833 O.2     1  UNL1       -0.2501
     30 C           7.0837   -2.2431   18.1529 C.3     1  UNL1        0.2556
     31 O           5.7808   -2.5259   17.4656 O.3     1  UNL1       -0.4444
@<TRIPOS>BOND
     1    30    31    1
     2    31    28    1
     3    28    29    2
     4    28    25    1
     5    25    26    1
     6    25    27    1
     7    25    19    1
     8    19     1    1
     9     1     2   ar
    10     2     3   ar
    11     3     4   ar
    12     4     7    1
    13     7     9    1
    14     9    10   ar
    15    10    11   ar
    16    11    12   ar
    17    12    13   ar
    18    13    14   ar
    19    14    15   ar
    20    15    16   ar
    21    16    17   ar
    22    17    18   ar
    23     4     5   ar
    24     5     6   ar
    25    19    20    1
    26    20    21   ar
    27    21    22   ar
    28    22    23   ar
    29    23    24   ar
    30     6     1   ar
    31    24    20   ar
    32    18     9   ar
    33    17    12   ar
    34     7     8    1
@<TRIPOS>MOLECULE
*****
 31 34 0 0 0
SMALL
GASTEIGER

@<TRIPOS>ATOM
      1 C           3.1449   -0.3124   20.0705 C.ar    1  UNL1       -0.0011
      2 C           1.7728   -0.9148   20.0056 C.ar    1  UNL1       -0.0012
      3 C           0.5809   -0.1143   20.4400 C.ar    1  UNL1        0.0143
      4 C           0.7613    1.2886   20.9394 C.ar    1  UNL1        0.0483
      5 C           2.1335    1.8910   21.0044 C.ar    1  UNL1        0.0143
      6 C           3.3253    1.0905   20.5700 C.ar    1  UNL1       -0.0012
      7 N          -0.4306    2.0891   21.3739 N.pl3   1  UNL1       -0.3125
      8 H          -0.6610    2.1500   22.3291 H       1  UNL1        0.1522
      9 C          -1.2713    2.7968   20.3529 C.ar    1  UNL1        0.0483
     10 C          -0.6430    3.3166   19.0939 C.ar    1  UNL1        0.0146
     11 C          -1.4836    4.0243   18.0729 C.ar    1  UNL1        0.0013
     12 C          -2.9527    4.2122   18.3109 C.ar    1  UNL1        0.0001
     13 C          -3.7934    4.9199   17.2900 C.ar    1  UNL1        0.0000
     14 C          -5.2624    5.1078   17.5280 C.ar    1  UNL1        0.0000
     15 C          -5.8907    4.5881   18.7869 C.ar    1  UNL1        0.0000
     16 C          -5.0500    3.8804   19.8079 C.ar    1  UNL1        0.0000
     17 C          -3.5810    3.6924   19.5699 C.ar    1  UNL1        0.0012
     18 C          -2.7403    2.9847   20.5909 C.ar    1  UNL1        0.0146
     19 C           4.3368   -1.1129   19.6361 C.3     1  UNL1        0.1194
     20 N           5.2915   -0.5487   18.6261 N.ar    1  UNL1       -0.3053
     21 C           4.9173    0.1213   17.3373 C.ar    1  UNL1        0.0982
     22 C           6.1825    0.5287   16.6422 C.ar    1  UNL1        0.1193
     23 N           7.3388    0.1104   17.5015 N.ar    1  UNL1       -0.2223
     24 C           6.7881   -0.5555   18.7275 C.ar    1  UNL1        0.1788
     25 C           4.5739   -2.4777   20.2117 C.3     1  UNL1        0.1124
     26 C           4.2967   -3.0912   18.8713 C.3     1  UNL1        0.0134
     27 C           4.8510   -1.8642   21.5521 C.3     1  UNL1        0.0134
     28 C           4.8109   -3.8424   20.7874 C.2     1  UNL1        0.3181
     29 O           3.8186   -4.9410   20.5459 O.2     1  UNL1       -0.2501
     30 C           7.3751   -4.2355   20.9318 C.3     1  UNL1        0.2556
     31 O           6.0404   -4.1085   21.6045 O.3     1  UNL1       -0.4444
@<TRIPOS>BOND
     1    30    31    1
     2    31    28    1
     3    28    29    2
     4    28    25    1
     5    25    26    1
     6    25    27    1
     7    25    19    1
     8    19     1    1
     9     1     2   ar
    10     2     3   ar
    11     3     4   ar
    12     4     7    1
    13     7     9    1
    14     9    10   ar
    15    10    11   ar
    16    11    12   ar
    17    12    13   ar
    18    13    14   ar
    19    14    15   ar
    20    15    16   ar
    21    16    17   ar
    22    17    18   ar
    23     4     5   ar
    24     5     6   ar
    25    19    20    1
    26    20    21   ar
    27    21    22   ar
    28    22    23   ar
    29    23    24   ar
    30     6     1   ar
    31    24    20   ar
    32    18     9   ar
    33    17    12   ar
    34     7     8    1
@<TRIPOS>MOLECULE
*****
 31 34 0 0 0
SMALL
GASTEIGER

@<TRIPOS>ATOM
      1 C           4.4391   -0.6870   21.6345 C.ar    1  UNL1       -0.0011
      2 C           5.8445   -0.3637   22.0471 C.ar    1  UNL1       -0.0012
      3 C           6.3075   -0.6741   23.4397 C.ar    1  UNL1        0.0143
      4 C           5.3651   -1.3079   24.4196 C.ar    1  UNL1        0.0483
      5 C           3.9597   -1.6312   24.0070 C.ar    1  UNL1        0.0143
      6 C           3.4967   -1.3207   22.6144 C.ar    1  UNL1       -0.0012
      7 N           5.8281   -1.6183   25.8122 N.pl3   1  UNL1       -0.3125
      8 H           5.8179   -0.9163   26.5023 H       1  UNL1        0.1522
      9 C           6.3068   -2.9984   26.1532 C.ar    1  UNL1        0.0483
     10 C           6.2748   -3.4731   27.5758 C.ar    1  UNL1        0.0146
     11 C           6.7533   -4.8532   27.9169 C.ar    1  UNL1        0.0013
     12 C           7.2640   -5.7586   26.8354 C.ar    1  UNL1        0.0001
     13 C           7.7426   -7.1386   27.1765 C.ar    1  UNL1        0.0000
     14 C           8.2532   -8.0440   26.0950 C.ar    1  UNL1        0.0000
     15 C           8.2852   -7.5692   24.6725 C.ar    1  UNL1        0.0000
     16 C           7.8066   -6.1892   24.3314 C.ar    1  UNL1        0.0000
     17 C           7.2960   -5.2839   25.4128 C.ar    1  UNL1        0.0012
     18 C           6.8174   -3.9037   25.0718 C.ar    1  UNL1        0.0146
     19 C           3.9761   -0.3765   20.2419 C.3     1  UNL1        0.1194
     20 N           4.9166   -0.5401   19.0849 N.ar    1  UNL1       -0.3053
     21 C           5.4120    0.5566   18.1895 C.ar    1  UNL1        0.0982
     22 C           6.3284   -0.0546   17.1713 C.ar    1  UNL1        0.1193
     23 N           6.3993   -1.5292   17.4374 N.ar    1  UNL1       -0.2223
     24 C           5.5268   -1.8292   18.6201 C.ar    1  UNL1        0.1788
     25 C           2.5726    0.0975   20.0064 C.3     1  UNL1        0.1124
     26 C           2.9512    1.4631   20.4982 C.3     1  UNL1        0.0134
     27 C           2.1939   -1.2680   19.5145 C.3     1  UNL1        0.0134
     28 C           1.1691    0.5715   19.7708 C.2     1  UNL1        0.3181
     29 O           0.0520    0.0667   20.6352 O.2     1  UNL1       -0.2501
     30 C          -0.0467    2.7022   18.9151 C.3     1  UNL1        0.2556
     31 O           0.8827    1.5505   18.6709 O.3     1  UNL1       -0.4444
@<TRIPOS>BOND
     1    30    31    1
     2    31    28    1
     3    28    29    2
     4    28    25    1
     5    25    26    1
     6    25    27    1
     7    25    19    1
     8    19     1    1
     9     1     2   ar
    10     2     3   ar
    11     3     4   ar
    12     4     7    1
    13     7     9    1
    14     9    10   ar
    15    10    11   ar
    16    11    12   ar
    17    12    13   ar
    18    13    14   ar
    19    14    15   ar
    20    15    16   ar
    21    16    17   ar
    22    17    18   ar
    23     4     5   ar
    24     5     6   ar
    25    19    20    1
    26    20    21   ar
    27    21    22   ar
    28    22    23   ar
    29    23    24   ar
    30     6     1   ar
    31    24    20   ar
    32    18     9   ar
    33    17    12   ar
    34     7     8    1
@<TRIPOS>MOLECULE
*****
 31 34 0 0 0
SMALL
GASTEIGER

@<TRIPOS>ATOM
      1 C           2.7169    0.3324   20.3585 C.ar    1  UNL1       -0.0011
      2 C           2.9280    1.7928   20.0891 C.ar    1  UNL1       -0.0012
      3 C           1.7479    2.6960   19.8850 C.ar    1  UNL1        0.0143
      4 C           0.3568    2.1389   19.9503 C.ar    1  UNL1        0.0483
      5 C           0.1457    0.6784   20.2197 C.ar    1  UNL1        0.0143
      6 C           1.3257   -0.2248   20.4238 C.ar    1  UNL1       -0.0012
      7 N          -0.8233    3.0421   19.7462 N.pl3   1  UNL1       -0.3125
      8 H          -0.9240    3.5369   18.9011 H       1  UNL1        0.1522
      9 C          -1.8498    3.1914   20.8298 C.ar    1  UNL1        0.0483
     10 C          -3.3100    3.1747   20.4870 C.ar    1  UNL1        0.0146
     11 C          -4.3365    3.3240   21.5705 C.ar    1  UNL1        0.0013
     12 C          -3.9028    3.4899   22.9969 C.ar    1  UNL1        0.0001
     13 C          -4.9292    3.6391   24.0804 C.ar    1  UNL1        0.0000
     14 C          -4.4955    3.8050   25.5066 C.ar    1  UNL1        0.0000
     15 C          -3.0353    3.8216   25.8494 C.ar    1  UNL1        0.0000
     16 C          -2.0088    3.6724   24.7659 C.ar    1  UNL1        0.0000
     17 C          -2.4425    3.5065   23.3397 C.ar    1  UNL1        0.0012
     18 C          -1.4160    3.3572   22.2561 C.ar    1  UNL1        0.0146
     19 C           3.8969   -0.5708   20.5626 C.3     1  UNL1        0.1194
     20 N           4.9169   -0.7297   19.4743 N.ar    1  UNL1       -0.3053
     21 C           6.4045   -0.7797   19.6606 C.ar    1  UNL1        0.0982
     22 C           7.0354   -0.9473   18.3102 C.ar    1  UNL1        0.1193
     23 N           5.9378   -1.0009   17.2891 N.ar    1  UNL1       -0.2223
     24 C           4.6285   -0.8664   18.0087 C.ar    1  UNL1        0.1788
     25 C           4.0570   -1.3153   21.8550 C.3     1  UNL1        0.1124
     26 C           4.2815   -0.0183   22.5743 C.3     1  UNL1        0.0134
     27 C           3.8324   -2.6122   21.1357 C.3     1  UNL1        0.0134
     28 C           4.2170   -2.0597   23.1473 C.2     1  UNL1        0.3181
     29 O           3.8131   -1.4142   24.4397 O.2     1  UNL1       -0.2501
     30 C           6.0683   -3.7368   23.8615 C.3     1  UNL1        0.2556
     31 O           4.7809   -3.4497   23.1474 O.3     1  UNL1       -0.4444
@<TRIPOS>BOND
     1    30    31    1
     2    31    28    1
     3    28    29    2
     4    28    25    1
     5    25    26    1
     6    25    27    1
     7    25    19    1
     8    19     1    1
     9     1     2   ar
    10     2     3   ar
    11     3     4   ar
    12     4     7    1
    13     7     9    1
    14     9    10   ar
    15    10    11   ar
    16    11    12   ar
    17    12    13   ar
    18    13    14   ar
    19    14    15   ar
    20    15    16   ar
    21    16    17   ar
    22    17    18   ar
    23     4     5   ar
    24     5     6   ar
    25    19    20    1
    26    20    21   ar
    27    21    22   ar
    28    22    23   ar
    29    23    24   ar
    30     6     1   ar
    31    24    20   ar
    32    18     9   ar
    33    17    12   ar
    34     7     8    1
