@<TRIPOS>MOLECULE
*****
 27 29 0 0 0
SMALL
GASTEIGER

@<TRIPOS>ATOM
      1 C          -8.1596  -18.3872   21.5318 C.2     1  UNL1        0.2420
      2 O          -9.6335  -18.6501   21.4395 O.2     1  UNL1       -0.2734
      3 N          -7.6062  -17.6191   22.6954 N.am    1  UNL1       -0.2760
      4 C          -6.1323  -17.3562   22.7878 C.3     1  UNL1        0.0984
      5 C          -5.5789  -16.5882   23.9513 C.3     1  UNL1        0.0499
      6 C          -6.4994  -16.0829   25.0225 C.ar    1  UNL1        0.0046
      7 C          -5.9461  -15.3149   26.1861 C.ar    1  UNL1        0.1359
      8 F          -4.4722  -15.0520   26.2784 F       1  UNL1       -0.2045
      9 C          -6.8666  -14.8097   27.2572 C.ar    1  UNL1        0.0293
     10 C          -8.3405  -15.0726   27.1649 C.ar    1  UNL1        0.0020
     11 C          -8.8938  -15.8407   26.0013 C.ar    1  UNL1       -0.0028
     12 C          -7.9733  -16.3458   24.9302 C.ar    1  UNL1       -0.0060
     13 C          -8.5267  -17.1139   23.7666 C.3     1  UNL1        0.0976
     14 C         -10.0006  -17.3768   23.6742 C.3     1  UNL1        0.0224
     15 C         -10.8789  -16.4538   22.8826 C.3     1  UNL1        0.0020
     16 C         -12.3528  -16.7166   22.7903 C.3     1  UNL1        0.0001
     17 C         -12.9484  -17.9026   23.4895 C.3     1  UNL1        0.0000
     18 C         -12.0701  -18.8256   24.2811 C.3     1  UNL1        0.0001
     19 C         -10.5962  -18.5627   24.3734 C.3     1  UNL1        0.0020
     20 C          -7.2391  -18.8924   20.4607 C.3     1  UNL1        0.1552
     21 N          -6.5422  -20.2097   20.6306 N.3     1  UNL1       -0.2878
     22 H          -6.5516  -20.4212   21.6284 H       1  UNL1        0.1238
     23 C          -5.1253  -20.3741   20.1665 C.3     1  UNL1        0.0985
     24 C          -3.1730  -19.1486   21.3650 C.3     1  UNL1        0.0332
     25 C          -4.1709  -19.2198   20.2474 C.3     1  UNL1        0.1263
     26 O          -4.2144  -18.1366   19.2106 O.3     1  UNL1       -0.3830
     27 H          -4.9110  -18.3345   18.5653 H       1  UNL1        0.2104
@<TRIPOS>BOND
     1    25    24    1
     2    25    26    1
     3    25    23    1
     4    23    21    1
     5    21    20    1
     6    20     1    1
     7     1     2    2
     8     1     3   am
     9     3     4    1
    10     4     5    1
    11     5     6    1
    12     6     7   ar
    13     7     8    1
    14     7     9   ar
    15     9    10   ar
    16    10    11   ar
    17    11    12   ar
    18    12    13    1
    19    13    14    1
    20    14    15    1
    21    15    16    1
    22    16    17    1
    23    17    18    1
    24    18    19    1
    25    13     3    1
    26    19    14    1
    27    12     6   ar
    28    26    27    1
    29    21    22    1
@<TRIPOS>MOLECULE
*****
 27 29 0 0 0
SMALL
GASTEIGER

@<TRIPOS>ATOM
      1 C          -7.3442  -16.2440   23.9083 C.2     1  UNL1        0.2420
      2 O          -8.8151  -16.5166   23.7977 O.2     1  UNL1       -0.2734
      3 N          -6.3627  -17.1207   23.1886 N.am    1  UNL1       -0.2760
      4 C          -4.8918  -16.8481   23.2992 C.3     1  UNL1        0.0984
      5 C          -3.9103  -17.7248   22.5795 C.3     1  UNL1        0.0499
      6 C          -4.3996  -18.8742   21.7491 C.ar    1  UNL1        0.0046
      7 C          -3.4181  -19.7508   21.0294 C.ar    1  UNL1        0.1359
      8 F          -1.9473  -19.4782   21.1401 F       1  UNL1       -0.2045
      9 C          -3.9075  -20.9002   20.1990 C.ar    1  UNL1        0.0293
     10 C          -5.3783  -21.1728   20.0883 C.ar    1  UNL1        0.0020
     11 C          -6.3598  -20.2961   20.8080 C.ar    1  UNL1       -0.0028
     12 C          -5.8705  -19.1468   21.6384 C.ar    1  UNL1       -0.0060
     13 C          -6.8520  -18.2700   22.3582 C.3     1  UNL1        0.0976
     14 C          -8.3229  -18.5427   22.2475 C.3     1  UNL1        0.0224
     15 C          -9.1311  -17.8736   21.1754 C.3     1  UNL1        0.0020
     16 C         -10.6019  -18.1462   21.0648 C.3     1  UNL1        0.0001
     17 C         -11.2646  -19.0879   22.0262 C.3     1  UNL1        0.0000
     18 C         -10.4564  -19.7569   23.0982 C.3     1  UNL1        0.0001
     19 C          -8.9855  -19.4843   23.2088 C.3     1  UNL1        0.0020
     20 C          -6.8548  -15.0947   24.7387 C.3     1  UNL1        0.1552
     21 N          -5.9512  -15.3463   25.9092 N.3     1  UNL1       -0.2878
     22 H          -5.3143  -16.0940   25.6340 H       1  UNL1        0.1238
     23 C          -6.5328  -15.7389   27.2350 C.3     1  UNL1        0.0985
     24 C          -8.7927  -17.0203   27.2259 C.3     1  UNL1        0.0332
     25 C          -8.0203  -15.7505   27.4276 C.3     1  UNL1        0.1263
     26 O          -8.7354  -14.4922   27.8218 O.3     1  UNL1       -0.3830
     27 H          -8.0940  -13.7699   27.9100 H       1  UNL1        0.2104
@<TRIPOS>BOND
     1    25    24    1
     2    25    26    1
     3    25    23    1
     4    23    21    1
     5    21    20    1
     6    20     1    1
     7     1     2    2
     8     1     3   am
     9     3     4    1
    10     4     5    1
    11     5     6    1
    12     6     7   ar
    13     7     8    1
    14     7     9   ar
    15     9    10   ar
    16    10    11   ar
    17    11    12   ar
    18    12    13    1
    19    13    14    1
    20    14    15    1
    21    15    16    1
    22    16    17    1
    23    17    18    1
    24    18    19    1
    25    13     3    1
    26    19    14    1
    27    12     6   ar
    28    26    27    1
    29    21    22    1
@<TRIPOS>MOLECULE
*****
 27 29 0 0 0
SMALL
GASTEIGER

@<TRIPOS>ATOM
      1 C          -6.2979  -19.0501   20.9354 C.2     1  UNL1        0.2420
      2 O          -7.6043  -19.5733   20.4161 O.2     1  UNL1       -0.2734
      3 N          -6.2749  -18.1425   22.1295 N.am    1  UNL1       -0.2760
      4 C          -4.9685  -17.6193   22.6488 C.3     1  UNL1        0.0984
      5 C          -4.9455  -16.7118   23.8429 C.3     1  UNL1        0.0499
      6 C          -6.2289  -16.3273   24.5176 C.ar    1  UNL1        0.0046
      7 C          -6.2058  -15.4198   25.7117 C.ar    1  UNL1        0.1359
      8 F          -4.8994  -14.8966   26.2310 F       1  UNL1       -0.2045
      9 C          -7.4891  -15.0354   26.3864 C.ar    1  UNL1        0.0293
     10 C          -8.7955  -15.5586   25.8671 C.ar    1  UNL1        0.0020
     11 C          -8.8185  -16.4661   24.6731 C.ar    1  UNL1       -0.0028
     12 C          -7.5352  -16.8505   23.9983 C.ar    1  UNL1       -0.0060
     13 C          -7.5582  -17.7581   22.8042 C.3     1  UNL1        0.0976
     14 C          -8.8646  -18.2813   22.2849 C.3     1  UNL1        0.0224
     15 C          -9.6227  -17.5082   21.2468 C.3     1  UNL1        0.0020
     16 C         -10.9291  -18.0313   20.7275 C.3     1  UNL1        0.0001
     17 C         -11.4774  -19.3276   21.2463 C.3     1  UNL1        0.0000
     18 C         -10.7193  -20.1007   22.2844 C.3     1  UNL1        0.0001
     19 C          -9.4129  -19.5775   22.8037 C.3     1  UNL1        0.0020
     20 C          -5.0146  -19.4345   20.2607 C.3     1  UNL1        0.1552
     21 N          -4.3404  -18.4727   19.3278 N.3     1  UNL1       -0.2878
     22 H          -4.6546  -18.7068   18.3860 H       1  UNL1        0.1238
     23 C          -2.8430  -18.3998   19.2791 C.3     1  UNL1        0.0985
     24 C          -1.7448  -16.7849   20.9925 C.3     1  UNL1        0.0332
     25 C          -2.0614  -18.1796   20.5403 C.3     1  UNL1        0.1263
     26 O          -1.5966  -19.3540   21.3494 O.3     1  UNL1       -0.3830
     27 H          -1.8829  -20.1757   20.9206 H       1  UNL1        0.2104
@<TRIPOS>BOND
     1    25    24    1
     2    25    26    1
     3    25    23    1
     4    23    21    1
     5    21    20    1
     6    20     1    1
     7     1     2    2
     8     1     3   am
     9     3     4    1
    10     4     5    1
    11     5     6    1
    12     6     7   ar
    13     7     8    1
    14     7     9   ar
    15     9    10   ar
    16    10    11   ar
    17    11    12   ar
    18    12    13    1
    19    13    14    1
    20    14    15    1
    21    15    16    1
    22    16    17    1
    23    17    18    1
    24    18    19    1
    25    13     3    1
    26    19    14    1
    27    12     6   ar
    28    26    27    1
    29    21    22    1
@<TRIPOS>MOLECULE
*****
 27 29 0 0 0
SMALL
GASTEIGER

@<TRIPOS>ATOM
      1 C          -6.1062  -16.7202   23.5410 C.2     1  UNL1        0.2420
      2 O          -5.1468  -17.6824   22.9055 O.2     1  UNL1       -0.2734
      3 N          -7.5694  -16.7980   23.2200 N.am    1  UNL1       -0.2760
      4 C          -8.5288  -15.8358   23.8554 C.3     1  UNL1        0.0984
      5 C          -9.9920  -15.9135   23.5344 C.3     1  UNL1        0.0499
      6 C         -10.4958  -16.9535   22.5780 C.ar    1  UNL1        0.0046
      7 C         -11.9590  -17.0312   22.2570 C.ar    1  UNL1        0.1359
      8 F         -12.9184  -16.0690   22.8924 F       1  UNL1       -0.2045
      9 C         -12.4628  -18.0712   21.3006 C.ar    1  UNL1        0.0293
     10 C         -11.5034  -19.0333   20.6652 C.ar    1  UNL1        0.0020
     11 C         -10.0402  -18.9556   20.9862 C.ar    1  UNL1       -0.0028
     12 C          -9.5365  -17.9157   21.9426 C.ar    1  UNL1       -0.0060
     13 C          -8.0732  -17.8379   22.2636 C.3     1  UNL1        0.0976
     14 C          -7.1138  -18.8001   21.6281 C.3     1  UNL1        0.0224
     15 C          -6.8942  -20.1530   22.2378 C.3     1  UNL1        0.0020
     16 C          -5.9348  -21.1152   21.6024 C.3     1  UNL1        0.0001
     17 C          -5.1951  -20.7245   20.3573 C.3     1  UNL1        0.0000
     18 C          -5.4147  -19.3717   19.7477 C.3     1  UNL1        0.0001
     19 C          -6.3741  -18.4095   20.3831 C.3     1  UNL1        0.0020
     20 C          -5.6024  -15.6803   24.4974 C.3     1  UNL1        0.1552
     21 N          -5.5876  -15.9608   25.9708 N.3     1  UNL1       -0.2878
     22 H          -5.9585  -16.9029   26.0949 H       1  UNL1        0.1238
     23 C          -6.3440  -15.0703   26.9115 C.3     1  UNL1        0.0985
     24 C          -8.2321  -16.8371   27.1625 C.3     1  UNL1        0.0332
     25 C          -7.7407  -15.4291   27.3242 C.3     1  UNL1        0.1263
     26 O          -8.6460  -14.3801   27.8985 O.3     1  UNL1       -0.3830
     27 H          -8.1765  -13.5320   27.9340 H       1  UNL1        0.2104
@<TRIPOS>BOND
     1    25    24    1
     2    25    26    1
     3    25    23    1
     4    23    21    1
     5    21    20    1
     6    20     1    1
     7     1     2    2
     8     1     3   am
     9     3     4    1
    10     4     5    1
    11     5     6    1
    12     6     7   ar
    13     7     8    1
    14     7     9   ar
    15     9    10   ar
    16    10    11   ar
    17    11    12   ar
    18    12    13    1
    19    13    14    1
    20    14    15    1
    21    15    16    1
    22    16    17    1
    23    17    18    1
    24    18    19    1
    25    13     3    1
    26    19    14    1
    27    12     6   ar
    28    26    27    1
    29    21    22    1
@<TRIPOS>MOLECULE
*****
 27 29 0 0 0
SMALL
GASTEIGER

@<TRIPOS>ATOM
      1 C         -10.1984  -17.6365   21.5707 C.2     1  UNL1        0.2420
      2 O         -10.3790  -16.6856   22.7166 O.2     1  UNL1       -0.2734
      3 N          -8.8559  -18.2544   21.3132 N.am    1  UNL1       -0.2760
      4 C          -8.6753  -19.2053   20.1673 C.3     1  UNL1        0.0984
      5 C          -7.3330  -19.8232   19.9099 C.3     1  UNL1        0.0499
      6 C          -6.1712  -19.4902   20.7984 C.ar    1  UNL1        0.0046
      7 C          -4.8289  -20.1081   20.5409 C.ar    1  UNL1        0.1359
      8 F          -4.6483  -21.0590   19.3950 F       1  UNL1       -0.2045
      9 C          -3.6671  -19.7750   21.4294 C.ar    1  UNL1        0.0293
     10 C          -3.8477  -18.8241   22.5753 C.ar    1  UNL1        0.0020
     11 C          -5.1901  -18.2062   22.8327 C.ar    1  UNL1       -0.0028
     12 C          -6.3518  -18.5393   21.9443 C.ar    1  UNL1       -0.0060
     13 C          -7.6942  -17.9214   22.2017 C.3     1  UNL1        0.0976
     14 C          -7.8748  -16.9704   23.3476 C.3     1  UNL1        0.0224
     15 C          -7.4573  -15.5367   23.2054 C.3     1  UNL1        0.0020
     16 C          -7.6379  -14.5858   24.3513 C.3     1  UNL1        0.0001
     17 C          -8.2360  -15.0686   25.6394 C.3     1  UNL1        0.0000
     18 C          -8.6535  -16.5022   25.7816 C.3     1  UNL1        0.0001
     19 C          -8.4729  -17.4531   24.6357 C.3     1  UNL1        0.0020
     20 C         -11.3601  -17.9696   20.6822 C.3     1  UNL1        0.1552
     21 N         -12.7627  -17.7830   21.1801 N.3     1  UNL1       -0.2878
     22 H         -13.2442  -17.2027   20.4933 H       1  UNL1        0.1238
     23 C         -13.0053  -17.1576   22.5218 C.3     1  UNL1        0.0985
     24 C         -12.1680  -18.7432   24.4018 C.3     1  UNL1        0.0332
     25 C         -13.2895  -18.0239   23.7128 C.3     1  UNL1        0.1263
     26 O         -14.6954  -18.1711   24.2149 O.3     1  UNL1       -0.3830
     27 H         -15.2931  -17.6447   23.6613 H       1  UNL1        0.2104
@<TRIPOS>BOND
     1    25    24    1
     2    25    26    1
     3    25    23    1
     4    23    21    1
     5    21    20    1
     6    20     1    1
     7     1     2    2
     8     1     3   am
     9     3     4    1
    10     4     5    1
    11     5     6    1
    12     6     7   ar
    13     7     8    1
    14     7     9   ar
    15     9    10   ar
    16    10    11   ar
    17    11    12   ar
    18    12    13    1
    19    13    14    1
    20    14    15    1
    21    15    16    1
    22    16    17    1
    23    17    18    1
    24    18    19    1
    25    13     3    1
    26    19    14    1
    27    12     6   ar
    28    26    27    1
    29    21    22    1
@<TRIPOS>MOLECULE
*****
 27 29 0 0 0
SMALL
GASTEIGER

@<TRIPOS>ATOM
      1 C         -10.0656  -18.3206   21.8217 C.2     1  UNL1        0.2420
      2 O         -10.3690  -17.3634   22.9359 O.2     1  UNL1       -0.2734
      3 N          -8.6471  -18.7203   21.5417 N.am    1  UNL1       -0.2760
      4 C          -8.3437  -19.6776   20.4274 C.3     1  UNL1        0.0984
      5 C          -6.9253  -20.0772   20.1474 C.3     1  UNL1        0.0499
      6 C          -5.8103  -19.5197   20.9816 C.ar    1  UNL1        0.0046
      7 C          -4.3919  -19.9194   20.7016 C.ar    1  UNL1        0.1359
      8 F          -4.0885  -20.8766   19.5874 F       1  UNL1       -0.2045
      9 C          -3.2770  -19.3618   21.5359 C.ar    1  UNL1        0.0293
     10 C          -3.5804  -18.4045   22.6501 C.ar    1  UNL1        0.0020
     11 C          -4.9988  -18.0048   22.9302 C.ar    1  UNL1       -0.0028
     12 C          -6.1137  -18.5624   22.0959 C.ar    1  UNL1       -0.0060
     13 C          -7.5322  -18.1627   22.3759 C.3     1  UNL1        0.0976
     14 C          -7.8356  -17.2055   23.4902 C.3     1  UNL1        0.0224
     15 C          -8.3915  -17.7156   24.7867 C.3     1  UNL1        0.0020
     16 C          -8.6949  -16.7584   25.9010 C.3     1  UNL1        0.0001
     17 C          -8.4425  -15.2910   25.7187 C.3     1  UNL1        0.0000
     18 C          -7.8867  -14.7809   24.4222 C.3     1  UNL1        0.0001
     19 C          -7.5832  -15.7382   23.3080 C.3     1  UNL1        0.0020
     20 C         -11.1805  -18.8782   20.9874 C.3     1  UNL1        0.1552
     21 N         -12.4382  -18.0851   20.7898 N.3     1  UNL1       -0.2878
     22 H         -12.7486  -18.2587   19.8338 H       1  UNL1        0.1238
     23 C         -12.4236  -16.5968   20.9768 C.3     1  UNL1        0.0985
     24 C         -10.3589  -15.2359   20.1802 C.3     1  UNL1        0.0332
     25 C         -11.7611  -15.7192   19.9566 C.3     1  UNL1        0.1263
     26 O         -12.5009  -15.3248   18.7127 O.3     1  UNL1       -0.3830
     27 H         -13.3872  -15.7189   18.7250 H       1  UNL1        0.2104
@<TRIPOS>BOND
     1    25    24    1
     2    25    26    1
     3    25    23    1
     4    23    21    1
     5    21    20    1
     6    20     1    1
     7     1     2    2
     8     1     3   am
     9     3     4    1
    10     4     5    1
    11     5     6    1
    12     6     7   ar
    13     7     8    1
    14     7     9   ar
    15     9    10   ar
    16    10    11   ar
    17    11    12   ar
    18    12    13    1
    19    13    14    1
    20    14    15    1
    21    15    16    1
    22    16    17    1
    23    17    18    1
    24    18    19    1
    25    13     3    1
    26    19    14    1
    27    12     6   ar
    28    26    27    1
    29    21    22    1
@<TRIPOS>MOLECULE
*****
 27 29 0 0 0
SMALL
GASTEIGER

@<TRIPOS>ATOM
      1 C          -6.0870  -16.5452   23.5141 C.2     1  UNL1        0.2420
      2 O          -4.7206  -17.0940   23.2284 O.2     1  UNL1       -0.2734
      3 N          -7.2737  -17.0516   22.7490 N.am    1  UNL1       -0.2760
      4 C          -8.6401  -16.5027   23.0347 C.3     1  UNL1        0.0984
      5 C          -9.8268  -17.0091   22.2696 C.3     1  UNL1        0.0499
      6 C          -9.6471  -18.0644   21.2188 C.ar    1  UNL1        0.0046
      7 C         -10.8337  -18.5708   20.4537 C.ar    1  UNL1        0.1359
      8 F         -12.2002  -18.0219   20.7394 F       1  UNL1       -0.2045
      9 C         -10.6539  -19.6260   19.4029 C.ar    1  UNL1        0.0293
     10 C          -9.2875  -20.1748   19.1173 C.ar    1  UNL1        0.0020
     11 C          -8.1008  -19.6684   19.8823 C.ar    1  UNL1       -0.0028
     12 C          -8.2806  -18.6132   20.9331 C.ar    1  UNL1       -0.0060
     13 C          -7.0939  -18.1068   21.6982 C.3     1  UNL1        0.0976
     14 C          -5.7275  -18.6556   21.4125 C.3     1  UNL1        0.0224
     15 C          -5.0214  -18.2860   20.1417 C.3     1  UNL1        0.0020
     16 C          -3.6549  -18.8348   19.8560 C.3     1  UNL1        0.0001
     17 C          -2.9946  -19.7533   20.8411 C.3     1  UNL1        0.0000
     18 C          -3.7007  -20.1230   22.1118 C.3     1  UNL1        0.0001
     19 C          -5.0672  -19.5741   22.3975 C.3     1  UNL1        0.0020
     20 C          -6.2668  -15.4899   24.5649 C.3     1  UNL1        0.1552
     21 N          -5.5411  -15.6026   25.8728 N.3     1  UNL1       -0.2878
     22 H          -4.8015  -16.2925   25.7406 H       1  UNL1        0.1238
     23 C          -6.2867  -15.9992   27.1125 C.3     1  UNL1        0.0985
     24 C          -8.6499  -17.0296   26.7915 C.3     1  UNL1        0.0332
     25 C          -7.7799  -15.8661   27.1645 C.3     1  UNL1        0.1263
     26 O          -8.4029  -14.5695   27.5895 O.3     1  UNL1       -0.3830
     27 H          -7.7054  -13.9273   27.7942 H       1  UNL1        0.2104
@<TRIPOS>BOND
     1    25    24    1
     2    25    26    1
     3    25    23    1
     4    23    21    1
     5    21    20    1
     6    20     1    1
     7     1     2    2
     8     1     3   am
     9     3     4    1
    10     4     5    1
    11     5     6    1
    12     6     7   ar
    13     7     8    1
    14     7     9   ar
    15     9    10   ar
    16    10    11   ar
    17    11    12   ar
    18    12    13    1
    19    13    14    1
    20    14    15    1
    21    15    16    1
    22    16    17    1
    23    17    18    1
    24    18    19    1
    25    13     3    1
    26    19    14    1
    27    12     6   ar
    28    26    27    1
    29    21    22    1
@<TRIPOS>MOLECULE
*****
 27 29 0 0 0
SMALL
GASTEIGER

@<TRIPOS>ATOM
      1 C          -8.1284  -18.1656   21.4761 C.2     1  UNL1        0.2420
      2 O          -9.5918  -18.4851   21.3955 O.2     1  UNL1       -0.2734
      3 N          -7.5833  -17.4429   22.6722 N.am    1  UNL1       -0.2760
      4 C          -6.1199  -17.1234   22.7528 C.3     1  UNL1        0.0984
      5 C          -5.5747  -16.4009   23.9488 C.3     1  UNL1        0.0499
      6 C          -6.4929  -15.9977   25.0644 C.ar    1  UNL1        0.0046
      7 C          -5.9477  -15.2752   26.2605 C.ar    1  UNL1        0.1359
      8 F          -4.4844  -14.9557   26.3410 F       1  UNL1       -0.2045
      9 C          -6.8659  -14.8721   27.3760 C.ar    1  UNL1        0.0293
     10 C          -8.3293  -15.1916   27.2955 C.ar    1  UNL1        0.0020
     11 C          -8.8745  -15.9142   26.0994 C.ar    1  UNL1       -0.0028
     12 C          -7.9563  -16.3172   24.9839 C.ar    1  UNL1       -0.0060
     13 C          -8.5014  -17.0399   23.7877 C.3     1  UNL1        0.0976
     14 C          -9.9648  -17.3594   23.7072 C.3     1  UNL1        0.0224
     15 C         -10.8915  -16.4475   22.9589 C.3     1  UNL1        0.0020
     16 C         -12.3548  -16.7670   22.8783 C.3     1  UNL1        0.0001
     17 C         -12.8915  -17.9984   23.5461 C.3     1  UNL1        0.0000
     18 C         -11.9649  -18.9101   24.2944 C.3     1  UNL1        0.0001
     19 C         -10.5015  -18.5906   24.3749 C.3     1  UNL1        0.0020
     20 C          -7.2103  -18.5686   20.3606 C.3     1  UNL1        0.1552
     21 N          -6.9196  -20.0197   20.1157 N.3     1  UNL1       -0.2878
     22 H          -6.2291  -20.0592   19.3660 H       1  UNL1        0.1238
     23 C          -8.0297  -20.9526   19.7318 C.3     1  UNL1        0.0985
     24 C          -8.8862  -21.1880   17.2904 C.3     1  UNL1        0.0332
     25 C          -8.9946  -20.5654   18.6507 C.3     1  UNL1        0.1263
     26 O         -10.0681  -19.5556   18.9299 O.3     1  UNL1       -0.3830
     27 H          -9.9980  -19.2550   19.8495 H       1  UNL1        0.2104
@<TRIPOS>BOND
     1    25    24    1
     2    25    26    1
     3    25    23    1
     4    23    21    1
     5    21    20    1
     6    20     1    1
     7     1     2    2
     8     1     3   am
     9     3     4    1
    10     4     5    1
    11     5     6    1
    12     6     7   ar
    13     7     8    1
    14     7     9   ar
    15     9    10   ar
    16    10    11   ar
    17    11    12   ar
    18    12    13    1
    19    13    14    1
    20    14    15    1
    21    15    16    1
    22    16    17    1
    23    17    18    1
    24    18    19    1
    25    13     3    1
    26    19    14    1
    27    12     6   ar
    28    26    27    1
    29    21    22    1
@<TRIPOS>MOLECULE
*****
 27 29 0 0 0
SMALL
GASTEIGER

@<TRIPOS>ATOM
      1 C           6.0476   -3.6168   23.5950 C.2     1  UNL1        0.2420
      2 O           6.2814   -4.3681   22.3179 O.2     1  UNL1       -0.2734
      3 N           5.0068   -2.5380   23.6508 N.am    1  UNL1       -0.2760
      4 C           4.7730   -1.7868   24.9279 C.3     1  UNL1        0.0984
      5 C           3.7322   -0.7081   24.9837 C.3     1  UNL1        0.0499
      6 C           2.9252   -0.3806   23.7624 C.ar    1  UNL1        0.0046
      7 C           1.8844    0.6981   23.8183 C.ar    1  UNL1        0.1359
      8 F           1.6507    1.4494   25.0953 F       1  UNL1       -0.2045
      9 C           1.0775    1.0256   22.5970 C.ar    1  UNL1        0.0293
     10 C           1.3112    0.2743   21.3199 C.ar    1  UNL1        0.0020
     11 C           2.3520   -0.8044   21.2641 C.ar    1  UNL1       -0.0028
     12 C           3.1590   -1.1318   22.4853 C.ar    1  UNL1       -0.0060
     13 C           4.1998   -2.2106   22.4295 C.3     1  UNL1        0.0976
     14 C           4.4336   -2.9618   21.1525 C.3     1  UNL1        0.0224
     15 C           3.7076   -4.2492   20.8960 C.3     1  UNL1        0.0020
     16 C           3.9414   -5.0005   19.6189 C.3     1  UNL1        0.0001
     17 C           4.9012   -4.4644   18.5983 C.3     1  UNL1        0.0000
     18 C           5.6270   -3.1770   18.8548 C.3     1  UNL1        0.0001
     19 C           5.3932   -2.4258   20.1319 C.3     1  UNL1        0.0020
     20 C           6.8546   -3.9442   24.8163 C.3     1  UNL1        0.1552
     21 N           6.3584   -4.9718   25.7898 N.3     1  UNL1       -0.2878
     22 H           5.9188   -4.4629   26.5567 H       1  UNL1        0.1238
     23 C           7.3187   -5.9436   26.4092 C.3     1  UNL1        0.0985
     24 C           8.3546   -7.5629   24.6615 C.3     1  UNL1        0.0332
     25 C           7.4591   -7.3247   25.8410 C.3     1  UNL1        0.1263
     26 O           6.7041   -8.4676   26.4523 O.3     1  UNL1       -0.3830
     27 H           6.1767   -8.1439   27.1993 H       1  UNL1        0.2104
@<TRIPOS>BOND
     1    25    24    1
     2    25    26    1
     3    25    23    1
     4    23    21    1
     5    21    20    1
     6    20     1    1
     7     1     2    2
     8     1     3   am
     9     3     4    1
    10     4     5    1
    11     5     6    1
    12     6     7   ar
    13     7     8    1
    14     7     9   ar
    15     9    10   ar
    16    10    11   ar
    17    11    12   ar
    18    12    13    1
    19    13    14    1
    20    14    15    1
    21    15    16    1
    22    16    17    1
    23    17    18    1
    24    18    19    1
    25    13     3    1
    26    19    14    1
    27    12     6   ar
    28    26    27    1
    29    21    22    1
