@<TRIPOS>MOLECULE
*****
 32 35 0 0 0
SMALL
GASTEIGER

@<TRIPOS>ATOM
      1 O         -10.4018  -19.7980   21.3050 O.3     1  UNL1       -0.4754
      2 C          -5.9787  -19.3422   20.6132 C.ar    1  UNL1        0.0032
      3 C          -6.5161  -19.4084   22.0120 C.ar    1  UNL1        0.0032
      4 C          -7.9905  -19.5604   22.2426 C.ar    1  UNL1        0.0369
      5 C          -8.9274  -19.6460   21.0744 C.ar    1  UNL1        0.1386
      6 C          -8.3900  -19.5798   19.6756 C.ar    1  UNL1        0.0369
      7 C          -6.9157  -19.4279   19.4450 C.ar    1  UNL1        0.0032
      8 N          -0.0813  -18.7346   19.6907 N.pl3   1  UNL1       -0.3274
      9 C          -1.5556  -18.8865   19.9213 C.ar    1  UNL1        0.2137
     10 N          -2.5263  -18.0415   19.1508 N.ar    1  UNL1       -0.2125
     11 C          -4.0006  -18.1934   19.3814 C.ar    1  UNL1        0.1033
     12 C          -4.5044  -19.1903   20.3825 C.ar    1  UNL1        0.0384
     13 C          -3.5337  -20.0353   21.1531 C.ar    1  UNL1        0.1033
     14 N          -2.0594  -19.8834   20.9224 N.ar    1  UNL1       -0.2125
     15 H           0.2493  -18.0802   19.0336 H       1  UNL1        0.1452
     16 H           0.5558  -19.2892   20.1964 H       1  UNL1        0.1452
     17 C         -10.9577  -19.6991   22.6947 C.3     1  UNL1        0.2068
     18 C         -11.8665  -18.5630   23.0599 C.3     1  UNL1        0.0646
     19 C         -11.4622  -17.1512   22.7542 C.3     1  UNL1        0.0759
     20 N         -10.0864  -16.6712   23.1101 N.3     1  UNL1       -0.2726
     21 C          -9.5967  -16.7789   24.5238 C.3     1  UNL1        0.0721
     22 C          -8.2209  -16.2990   24.8796 C.3     1  UNL1        0.0178
     23 C          -7.3346  -15.7113   23.8217 C.3     1  UNL1        0.0087
     24 C          -7.8242  -15.6036   22.4079 C.3     1  UNL1        0.0178
     25 C          -9.2001  -16.0835   22.0521 C.3     1  UNL1        0.0721
     26 C          -5.9587  -15.2314   24.1776 C.3     1  UNL1        0.0453
     27 C          -4.7540  -15.9843   23.6963 C.ar    1  UNL1        0.0541
     28 C          -4.3342  -17.3538   24.1416 C.ar    1  UNL1        0.1131
     29 N          -3.0782  -17.7158   23.4057 N.ar    1  UNL1       -0.2229
     30 C          -2.7218  -16.5700   22.5056 C.ar    1  UNL1        0.1748
     31 N          -3.7575  -15.4999   22.6852 N.ar    1  UNL1       -0.3382
     32 H          -3.7793  -14.6320   22.2210 H       1  UNL1        0.1672
@<TRIPOS>BOND
     1     8     9    1
     2     9    10   ar
     3    10    11   ar
     4    11    12   ar
     5    12     2    1
     6     2     3   ar
     7     3     4   ar
     8     4     5   ar
     9     5     1    1
    10     1    17    1
    11    17    18    1
    12    18    19    1
    13    19    20    1
    14    20    21    1
    15    21    22    1
    16    22    23    1
    17    23    26    1
    18    26    27    1
    19    27    28   ar
    20    28    29   ar
    21    29    30   ar
    22    30    31   ar
    23    23    24    1
    24    24    25    1
    25     5     6   ar
    26     6     7   ar
    27    12    13   ar
    28    13    14   ar
    29    14     9   ar
    30     7     2   ar
    31    25    20    1
    32    31    27   ar
    33     8    15    1
    34     8    16    1
    35    31    32    1
@<TRIPOS>MOLECULE
*****
 32 35 0 0 0
SMALL
GASTEIGER

@<TRIPOS>ATOM
      1 O          -4.8301  -20.3343   19.9937 O.3     1  UNL1       -0.4754
      2 C          -8.8080  -19.2960   21.8234 C.ar    1  UNL1        0.0032
      3 C          -7.7493  -19.9568   22.6555 C.ar    1  UNL1        0.0032
      4 C          -6.4234  -20.3029   22.0456 C.ar    1  UNL1        0.0369
      5 C          -6.1561  -19.9882   20.6036 C.ar    1  UNL1        0.1386
      6 C          -7.2148  -19.3274   19.7715 C.ar    1  UNL1        0.0369
      7 C          -8.5408  -18.9813   20.3814 C.ar    1  UNL1        0.0032
      8 N         -14.1120  -17.9116   24.2631 N.pl3   1  UNL1       -0.3274
      9 C         -12.7860  -18.2577   23.6532 C.ar    1  UNL1        0.2137
     10 N         -12.5012  -17.8999   22.2246 N.ar    1  UNL1       -0.2125
     11 C         -11.1753  -18.2460   21.6147 C.ar    1  UNL1        0.1033
     12 C         -10.1340  -18.9499   22.4333 C.ar    1  UNL1        0.0384
     13 C         -10.4188  -19.3078   23.8619 C.ar    1  UNL1        0.1033
     14 N         -11.7447  -18.9617   24.4718 N.ar    1  UNL1       -0.2125
     15 H         -14.7954  -17.4496   23.7258 H       1  UNL1        0.1452
     16 H         -14.2988  -18.1465   25.2007 H       1  UNL1        0.1452
     17 C          -3.9808  -19.2582   19.3849 C.3     1  UNL1        0.2068
     18 C          -2.4907  -19.2939   19.5529 C.3     1  UNL1        0.0646
     19 C          -1.8671  -18.7986   20.8241 C.3     1  UNL1        0.0759
     20 N          -2.6659  -17.9537   21.7717 N.3     1  UNL1       -0.2726
     21 C          -3.5095  -18.6042   22.8278 C.3     1  UNL1        0.0721
     22 C          -4.3083  -17.7593   23.7754 C.3     1  UNL1        0.0178
     23 C          -4.2636  -16.2639   23.6670 C.3     1  UNL1        0.0087
     24 C          -3.4200  -15.6134   22.6109 C.3     1  UNL1        0.0178
     25 C          -2.6212  -16.4583   21.6633 C.3     1  UNL1        0.0721
     26 C          -5.0624  -15.4190   24.6147 C.3     1  UNL1        0.0453
     27 C          -6.5578  -15.5322   24.6421 C.ar    1  UNL1        0.0541
     28 C          -7.4255  -16.0252   23.5222 C.ar    1  UNL1        0.1131
     29 N          -8.8521  -15.9700   23.9823 N.ar    1  UNL1       -0.2229
     30 C          -8.8662  -15.4428   25.3866 C.ar    1  UNL1        0.1748
     31 N          -7.4482  -15.1723   25.7943 N.ar    1  UNL1       -0.3382
     32 H          -7.1537  -14.8203   26.6653 H       1  UNL1        0.1672
@<TRIPOS>BOND
     1     8     9    1
     2     9    10   ar
     3    10    11   ar
     4    11    12   ar
     5    12     2    1
     6     2     3   ar
     7     3     4   ar
     8     4     5   ar
     9     5     1    1
    10     1    17    1
    11    17    18    1
    12    18    19    1
    13    19    20    1
    14    20    21    1
    15    21    22    1
    16    22    23    1
    17    23    26    1
    18    26    27    1
    19    27    28   ar
    20    28    29   ar
    21    29    30   ar
    22    30    31   ar
    23    23    24    1
    24    24    25    1
    25     5     6   ar
    26     6     7   ar
    27    12    13   ar
    28    13    14   ar
    29    14     9   ar
    30     7     2   ar
    31    25    20    1
    32    31    27   ar
    33     8    15    1
    34     8    16    1
    35    31    32    1
@<TRIPOS>MOLECULE
*****
 32 35 0 0 0
SMALL
GASTEIGER

@<TRIPOS>ATOM
      1 O          -6.5634  -15.2949   27.1081 O.3     1  UNL1       -0.4754
      2 C          -3.8189  -16.6836   23.8233 C.ar    1  UNL1        0.0032
      3 C          -4.7848  -15.5642   23.5706 C.ar    1  UNL1        0.0032
      4 C          -5.6997  -15.1013   24.6655 C.ar    1  UNL1        0.0369
      5 C          -5.6486  -15.7578   26.0132 C.ar    1  UNL1        0.1386
      6 C          -4.6827  -16.8772   26.2659 C.ar    1  UNL1        0.0369
      7 C          -3.7679  -17.3401   25.1710 C.ar    1  UNL1        0.0032
      8 N          -0.1596  -18.5351   19.4437 N.pl3   1  UNL1       -0.3274
      9 C          -1.0745  -18.0722   20.5386 C.ar    1  UNL1        0.2137
     10 N          -1.6898  -19.0704   21.4740 N.ar    1  UNL1       -0.2125
     11 C          -2.6046  -18.6075   22.5689 C.ar    1  UNL1        0.1033
     12 C          -2.9041  -17.1464   22.7284 C.ar    1  UNL1        0.0384
     13 C          -2.2888  -16.1483   21.7930 C.ar    1  UNL1        0.1033
     14 N          -1.3740  -16.6111   20.6981 N.ar    1  UNL1       -0.2125
     15 H           0.0370  -19.4941   19.3390 H       1  UNL1        0.1452
     16 H           0.2442  -17.8799   18.8298 H       1  UNL1        0.1452
     17 C          -8.0343  -15.5774   27.0261 C.3     1  UNL1        0.2068
     18 C          -8.5305  -16.9919   27.0808 C.3     1  UNL1        0.0646
     19 C          -9.6004  -17.4485   26.1337 C.3     1  UNL1        0.0759
     20 N          -9.2318  -17.9308   24.7620 N.3     1  UNL1       -0.2726
     21 C          -9.5335  -19.3432   24.3573 C.3     1  UNL1        0.0721
     22 C          -9.1649  -19.8254   22.9856 C.3     1  UNL1        0.0178
     23 C          -8.4945  -18.8952   22.0186 C.3     1  UNL1        0.0087
     24 C          -8.1927  -17.4826   22.4233 C.3     1  UNL1        0.0178
     25 C          -8.5613  -17.0004   23.7950 C.3     1  UNL1        0.0721
     26 C          -8.1259  -19.3774   20.6469 C.3     1  UNL1        0.0453
     27 C          -6.6827  -19.5373   20.2708 C.ar    1  UNL1        0.0541
     28 C          -5.8603  -20.7805   20.4389 C.ar    1  UNL1        0.1131
     29 N          -4.4777  -20.4937   19.9326 N.ar    1  UNL1       -0.2229
     30 C          -4.4457  -19.0732   19.4516 C.ar    1  UNL1        0.1748
     31 N          -5.8084  -18.4822   19.6606 N.ar    1  UNL1       -0.3382
     32 H          -6.0811  -17.5631   19.4366 H       1  UNL1        0.1672
@<TRIPOS>BOND
     1     8     9    1
     2     9    10   ar
     3    10    11   ar
     4    11    12   ar
     5    12     2    1
     6     2     3   ar
     7     3     4   ar
     8     4     5   ar
     9     5     1    1
    10     1    17    1
    11    17    18    1
    12    18    19    1
    13    19    20    1
    14    20    21    1
    15    21    22    1
    16    22    23    1
    17    23    26    1
    18    26    27    1
    19    27    28   ar
    20    28    29   ar
    21    29    30   ar
    22    30    31   ar
    23    23    24    1
    24    24    25    1
    25     5     6   ar
    26     6     7   ar
    27    12    13   ar
    28    13    14   ar
    29    14     9   ar
    30     7     2   ar
    31    25    20    1
    32    31    27   ar
    33     8    15    1
    34     8    16    1
    35    31    32    1
@<TRIPOS>MOLECULE
*****
 32 35 0 0 0
SMALL
GASTEIGER

@<TRIPOS>ATOM
      1 O          -5.8065  -15.9659   27.4254 O.3     1  UNL1       -0.4754
      2 C          -3.7718  -16.8426   23.5087 C.ar    1  UNL1        0.0032
      3 C          -4.7554  -15.7145   23.6068 C.ar    1  UNL1        0.0032
      4 C          -5.4336  -15.4222   24.9124 C.ar    1  UNL1        0.0369
      5 C          -5.1283  -16.2581   26.1198 C.ar    1  UNL1        0.1386
      6 C          -4.1446  -17.3863   26.0217 C.ar    1  UNL1        0.0369
      7 C          -3.4664  -17.6785   24.7161 C.ar    1  UNL1        0.0032
      8 N          -1.0587  -18.0117   18.2863 N.pl3   1  UNL1       -0.3274
      9 C          -1.7370  -17.7194   19.5919 C.ar    1  UNL1        0.2137
     10 N          -1.3250  -16.5249   20.4002 N.ar    1  UNL1       -0.2125
     11 C          -2.0033  -16.2326   21.7058 C.ar    1  UNL1        0.1033
     12 C          -3.0935  -17.1349   22.2031 C.ar    1  UNL1        0.0384
     13 C          -3.5055  -18.3294   21.3948 C.ar    1  UNL1        0.1033
     14 N          -2.8272  -18.6216   20.0892 N.ar    1  UNL1       -0.2125
     15 H          -0.3432  -17.4195   17.9599 H       1  UNL1        0.1452
     16 H          -1.3292  -18.7957   17.7558 H       1  UNL1        0.1452
     17 C          -6.9602  -15.0084   27.4735 C.3     1  UNL1        0.2068
     18 C          -8.3662  -15.5232   27.3843 C.3     1  UNL1        0.0646
     19 C          -8.6177  -16.9639   27.0507 C.3     1  UNL1        0.0759
     20 N          -9.1919  -17.3353   25.7156 N.3     1  UNL1       -0.2726
     21 C          -9.8231  -18.6818   25.5190 C.3     1  UNL1        0.0721
     22 C         -10.3973  -19.0532   24.1840 C.3     1  UNL1        0.0178
     23 C         -10.3403  -18.0782   23.0455 C.3     1  UNL1        0.0087
     24 C          -9.7092  -16.7316   23.2421 C.3     1  UNL1        0.0178
     25 C          -9.1350  -16.3602   24.5772 C.3     1  UNL1        0.0721
     26 C         -10.9145  -18.4496   21.7105 C.3     1  UNL1        0.0453
     27 C         -11.4164  -17.3802   20.7861 C.ar    1  UNL1        0.0541
     28 C         -12.7825  -16.7613   20.8130 C.ar    1  UNL1        0.1131
     29 N         -12.8506  -15.7405   19.7161 N.ar    1  UNL1       -0.2229
     30 C         -11.5266  -15.7285   19.0112 C.ar    1  UNL1        0.1748
     31 N         -10.6402  -16.7419   19.6726 N.ar    1  UNL1       -0.3382
     32 H          -9.7119  -16.9513   19.4201 H       1  UNL1        0.1672
@<TRIPOS>BOND
     1     8     9    1
     2     9    10   ar
     3    10    11   ar
     4    11    12   ar
     5    12     2    1
     6     2     3   ar
     7     3     4   ar
     8     4     5   ar
     9     5     1    1
    10     1    17    1
    11    17    18    1
    12    18    19    1
    13    19    20    1
    14    20    21    1
    15    21    22    1
    16    22    23    1
    17    23    26    1
    18    26    27    1
    19    27    28   ar
    20    28    29   ar
    21    29    30   ar
    22    30    31   ar
    23    23    24    1
    24    24    25    1
    25     5     6   ar
    26     6     7   ar
    27    12    13   ar
    28    13    14   ar
    29    14     9   ar
    30     7     2   ar
    31    25    20    1
    32    31    27   ar
    33     8    15    1
    34     8    16    1
    35    31    32    1
@<TRIPOS>MOLECULE
*****
 32 35 0 0 0
SMALL
GASTEIGER

@<TRIPOS>ATOM
      1 O          -9.8185   -5.6053   17.0940 O.3     1  UNL1       -0.4754
      2 C         -13.7116   -7.8247   17.5032 C.ar    1  UNL1        0.0032
      3 C         -13.1794   -7.4886   16.1417 C.ar    1  UNL1        0.0032
      4 C         -11.8817   -6.7488   16.0053 C.ar    1  UNL1        0.0369
      5 C         -11.1162   -6.3451   17.2304 C.ar    1  UNL1        0.1386
      6 C         -11.6484   -6.6811   18.5919 C.ar    1  UNL1        0.0369
      7 C         -12.9461   -7.4209   18.7283 C.ar    1  UNL1        0.0032
      8 N         -18.9025  -10.7839   18.0488 N.pl3   1  UNL1       -0.3274
      9 C         -17.6048  -10.0441   17.9124 C.ar    1  UNL1        0.2137
     10 N         -16.3381  -10.6477   18.4425 N.ar    1  UNL1       -0.2125
     11 C         -15.0404   -9.9079   18.3062 C.ar    1  UNL1        0.1033
     12 C         -15.0094   -8.5645   17.6396 C.ar    1  UNL1        0.0384
     13 C         -16.2761   -7.9609   17.1094 C.ar    1  UNL1        0.1033
     14 N         -17.5738   -8.7008   17.2458 N.ar    1  UNL1       -0.2125
     15 H         -18.9229  -11.6657   18.4863 H       1  UNL1        0.1452
     16 H         -19.7339  -10.3878   17.7008 H       1  UNL1        0.1452
     17 C          -9.6355   -4.2804   17.7731 C.3     1  UNL1        0.2068
     18 C         -10.1458   -3.0281   17.1239 C.3     1  UNL1        0.0646
     19 C         -11.2887   -2.2763   17.7394 C.3     1  UNL1        0.0759
     20 N         -12.5095   -3.0149   18.2024 N.3     1  UNL1       -0.2726
     21 C         -12.7071   -3.2963   19.6624 C.3     1  UNL1        0.0721
     22 C         -13.9279   -4.0348   20.1253 C.3     1  UNL1        0.0178
     23 C         -14.9510   -4.4919   19.1283 C.3     1  UNL1        0.0087
     24 C         -14.7534   -4.2105   17.6682 C.3     1  UNL1        0.0178
     25 C         -13.5326   -3.4720   17.2052 C.3     1  UNL1        0.0721
     26 C         -16.1718   -5.2304   19.5912 C.3     1  UNL1        0.0453
     27 C         -17.4468   -4.4839   19.8501 C.ar    1  UNL1        0.0541
     28 C         -18.8323   -4.9756   19.5525 C.ar    1  UNL1        0.1131
     29 N         -19.8020   -3.9102   19.9705 N.ar    1  UNL1       -0.2229
     30 C         -19.0157   -2.7600   20.5263 C.ar    1  UNL1        0.1748
     31 N         -17.5601   -3.1146   20.4519 N.ar    1  UNL1       -0.3382
     32 H         -16.8107   -2.5481   20.7463 H       1  UNL1        0.1672
@<TRIPOS>BOND
     1     8     9    1
     2     9    10   ar
     3    10    11   ar
     4    11    12   ar
     5    12     2    1
     6     2     3   ar
     7     3     4   ar
     8     4     5   ar
     9     5     1    1
    10     1    17    1
    11    17    18    1
    12    18    19    1
    13    19    20    1
    14    20    21    1
    15    21    22    1
    16    22    23    1
    17    23    26    1
    18    26    27    1
    19    27    28   ar
    20    28    29   ar
    21    29    30   ar
    22    30    31   ar
    23    23    24    1
    24    24    25    1
    25     5     6   ar
    26     6     7   ar
    27    12    13   ar
    28    13    14   ar
    29    14     9   ar
    30     7     2   ar
    31    25    20    1
    32    31    27   ar
    33     8    15    1
    34     8    16    1
    35    31    32    1
@<TRIPOS>MOLECULE
*****
 32 35 0 0 0
SMALL
GASTEIGER

@<TRIPOS>ATOM
      1 O          -5.9016  -15.9563   27.3913 O.3     1  UNL1       -0.4754
      2 C          -3.7898  -16.8304   23.5150 C.ar    1  UNL1        0.0032
      3 C          -3.4983  -17.6586   24.7312 C.ar    1  UNL1        0.0032
      4 C          -4.2022  -17.3672   26.0233 C.ar    1  UNL1        0.0369
      5 C          -5.1976  -16.2477   26.0992 C.ar    1  UNL1        0.1386
      6 C          -5.4891  -15.4195   24.8830 C.ar    1  UNL1        0.0369
      7 C          -4.7852  -15.7109   23.5909 C.ar    1  UNL1        0.0032
      8 N          -0.9741  -17.9960   18.3465 N.pl3   1  UNL1       -0.3274
      9 C          -1.6780  -17.7046   19.6386 C.ar    1  UNL1        0.2137
     10 N          -2.7180  -18.6533   20.1566 N.ar    1  UNL1       -0.2125
     11 C          -3.4220  -18.3619   21.4487 C.ar    1  UNL1        0.1033
     12 C          -3.0859  -17.1218   22.2228 C.ar    1  UNL1        0.0384
     13 C          -2.0458  -16.1732   21.7048 C.ar    1  UNL1        0.1033
     14 N          -1.3419  -16.4646   20.4127 N.ar    1  UNL1       -0.2125
     15 H          -1.1947  -18.8099   17.8384 H       1  UNL1        0.1452
     16 H          -0.2915  -17.3734   18.0065 H       1  UNL1        0.1452
     17 C          -7.0314  -14.9703   27.4241 C.3     1  UNL1        0.2068
     18 C          -8.4457  -15.4446   27.2662 C.3     1  UNL1        0.0646
     19 C          -8.7254  -16.8948   27.0035 C.3     1  UNL1        0.0759
     20 N          -9.2373  -17.3287   25.6620 N.3     1  UNL1       -0.2726
     21 C          -9.1362  -16.4037   24.4856 C.3     1  UNL1        0.0721
     22 C          -9.6481  -16.8377   23.1440 C.3     1  UNL1        0.0178
     23 C         -10.2610  -18.1967   22.9789 C.3     1  UNL1        0.0087
     24 C         -10.3621  -19.1218   24.1554 C.3     1  UNL1        0.0178
     25 C          -9.8502  -18.6879   25.4969 C.3     1  UNL1        0.0721
     26 C         -10.7729  -18.6306   21.6374 C.3     1  UNL1        0.0453
     27 C          -9.8213  -19.1654   20.6087 C.ar    1  UNL1        0.0541
     28 C          -8.3289  -19.2374   20.7411 C.ar    1  UNL1        0.1131
     29 N          -7.7802  -19.8386   19.4812 N.ar    1  UNL1       -0.2229
     30 C          -8.9335  -20.1382   18.5701 C.ar    1  UNL1        0.1748
     31 N         -10.1950  -19.7222   19.2669 N.ar    1  UNL1       -0.3382
     32 H         -11.1079  -19.8007   18.9069 H       1  UNL1        0.1672
@<TRIPOS>BOND
     1     8     9    1
     2     9    10   ar
     3    10    11   ar
     4    11    12   ar
     5    12     2    1
     6     2     3   ar
     7     3     4   ar
     8     4     5   ar
     9     5     1    1
    10     1    17    1
    11    17    18    1
    12    18    19    1
    13    19    20    1
    14    20    21    1
    15    21    22    1
    16    22    23    1
    17    23    26    1
    18    26    27    1
    19    27    28   ar
    20    28    29   ar
    21    29    30   ar
    22    30    31   ar
    23    23    24    1
    24    24    25    1
    25     5     6   ar
    26     6     7   ar
    27    12    13   ar
    28    13    14   ar
    29    14     9   ar
    30     7     2   ar
    31    25    20    1
    32    31    27   ar
    33     8    15    1
    34     8    16    1
    35    31    32    1
@<TRIPOS>MOLECULE
*****
 32 35 0 0 0
SMALL
GASTEIGER

@<TRIPOS>ATOM
      1 O         -13.4945    1.0017   16.8100 O.3     1  UNL1       -0.4754
      2 C         -11.7655   -3.0406   17.7691 C.ar    1  UNL1        0.0032
      3 C         -11.6319   -1.9154   18.7519 C.ar    1  UNL1        0.0032
      4 C         -12.2082   -0.5679   18.4322 C.ar    1  UNL1        0.0369
      5 C         -12.9182   -0.3457   17.1297 C.ar    1  UNL1        0.1386
      6 C         -13.0518   -1.4710   16.1469 C.ar    1  UNL1        0.0369
      7 C         -12.4755   -2.8184   16.4666 C.ar    1  UNL1        0.0032
      8 N          -9.4603   -8.4305   19.0480 N.pl3   1  UNL1       -0.3274
      9 C         -10.0366   -7.0830   18.7282 C.ar    1  UNL1        0.2137
     10 N          -9.4590   -5.8512   19.3598 N.ar    1  UNL1       -0.2125
     11 C         -10.0353   -4.5037   19.0401 C.ar    1  UNL1        0.1033
     12 C         -11.1892   -4.3881   18.0888 C.ar    1  UNL1        0.0384
     13 C         -11.7668   -5.6199   17.4572 C.ar    1  UNL1        0.1033
     14 N         -11.1905   -6.9674   17.7770 N.ar    1  UNL1       -0.2125
     15 H          -8.7029   -8.5064   19.6723 H       1  UNL1        0.1452
     16 H          -9.8394   -9.2390   18.6334 H       1  UNL1        0.1452
     17 C         -14.6128    1.5558   17.6421 C.3     1  UNL1        0.2068
     18 C         -15.8398    0.7307   17.8945 C.3     1  UNL1        0.0646
     19 C         -15.9385   -0.1063   19.1354 C.3     1  UNL1        0.0759
     20 N         -15.6510   -1.5772   19.0728 N.3     1  UNL1       -0.2726
     21 C         -14.9708   -2.2581   20.2233 C.3     1  UNL1        0.0721
     22 C         -14.6834   -3.7289   20.1606 C.3     1  UNL1        0.0178
     23 C         -15.0761   -4.5189   18.9475 C.3     1  UNL1        0.0087
     24 C         -15.7563   -3.8380   17.7970 C.3     1  UNL1        0.0178
     25 C         -16.0438   -2.3671   17.8596 C.3     1  UNL1        0.0721
     26 C         -14.7886   -5.9897   18.8849 C.3     1  UNL1        0.0453
     27 C         -15.8172   -6.9756   19.3540 C.ar    1  UNL1        0.0541
     28 C         -17.2705   -6.6886   19.5900 C.ar    1  UNL1        0.1131
     29 N         -17.9246   -7.9572   20.0512 N.ar    1  UNL1       -0.2229
     30 C         -16.8755   -9.0283   20.1002 C.ar    1  UNL1        0.1748
     31 N         -15.5731   -8.4216   19.6693 N.ar    1  UNL1       -0.3382
     32 H         -14.7097   -8.8902   19.6048 H       1  UNL1        0.1672
@<TRIPOS>BOND
     1     8     9    1
     2     9    10   ar
     3    10    11   ar
     4    11    12   ar
     5    12     2    1
     6     2     3   ar
     7     3     4   ar
     8     4     5   ar
     9     5     1    1
    10     1    17    1
    11    17    18    1
    12    18    19    1
    13    19    20    1
    14    20    21    1
    15    21    22    1
    16    22    23    1
    17    23    26    1
    18    26    27    1
    19    27    28   ar
    20    28    29   ar
    21    29    30   ar
    22    30    31   ar
    23    23    24    1
    24    24    25    1
    25     5     6   ar
    26     6     7   ar
    27    12    13   ar
    28    13    14   ar
    29    14     9   ar
    30     7     2   ar
    31    25    20    1
    32    31    27   ar
    33     8    15    1
    34     8    16    1
    35    31    32    1
@<TRIPOS>MOLECULE
*****
 32 35 0 0 0
SMALL
GASTEIGER

@<TRIPOS>ATOM
      1 O         -17.9721   -1.4410   18.2144 O.3     1  UNL1       -0.4754
      2 C         -17.5376   -5.9057   18.5720 C.ar    1  UNL1        0.0032
      3 C         -17.0979   -5.2073   17.3195 C.ar    1  UNL1        0.0032
      4 C         -17.2427   -3.7191   17.2003 C.ar    1  UNL1        0.0369
      5 C         -17.8273   -2.9292   18.3336 C.ar    1  UNL1        0.1386
      6 C         -18.2670   -3.6276   19.5861 C.ar    1  UNL1        0.0369
      7 C         -18.1222   -5.1159   19.7053 C.ar    1  UNL1        0.0032
      8 N         -16.9584  -11.8586   19.0488 N.pl3   1  UNL1       -0.3274
      9 C         -17.1032  -10.3704   18.9296 C.ar    1  UNL1        0.2137
     10 N         -18.0005   -9.7859   17.8793 N.ar    1  UNL1       -0.2125
     11 C         -18.1453   -8.2977   17.7601 C.ar    1  UNL1        0.1033
     12 C         -17.3928   -7.3939   18.6912 C.ar    1  UNL1        0.0384
     13 C         -16.4955   -7.9784   19.7415 C.ar    1  UNL1        0.1033
     14 N         -16.3507   -9.4666   19.8607 N.ar    1  UNL1       -0.2125
     15 H         -17.4523  -12.4518   18.4377 H       1  UNL1        0.1452
     16 H         -16.3695  -12.2422   19.7382 H       1  UNL1        0.1452
     17 C         -17.8379   -0.5745   19.4314 C.3     1  UNL1        0.2068
     18 C         -16.5343   -0.5170   20.1712 C.3     1  UNL1        0.0646
     19 C         -15.2401   -0.6123   19.4187 C.3     1  UNL1        0.0759
     20 N         -14.6648   -1.9564   19.0832 N.3     1  UNL1       -0.2726
     21 C         -14.0872   -2.2064   17.7217 C.3     1  UNL1        0.0721
     22 C         -13.5119   -3.5505   17.3863 C.3     1  UNL1        0.0178
     23 C         -13.5143   -4.6446   18.4124 C.3     1  UNL1        0.0087
     24 C         -14.0920   -4.3946   19.7740 C.3     1  UNL1        0.0178
     25 C         -14.6672   -3.0505   20.1094 C.3     1  UNL1        0.0721
     26 C         -12.9390   -5.9886   18.0769 C.3     1  UNL1        0.0453
     27 C         -11.5402   -6.3315   18.4960 C.ar    1  UNL1        0.0541
     28 C         -10.5041   -5.3636   18.9857 C.ar    1  UNL1        0.1131
     29 N          -9.2554   -6.1364   19.2914 N.ar    1  UNL1       -0.2229
     30 C          -9.5198   -7.5820   18.9907 C.ar    1  UNL1        0.1748
     31 N         -10.9318   -7.7026   18.4991 N.ar    1  UNL1       -0.3382
     32 H         -11.3805   -8.5354   18.2264 H       1  UNL1        0.1672
@<TRIPOS>BOND
     1     8     9    1
     2     9    10   ar
     3    10    11   ar
     4    11    12   ar
     5    12     2    1
     6     2     3   ar
     7     3     4   ar
     8     4     5   ar
     9     5     1    1
    10     1    17    1
    11    17    18    1
    12    18    19    1
    13    19    20    1
    14    20    21    1
    15    21    22    1
    16    22    23    1
    17    23    26    1
    18    26    27    1
    19    27    28   ar
    20    28    29   ar
    21    29    30   ar
    22    30    31   ar
    23    23    24    1
    24    24    25    1
    25     5     6   ar
    26     6     7   ar
    27    12    13   ar
    28    13    14   ar
    29    14     9   ar
    30     7     2   ar
    31    25    20    1
    32    31    27   ar
    33     8    15    1
    34     8    16    1
    35    31    32    1
@<TRIPOS>MOLECULE
*****
 32 35 0 0 0
SMALL
GASTEIGER

@<TRIPOS>ATOM
      1 O          -8.7823  -15.1671   25.9970 O.3     1  UNL1       -0.4754
      2 C          -8.9063  -17.7708   22.3289 C.ar    1  UNL1        0.0032
      3 C          -8.4761  -16.3382   22.2175 C.ar    1  UNL1        0.0032
      4 C          -8.4348  -15.4703   23.4402 C.ar    1  UNL1        0.0369
      5 C          -8.8236  -16.0350   24.7743 C.ar    1  UNL1        0.1386
      6 C          -9.2538  -17.4676   24.8857 C.ar    1  UNL1        0.0369
      7 C          -9.2951  -18.3356   23.6630 C.ar    1  UNL1        0.0032
      8 N          -9.0716  -21.2425   17.4380 N.pl3   1  UNL1       -0.3274
      9 C          -9.0303  -20.3746   18.6607 C.ar    1  UNL1        0.2137
     10 N         -10.2834  -19.7147   19.1548 N.ar    1  UNL1       -0.2125
     11 C         -10.2421  -18.8468   20.3775 C.ar    1  UNL1        0.1033
     12 C          -8.9476  -18.6387   21.1062 C.ar    1  UNL1        0.0384
     13 C          -7.6945  -19.2986   20.6121 C.ar    1  UNL1        0.1033
     14 N          -7.7358  -20.1665   19.3894 N.ar    1  UNL1       -0.2125
     15 H          -9.9212  -21.3790   16.9598 H       1  UNL1        0.1452
     16 H          -8.2491  -21.6756   17.1138 H       1  UNL1        0.1452
     17 C          -8.0829  -15.6470   27.2341 C.3     1  UNL1        0.2068
     18 C          -6.6207  -15.3715   27.4238 C.3     1  UNL1        0.0646
     19 C          -5.7972  -14.8682   26.2754 C.3     1  UNL1        0.0759
     20 N          -5.0954  -15.8397   25.3733 N.3     1  UNL1       -0.2726
     21 C          -4.2892  -16.9602   25.9601 C.3     1  UNL1        0.0721
     22 C          -3.5874  -17.9317   25.0580 C.3     1  UNL1        0.0178
     23 C          -3.6919  -17.7826   23.5691 C.3     1  UNL1        0.0087
     24 C          -4.4982  -16.6621   22.9823 C.3     1  UNL1        0.0178
     25 C          -5.1999  -15.6906   23.8844 C.3     1  UNL1        0.0721
     26 C          -2.9901  -18.7541   22.6670 C.3     1  UNL1        0.0453
     27 C          -2.1725  -18.2512   21.5144 C.ar    1  UNL1        0.0541
     28 C          -2.1138  -18.8580   20.1439 C.ar    1  UNL1        0.1131
     29 N          -1.1750  -18.0351   19.3124 N.ar    1  UNL1       -0.2229
     30 C          -0.6535  -16.9196   20.1691 C.ar    1  UNL1        0.1748
     31 N          -1.2700  -17.0532   21.5300 N.ar    1  UNL1       -0.3382
     32 H          -1.1103  -16.4589   22.2985 H       1  UNL1        0.1672
@<TRIPOS>BOND
     1     8     9    1
     2     9    10   ar
     3    10    11   ar
     4    11    12   ar
     5    12     2    1
     6     2     3   ar
     7     3     4   ar
     8     4     5   ar
     9     5     1    1
    10     1    17    1
    11    17    18    1
    12    18    19    1
    13    19    20    1
    14    20    21    1
    15    21    22    1
    16    22    23    1
    17    23    26    1
    18    26    27    1
    19    27    28   ar
    20    28    29   ar
    21    29    30   ar
    22    30    31   ar
    23    23    24    1
    24    24    25    1
    25     5     6   ar
    26     6     7   ar
    27    12    13   ar
    28    13    14   ar
    29    14     9   ar
    30     7     2   ar
    31    25    20    1
    32    31    27   ar
    33     8    15    1
    34     8    16    1
    35    31    32    1
