@<TRIPOS>MOLECULE
*****
 22 24 0 0 0
SMALL
GASTEIGER

@<TRIPOS>ATOM
      1 C          -2.9784  -20.1449   20.6146 C.3     1  UNL1        0.0310
      2 C          -4.3582  -19.7280   21.0300 C.ar    1  UNL1       -0.0222
      3 C          -5.5559  -20.4403   20.4749 C.ar    1  UNL1       -0.0043
      4 C          -6.9356  -20.0234   20.8903 C.ar    1  UNL1       -0.0009
      5 C          -7.1176  -18.8942   21.8607 C.ar    1  UNL1       -0.0079
      6 C          -5.9199  -18.1819   22.4158 C.ar    1  UNL1       -0.0187
      7 C          -4.5402  -18.5988   22.0004 C.ar    1  UNL1       -0.0082
      8 C          -6.4073  -17.1128   23.3483 C.3     1  UNL1        0.0480
      9 C          -7.9063  -17.1644   23.3696 C.2     1  UNL1       -0.0420
     10 C          -8.3453  -18.2653   22.4502 C.2     1  UNL1       -0.0242
     11 C          -9.7630  -18.6669   22.1695 C.3     1  UNL1        0.0681
     12 C         -10.2703  -20.0006   22.6320 C.3     1  UNL1        0.0116
     13 C         -10.6734  -17.7349   21.4263 C.ar    1  UNL1        0.0919
     14 N         -10.3925  -17.1029   20.0952 N.ar    1  UNL1       -0.2408
     15 C         -11.5700  -16.2487   19.7298 C.ar    1  UNL1        0.1061
     16 C         -12.5788  -16.3526   20.8352 C.ar    1  UNL1        0.0572
     17 S         -12.0247  -17.2711   21.8836 S.2     1  UNL1       -0.0699
     18 C          -8.8080  -16.2718   24.1697 C.3     1  UNL1        0.0394
     19 C          -8.2211  -15.2198   25.0635 C.3     1  UNL1        0.0765
     20 N          -7.5546  -15.6139   26.3482 N.3     1  UNL1       -0.2700
     21 C          -8.3470  -16.2896   27.4278 C.3     1  UNL1        0.0897
     22 C          -6.0956  -15.3321   26.5533 C.3     1  UNL1        0.0897
@<TRIPOS>BOND
     1     1     2    1
     2     2     3   ar
     3     3     4   ar
     4     4     5   ar
     5     5     6   ar
     6     6     7   ar
     7     6     8    1
     8     8     9    1
     9     9    18    1
    10    18    19    1
    11    19    20    1
    12    20    21    1
    13    20    22    1
    14     9    10    2
    15    10    11    1
    16    11    12    1
    17    11    13    1
    18    13    14   ar
    19    14    15   ar
    20    15    16   ar
    21    16    17   ar
    22     7     2   ar
    23    17    13   ar
    24    10     5    1
@<TRIPOS>MOLECULE
*****
 22 24 0 0 0
SMALL
GASTEIGER

@<TRIPOS>ATOM
      1 C          -5.6749  -14.9034   25.9727 C.3     1  UNL1        0.0310
      2 C          -5.7658  -15.8875   24.8443 C.ar    1  UNL1       -0.0222
      3 C          -4.5376  -16.6136   24.3816 C.ar    1  UNL1       -0.0043
      4 C          -4.6285  -17.5977   23.2531 C.ar    1  UNL1       -0.0009
      5 C          -5.9477  -17.8556   22.5874 C.ar    1  UNL1       -0.0079
      6 C          -7.1759  -17.1295   23.0501 C.ar    1  UNL1       -0.0187
      7 C          -7.0850  -16.1454   24.1785 C.ar    1  UNL1       -0.0082
      8 C          -8.3299  -17.5870   22.2079 C.3     1  UNL1        0.0480
      9 C          -7.8147  -18.5960   21.2248 C.2     1  UNL1       -0.0420
     10 C          -6.3425  -18.7619   21.4593 C.2     1  UNL1       -0.0242
     11 C          -5.4259  -19.6741   20.6992 C.3     1  UNL1        0.0681
     12 C          -5.8617  -21.0712   20.3702 C.3     1  UNL1        0.0116
     13 C          -4.0735  -19.1893   20.2680 C.ar    1  UNL1        0.0919
     14 N          -3.8027  -18.1327   19.2382 N.ar    1  UNL1       -0.2408
     15 C          -2.3164  -17.9662   19.1245 C.ar    1  UNL1        0.1061
     16 C          -1.6684  -18.9199   20.0841 C.ar    1  UNL1        0.0572
     17 S          -2.7544  -19.6758   20.7907 S.2     1  UNL1       -0.0699
     18 C          -8.6289  -19.3131   20.1889 C.3     1  UNL1        0.0394
     19 C         -10.0421  -18.8884   19.9196 C.3     1  UNL1        0.0765
     20 N         -11.0785  -19.0048   20.9976 N.3     1  UNL1       -0.2700
     21 C         -12.1296  -17.9449   21.1450 C.3     1  UNL1        0.0897
     22 C         -11.0639  -20.1811   21.9282 C.3     1  UNL1        0.0897
@<TRIPOS>BOND
     1     1     2    1
     2     2     3   ar
     3     3     4   ar
     4     4     5   ar
     5     5     6   ar
     6     6     7   ar
     7     6     8    1
     8     8     9    1
     9     9    18    1
    10    18    19    1
    11    19    20    1
    12    20    21    1
    13    20    22    1
    14     9    10    2
    15    10    11    1
    16    11    12    1
    17    11    13    1
    18    13    14   ar
    19    14    15   ar
    20    15    16   ar
    21    16    17   ar
    22     7     2   ar
    23    17    13   ar
    24    10     5    1
@<TRIPOS>MOLECULE
*****
 22 24 0 0 0
SMALL
GASTEIGER

@<TRIPOS>ATOM
      1 C         -11.2702  -19.1155   20.2829 C.3     1  UNL1        0.0310
      2 C         -10.0702  -18.5597   20.9907 C.ar    1  UNL1       -0.0222
      3 C         -10.1677  -17.2518   21.7185 C.ar    1  UNL1       -0.0043
      4 C          -8.9676  -16.6961   22.4263 C.ar    1  UNL1       -0.0009
      5 C          -7.6700  -17.4482   22.4062 C.ar    1  UNL1       -0.0079
      6 C          -7.5725  -18.7561   21.6784 C.ar    1  UNL1       -0.0187
      7 C          -8.7726  -19.3119   20.9706 C.ar    1  UNL1       -0.0082
      8 C          -6.1708  -19.2682   21.8310 C.3     1  UNL1        0.0480
      9 C          -5.4021  -18.2767   22.6532 C.2     1  UNL1       -0.0420
     10 C          -6.3287  -17.1519   23.0087 C.2     1  UNL1       -0.0242
     11 C          -5.9759  -15.9430   23.8236 C.3     1  UNL1        0.0681
     12 C          -4.9788  -14.9515   23.3015 C.3     1  UNL1        0.0116
     13 C          -6.6201  -15.7256   25.1606 C.ar    1  UNL1        0.0919
     14 N          -8.0932  -15.6181   25.4225 N.ar    1  UNL1       -0.2408
     15 C          -8.2880  -15.4036   26.8942 C.ar    1  UNL1        0.1061
     16 C          -6.9353  -15.3785   27.5420 C.ar    1  UNL1        0.0572
     17 S          -5.9045  -15.5775   26.4707 S.2     1  UNL1       -0.0699
     18 C          -3.9600  -18.3901   23.0503 C.3     1  UNL1        0.0394
     19 C          -2.9135  -18.6512   22.0080 C.3     1  UNL1        0.0765
     20 N          -2.4848  -17.5506   21.0834 N.3     1  UNL1       -0.2700
     21 C          -2.5205  -17.7617   19.5987 C.3     1  UNL1        0.0897
     22 C          -2.0204  -16.2389   21.6434 C.3     1  UNL1        0.0897
@<TRIPOS>BOND
     1     1     2    1
     2     2     3   ar
     3     3     4   ar
     4     4     5   ar
     5     5     6   ar
     6     6     7   ar
     7     6     8    1
     8     8     9    1
     9     9    18    1
    10    18    19    1
    11    19    20    1
    12    20    21    1
    13    20    22    1
    14     9    10    2
    15    10    11    1
    16    11    12    1
    17    11    13    1
    18    13    14   ar
    19    14    15   ar
    20    15    16   ar
    21    16    17   ar
    22     7     2   ar
    23    17    13   ar
    24    10     5    1
@<TRIPOS>MOLECULE
*****
 22 24 0 0 0
SMALL
GASTEIGER

@<TRIPOS>ATOM
      1 C          -5.7115  -14.9338   26.0976 C.3     1  UNL1        0.0310
      2 C          -6.3688  -15.7864   25.0530 C.ar    1  UNL1       -0.0222
      3 C          -5.5687  -16.3031   23.8943 C.ar    1  UNL1       -0.0043
      4 C          -6.2260  -17.1557   22.8497 C.ar    1  UNL1       -0.0009
      5 C          -7.6834  -17.4916   22.9640 C.ar    1  UNL1       -0.0079
      6 C          -8.4835  -16.9749   24.1228 C.ar    1  UNL1       -0.0187
      7 C          -7.8262  -16.1223   25.1673 C.ar    1  UNL1       -0.0082
      8 C          -9.8920  -17.4678   23.9701 C.3     1  UNL1        0.0480
      9 C          -9.9624  -18.2891   22.7169 C.2     1  UNL1       -0.0420
     10 C          -8.5974  -18.3038   22.0951 C.2     1  UNL1       -0.0242
     11 C          -8.2137  -19.0073   20.8271 C.3     1  UNL1        0.0681
     12 C          -9.2702  -19.3956   19.8356 C.3     1  UNL1        0.0116
     13 C          -6.7735  -19.3224   20.5505 C.ar    1  UNL1        0.0919
     14 N          -5.8159  -18.4647   19.7776 N.ar    1  UNL1       -0.2408
     15 C          -4.4887  -19.1627   19.7475 C.ar    1  UNL1        0.1061
     16 C          -4.6259  -20.4520   20.5018 C.ar    1  UNL1        0.0572
     17 S          -6.0379  -20.5508   20.9981 S.2     1  UNL1       -0.0699
     18 C         -11.1833  -18.9753   22.1798 C.3     1  UNL1        0.0394
     19 C         -12.3783  -18.1671   21.7690 C.3     1  UNL1        0.0765
     20 N         -12.2159  -16.7218   21.4019 N.3     1  UNL1       -0.2700
     21 C         -11.7548  -16.3448   20.0253 C.3     1  UNL1        0.0897
     22 C         -12.5147  -15.6535   22.4116 C.3     1  UNL1        0.0897
@<TRIPOS>BOND
     1     1     2    1
     2     2     3   ar
     3     3     4   ar
     4     4     5   ar
     5     5     6   ar
     6     6     7   ar
     7     6     8    1
     8     8     9    1
     9     9    18    1
    10    18    19    1
    11    19    20    1
    12    20    21    1
    13    20    22    1
    14     9    10    2
    15    10    11    1
    16    11    12    1
    17    11    13    1
    18    13    14   ar
    19    14    15   ar
    20    15    16   ar
    21    16    17   ar
    22     7     2   ar
    23    17    13   ar
    24    10     5    1
@<TRIPOS>MOLECULE
*****
 22 24 0 0 0
SMALL
GASTEIGER

@<TRIPOS>ATOM
      1 C         -14.1251  -18.3749   22.1205 C.3     1  UNL1        0.0310
      2 C         -12.6955  -17.9488   22.2771 C.ar    1  UNL1       -0.0222
      3 C         -12.3712  -16.5301   22.6403 C.ar    1  UNL1       -0.0043
      4 C         -10.9416  -16.1040   22.7969 C.ar    1  UNL1       -0.0009
      5 C          -9.8362  -17.0966   22.5902 C.ar    1  UNL1       -0.0079
      6 C         -10.1604  -18.5153   22.2270 C.ar    1  UNL1       -0.0187
      7 C         -11.5901  -18.9414   22.0704 C.ar    1  UNL1       -0.0082
      8 C          -8.8686  -19.2649   22.0872 C.3     1  UNL1        0.0480
      9 C          -7.7460  -18.3093   22.3640 C.2     1  UNL1       -0.0420
     10 C          -8.3440  -16.9692   22.6749 C.2     1  UNL1       -0.0242
     11 C          -7.5834  -15.7210   23.0114 C.3     1  UNL1        0.0681
     12 C          -7.4119  -14.6460   21.9795 C.3     1  UNL1        0.0116
     13 C          -6.9941  -15.5477   24.3799 C.ar    1  UNL1        0.0919
     14 N          -5.5981  -15.0931   24.6876 N.ar    1  UNL1       -0.2408
     15 C          -5.4385  -15.0629   26.1787 C.ar    1  UNL1        0.1061
     16 C          -6.7359  -15.4989   26.7927 C.ar    1  UNL1        0.0572
     17 S          -7.6972  -15.7985   25.6810 S.2     1  UNL1       -0.0699
     18 C          -6.2823  -18.6364   22.3351 C.3     1  UNL1        0.0394
     19 C          -5.6424  -19.0993   21.0599 C.3     1  UNL1        0.0765
     20 N          -4.1664  -18.9268   20.8558 N.3     1  UNL1       -0.2700
     21 C          -3.2464  -18.8766   22.0394 C.3     1  UNL1        0.0897
     22 C          -3.6104  -18.8046   19.4680 C.3     1  UNL1        0.0897
@<TRIPOS>BOND
     1     1     2    1
     2     2     3   ar
     3     3     4   ar
     4     4     5   ar
     5     5     6   ar
     6     6     7   ar
     7     6     8    1
     8     8     9    1
     9     9    18    1
    10    18    19    1
    11    19    20    1
    12    20    21    1
    13    20    22    1
    14     9    10    2
    15    10    11    1
    16    11    12    1
    17    11    13    1
    18    13    14   ar
    19    14    15   ar
    20    15    16   ar
    21    16    17   ar
    22     7     2   ar
    23    17    13   ar
    24    10     5    1
@<TRIPOS>MOLECULE
*****
 22 24 0 0 0
SMALL
GASTEIGER

@<TRIPOS>ATOM
      1 C          -0.1722    2.5928   19.5025 C.3     1  UNL1        0.0310
      2 C           0.7876    1.4402   19.4839 C.ar    1  UNL1       -0.0222
      3 C           0.5089    0.2188   20.3088 C.ar    1  UNL1       -0.0043
      4 C           1.4687   -0.9337   20.2903 C.ar    1  UNL1       -0.0009
      5 C           2.7072   -0.8649   19.4468 C.ar    1  UNL1       -0.0079
      6 C           2.9859    0.3565   18.6219 C.ar    1  UNL1       -0.0187
      7 C           2.0260    1.5091   18.6405 C.ar    1  UNL1       -0.0082
      8 C           4.2791    0.1389   17.8936 C.3     1  UNL1        0.0480
      9 C           4.7996   -1.2170   18.2685 C.2     1  UNL1       -0.0420
     10 C           3.8282   -1.8374   19.2284 C.2     1  UNL1       -0.0242
     11 C           3.9553   -3.1924   19.8591 C.3     1  UNL1        0.0681
     12 C           3.3142   -4.3841   19.2120 C.3     1  UNL1        0.0116
     13 C           4.7236   -3.3557   21.1370 C.ar    1  UNL1        0.0919
     14 N           5.9410   -4.2103   21.3308 N.ar    1  UNL1       -0.2408
     15 C           6.3792   -4.0760   22.7590 C.ar    1  UNL1        0.1061
     16 C           5.4325   -3.1384   23.4481 C.ar    1  UNL1        0.0572
     17 S           4.4093   -2.6932   22.4457 S.2     1  UNL1       -0.0699
     18 C           6.0688   -1.8427   17.7708 C.3     1  UNL1        0.0394
     19 C           7.2668   -1.9256   18.6696 C.3     1  UNL1        0.0765
     20 N           7.7048   -0.7209   19.4486 N.3     1  UNL1       -0.2700
     21 C           7.2642   -0.5471   20.8718 C.3     1  UNL1        0.0897
     22 C           8.5833    0.3101   18.8042 C.3     1  UNL1        0.0897
@<TRIPOS>BOND
     1     1     2    1
     2     2     3   ar
     3     3     4   ar
     4     4     5   ar
     5     5     6   ar
     6     6     7   ar
     7     6     8    1
     8     8     9    1
     9     9    18    1
    10    18    19    1
    11    19    20    1
    12    20    21    1
    13    20    22    1
    14     9    10    2
    15    10    11    1
    16    11    12    1
    17    11    13    1
    18    13    14   ar
    19    14    15   ar
    20    15    16   ar
    21    16    17   ar
    22     7     2   ar
    23    17    13   ar
    24    10     5    1
@<TRIPOS>MOLECULE
*****
 22 24 0 0 0
SMALL
GASTEIGER

@<TRIPOS>ATOM
      1 C         -10.3966  -19.5555   20.4193 C.3     1  UNL1        0.0310
      2 C          -9.0131  -19.2544   20.9147 C.ar    1  UNL1       -0.0222
      3 C          -8.8118  -18.2582   22.0179 C.ar    1  UNL1       -0.0043
      4 C          -7.4283  -17.9571   22.5132 C.ar    1  UNL1       -0.0009
      5 C          -6.2462  -18.6521   21.9054 C.ar    1  UNL1       -0.0079
      6 C          -6.4475  -19.6482   20.8022 C.ar    1  UNL1       -0.0187
      7 C          -7.8310  -19.9494   20.3068 C.ar    1  UNL1       -0.0082
      8 C          -5.1010  -20.1724   20.3994 C.3     1  UNL1        0.0480
      9 C          -4.0675  -19.5002   21.2538 C.2     1  UNL1       -0.0420
     10 C          -4.7752  -18.5606   22.1845 C.2     1  UNL1       -0.0242
     11 C          -4.1261  -17.6834   23.2136 C.3     1  UNL1        0.0681
     12 C          -2.6620  -17.8278   23.5063 C.3     1  UNL1        0.0116
     13 C          -4.9409  -16.6619   23.9501 C.ar    1  UNL1        0.0919
     14 N          -5.8255  -15.6232   23.3266 N.ar    1  UNL1       -0.2408
     15 C          -6.4455  -14.8190   24.4304 C.ar    1  UNL1        0.1061
     16 C          -5.9441  -15.3605   25.7364 C.ar    1  UNL1        0.0572
     17 S          -5.0142  -16.4994   25.4396 S.2     1  UNL1       -0.0699
     18 C          -2.5862  -19.7276   21.1888 C.3     1  UNL1        0.0394
     19 C          -1.7973  -19.2040   20.0253 C.3     1  UNL1        0.0765
     20 N          -1.8227  -17.7400   19.7000 N.3     1  UNL1       -0.2700
     21 C          -2.7864  -17.2155   18.6772 C.3     1  UNL1        0.0897
     22 C          -0.8843  -16.8004   20.3975 C.3     1  UNL1        0.0897
@<TRIPOS>BOND
     1     1     2    1
     2     2     3   ar
     3     3     4   ar
     4     4     5   ar
     5     5     6   ar
     6     6     7   ar
     7     6     8    1
     8     8     9    1
     9     9    18    1
    10    18    19    1
    11    19    20    1
    12    20    21    1
    13    20    22    1
    14     9    10    2
    15    10    11    1
    16    11    12    1
    17    11    13    1
    18    13    14   ar
    19    14    15   ar
    20    15    16   ar
    21    16    17   ar
    22     7     2   ar
    23    17    13   ar
    24    10     5    1
@<TRIPOS>MOLECULE
*****
 22 24 0 0 0
SMALL
GASTEIGER

@<TRIPOS>ATOM
      1 C          -6.3671  -14.2468   27.6139 C.3     1  UNL1        0.0310
      2 C          -6.8989  -15.1547   26.5449 C.ar    1  UNL1       -0.0222
      3 C          -6.2139  -15.2262   25.2124 C.ar    1  UNL1       -0.0043
      4 C          -6.7457  -16.1341   24.1434 C.ar    1  UNL1       -0.0009
      5 C          -7.9626  -16.9705   24.4068 C.ar    1  UNL1       -0.0079
      6 C          -8.6477  -16.8991   25.7393 C.ar    1  UNL1       -0.0187
      7 C          -8.1158  -15.9912   26.8083 C.ar    1  UNL1       -0.0082
      8 C          -9.8197  -17.8349   25.7088 C.3     1  UNL1        0.0480
      9 C          -9.8589  -18.4846   24.3574 C.2     1  UNL1       -0.0420
     10 C          -8.7112  -17.9505   23.5528 C.2     1  UNL1       -0.0242
     11 C          -8.3716  -18.3296   22.1418 C.3     1  UNL1        0.0681
     12 C          -6.9852  -18.7905   21.8019 C.3     1  UNL1        0.0116
     13 C          -9.4184  -18.2480   21.0706 C.ar    1  UNL1        0.0919
     14 N         -10.2211  -17.0323   20.7130 N.ar    1  UNL1       -0.2408
     15 C         -11.1451  -17.4005   19.5903 C.ar    1  UNL1        0.1061
     16 C         -10.9136  -18.8439   19.2539 C.ar    1  UNL1        0.0572
     17 S          -9.8465  -19.3676   20.1688 S.2     1  UNL1       -0.0699
     18 C         -10.8686  -19.4918   23.8923 C.3     1  UNL1        0.0394
     19 C         -12.0086  -19.0619   23.0174 C.3     1  UNL1        0.0765
     20 N         -12.9152  -17.9513   23.4587 N.3     1  UNL1       -0.2700
     21 C         -13.9846  -18.2157   24.4767 C.3     1  UNL1        0.0897
     22 C         -12.7523  -16.5763   22.8818 C.3     1  UNL1        0.0897
@<TRIPOS>BOND
     1     1     2    1
     2     2     3   ar
     3     3     4   ar
     4     4     5   ar
     5     5     6   ar
     6     6     7   ar
     7     6     8    1
     8     8     9    1
     9     9    18    1
    10    18    19    1
    11    19    20    1
    12    20    21    1
    13    20    22    1
    14     9    10    2
    15    10    11    1
    16    11    12    1
    17    11    13    1
    18    13    14   ar
    19    14    15   ar
    20    15    16   ar
    21    16    17   ar
    22     7     2   ar
    23    17    13   ar
    24    10     5    1
@<TRIPOS>MOLECULE
*****
 22 24 0 0 0
SMALL
GASTEIGER

@<TRIPOS>ATOM
      1 C           4.5292   -1.4328   26.8945 C.3     1  UNL1        0.0310
      2 C           4.1091   -1.2933   25.4613 C.ar    1  UNL1       -0.0222
      3 C           3.2130   -0.1633   25.0489 C.ar    1  UNL1       -0.0043
      4 C           2.7929   -0.0239   23.6157 C.ar    1  UNL1       -0.0009
      5 C           3.2690   -1.0144   22.5949 C.ar    1  UNL1       -0.0079
      6 C           4.1651   -2.1444   23.0072 C.ar    1  UNL1       -0.0187
      7 C           4.5852   -2.2838   24.4405 C.ar    1  UNL1       -0.0082
      8 C           4.4728   -2.9610   21.7871 C.3     1  UNL1        0.0480
      9 C           3.7668   -2.3357   20.6207 C.2     1  UNL1       -0.0420
     10 C           3.0228   -1.1326   21.1200 C.2     1  UNL1       -0.0242
     11 C           2.1805   -0.2098   20.2900 C.3     1  UNL1        0.0681
     12 C           0.7148   -0.4802   20.1212 C.3     1  UNL1        0.0116
     13 C           2.8039    0.9836   19.6287 C.ar    1  UNL1        0.0919
     14 N           4.2444    1.3913   19.7224 N.ar    1  UNL1       -0.2408
     15 C           4.4271    2.6384   18.9093 C.ar    1  UNL1        0.1061
     16 C           3.0995    3.0015   18.3129 C.ar    1  UNL1        0.0572
     17 S           2.0963    1.9788   18.7575 S.2     1  UNL1       -0.0699
     18 C           3.7991   -2.8270   19.2038 C.3     1  UNL1        0.0394
     19 C           4.9951   -2.5513   18.3415 C.3     1  UNL1        0.0765
     20 N           5.0508   -1.3018   17.5136 N.3     1  UNL1       -0.2700
     21 C           6.3129   -0.4929   17.4606 C.3     1  UNL1        0.0897
     22 C           3.8444   -0.8611   16.7389 C.3     1  UNL1        0.0897
@<TRIPOS>BOND
     1     1     2    1
     2     2     3   ar
     3     3     4   ar
     4     4     5   ar
     5     5     6   ar
     6     6     7   ar
     7     6     8    1
     8     8     9    1
     9     9    18    1
    10    18    19    1
    11    19    20    1
    12    20    21    1
    13    20    22    1
    14     9    10    2
    15    10    11    1
    16    11    12    1
    17    11    13    1
    18    13    14   ar
    19    14    15   ar
    20    15    16   ar
    21    16    17   ar
    22     7     2   ar
    23    17    13   ar
    24    10     5    1
