@<TRIPOS>MOLECULE
*****
 30 33 0 0 0
SMALL
GASTEIGER

@<TRIPOS>ATOM
      1 O           7.1811   -5.3817   24.7410 O.2     1  UNL1       -0.1683
      2 S           7.7899   -4.0557   24.3931 S.O2    1  UNL1        0.0143
      3 O           8.3988   -2.7297   24.0453 O.2     1  UNL1       -0.1683
      4 C           6.8894   -3.9558   23.1977 C.ar    1  UNL1        0.1253
      5 C           5.4360   -3.6317   23.3786 C.ar    1  UNL1        0.0247
      6 C           4.5355   -3.5318   22.1832 C.ar    1  UNL1        0.0594
      7 C           5.0882   -3.7560   20.8069 C.ar    1  UNL1        0.2298
      8 N           6.5416   -4.0801   20.6260 N.ar    1  UNL1       -0.2085
      9 C           7.4422   -4.1800   21.8214 C.ar    1  UNL1        0.1203
     10 O           4.1877   -3.6561   19.6114 O.3     1  UNL1       -0.4361
     11 C           3.6307   -2.3251   19.2013 C.ar    1  UNL1        0.1473
     12 C           2.5948   -1.6513   20.0516 C.ar    1  UNL1        0.0399
     13 C           2.0378   -0.3204   19.6415 C.ar    1  UNL1        0.0328
     14 C           2.5166    0.3368   18.3810 C.ar    1  UNL1        0.1403
     15 F           1.9595    1.6678   17.9709 F       1  UNL1       -0.2042
     16 C           3.5524   -0.3370   17.5306 C.ar    1  UNL1        0.0328
     17 C           4.1094   -1.6679   17.9408 C.ar    1  UNL1        0.0399
     18 C           8.6905   -4.1556   25.5886 C.3     1  UNL1        0.1823
     19 C           8.1587   -3.8446   26.9562 C.ar    1  UNL1        0.0014
     20 C           7.7522   -2.4427   27.3019 C.ar    1  UNL1       -0.0029
     21 C           7.2204   -2.1317   28.6696 C.ar    1  UNL1       -0.0048
     22 C           7.0950   -3.2226   29.6915 C.ar    1  UNL1       -0.0247
     23 C           7.5014   -4.6244   29.3457 C.ar    1  UNL1       -0.0250
     24 C           8.0333   -4.9355   27.9782 C.ar    1  UNL1       -0.0071
     25 C           7.4582   -5.8506   30.2088 C.3     1  UNL1        0.0431
     26 C           6.9978   -5.9775   31.6308 C.3     1  UNL1        0.0733
     27 N           6.4670   -4.9099   32.5408 N.3     1  UNL1       -0.2969
     28 C           6.2654   -3.4514   32.2537 C.3     1  UNL1        0.0733
     29 C           6.5449   -2.7005   30.9857 C.3     1  UNL1        0.0431
     30 H           7.0916   -4.9276   33.3471 H       1  UNL1        0.1233
@<TRIPOS>BOND
     1     1     2    2
     2     2     3    2
     3     2    18    1
     4    18    19    1
     5    19    20   ar
     6    20    21   ar
     7    21    22   ar
     8    22    23   ar
     9    23    24   ar
    10    23    25    1
    11    25    26    1
    12    26    27    1
    13    27    28    1
    14    28    29    1
    15     2     4    1
    16     4     5   ar
    17     5     6   ar
    18     6     7   ar
    19     7    10    1
    20    10    11    1
    21    11    12   ar
    22    12    13   ar
    23    13    14   ar
    24    14    15    1
    25    14    16   ar
    26    16    17   ar
    27     7     8   ar
    28     8     9   ar
    29    24    19   ar
    30     9     4   ar
    31    29    22    1
    32    17    11   ar
    33    27    30    1
@<TRIPOS>MOLECULE
*****
 30 33 0 0 0
SMALL
GASTEIGER

@<TRIPOS>ATOM
      1 O           6.1796   -4.6270   20.4881 O.2     1  UNL1       -0.1683
      2 S           6.6395   -3.3099   21.0394 S.O2    1  UNL1        0.0143
      3 O           7.0993   -1.9928   21.5907 O.2     1  UNL1       -0.1683
      4 C           5.2983   -2.7128   20.7315 C.ar    1  UNL1        0.1253
      5 C           4.5207   -2.0189   21.8104 C.ar    1  UNL1        0.0247
      6 C           3.1796   -1.4219   21.5024 C.ar    1  UNL1        0.0594
      7 C           2.6160   -1.5186   20.1158 C.ar    1  UNL1        0.2298
      8 N           3.3935   -2.2125   19.0369 N.ar    1  UNL1       -0.2085
      9 C           4.7347   -2.8096   19.3447 C.ar    1  UNL1        0.1203
     10 O           1.2748   -0.9215   19.8078 O.3     1  UNL1       -0.4361
     11 C           1.1341    0.5631   19.6464 C.ar    1  UNL1        0.1473
     12 C           2.0158    1.2997   18.6820 C.ar    1  UNL1        0.0399
     13 C           1.8751    2.7842   18.5206 C.ar    1  UNL1        0.0328
     14 C           0.8526    3.5324   19.3236 C.ar    1  UNL1        0.1403
     15 F           0.7119    5.0171   19.1622 F       1  UNL1       -0.2042
     16 C          -0.0292    2.7959   20.2880 C.ar    1  UNL1        0.0328
     17 C           0.1116    1.3113   20.4493 C.ar    1  UNL1        0.0399
     18 C           7.9806   -3.9070   21.3473 C.3     1  UNL1        0.1823
     19 C           8.1203   -4.9038   22.4594 C.ar    1  UNL1        0.0014
     20 C           8.9066   -6.1628   22.2436 C.ar    1  UNL1       -0.0029
     21 C           9.0463   -7.1598   23.3557 C.ar    1  UNL1       -0.0048
     22 C           8.3996   -6.8976   24.6836 C.ar    1  UNL1       -0.0247
     23 C           7.6133   -5.6386   24.8992 C.ar    1  UNL1       -0.0250
     24 C           7.4736   -4.6417   23.7872 C.ar    1  UNL1       -0.0071
     25 C           6.8942   -5.1853   26.1351 C.3     1  UNL1        0.0431
     26 C           6.7838   -5.8791   27.4605 C.3     1  UNL1        0.0733
     27 N           7.3653   -7.1974   27.8773 N.3     1  UNL1       -0.2969
     28 C           8.2008   -8.1477   27.0717 C.3     1  UNL1        0.0733
     29 C           8.6611   -8.0143   25.6504 C.3     1  UNL1        0.0431
     30 H           6.5600   -7.7505   28.1704 H       1  UNL1        0.1233
@<TRIPOS>BOND
     1     1     2    2
     2     2     3    2
     3     2    18    1
     4    18    19    1
     5    19    20   ar
     6    20    21   ar
     7    21    22   ar
     8    22    23   ar
     9    23    24   ar
    10    23    25    1
    11    25    26    1
    12    26    27    1
    13    27    28    1
    14    28    29    1
    15     2     4    1
    16     4     5   ar
    17     5     6   ar
    18     6     7   ar
    19     7    10    1
    20    10    11    1
    21    11    12   ar
    22    12    13   ar
    23    13    14   ar
    24    14    15    1
    25    14    16   ar
    26    16    17   ar
    27     7     8   ar
    28     8     9   ar
    29    24    19   ar
    30     9     4   ar
    31    29    22    1
    32    17    11   ar
    33    27    30    1
@<TRIPOS>MOLECULE
*****
 30 33 0 0 0
SMALL
GASTEIGER

@<TRIPOS>ATOM
      1 O          -0.5128    0.8956   20.5399 O.2     1  UNL1       -0.1683
      2 S           0.6878    1.7566   20.7993 S.O2    1  UNL1        0.0143
      3 O           1.8884    2.6175   21.0588 O.2     1  UNL1       -0.1683
      4 C           0.1642    2.0741   22.1686 C.ar    1  UNL1        0.1253
      5 C           0.7097    1.3537   23.3659 C.ar    1  UNL1        0.0247
      6 C           0.1860    1.6713   24.7352 C.ar    1  UNL1        0.0594
      7 C          -0.8831    2.7093   24.9073 C.ar    1  UNL1        0.2298
      8 N          -1.4286    3.4297   23.7100 N.ar    1  UNL1       -0.2085
      9 C          -0.9049    3.1122   22.3407 C.ar    1  UNL1        0.1203
     10 O          -1.4068    3.0269   26.2765 O.3     1  UNL1       -0.4361
     11 C          -0.6837    2.5248   27.4910 C.ar    1  UNL1        0.1473
     12 C          -0.9963    1.1649   28.0413 C.ar    1  UNL1        0.0399
     13 C          -0.2732    0.6628   29.2558 C.ar    1  UNL1        0.0328
     14 C           0.7625    1.5207   29.9201 C.ar    1  UNL1        0.1403
     15 F           1.4856    1.0186   31.1346 F       1  UNL1       -0.2042
     16 C           1.0752    2.8807   29.3699 C.ar    1  UNL1        0.0328
     17 C           0.3521    3.3827   28.1554 C.ar    1  UNL1        0.0399
     18 C           1.2115    1.4390   19.4300 C.3     1  UNL1        0.1823
     19 C           2.1896    0.3173   19.2427 C.ar    1  UNL1        0.0014
     20 C           2.7909    0.0644   17.8920 C.ar    1  UNL1       -0.0029
     21 C           3.7691   -1.0573   17.7046 C.ar    1  UNL1       -0.0048
     22 C           4.1458   -1.9261   18.8680 C.ar    1  UNL1       -0.0247
     23 C           3.5444   -1.6732   20.2186 C.ar    1  UNL1       -0.0250
     24 C           2.5663   -0.5515   20.4060 C.ar    1  UNL1       -0.0071
     25 C           3.7811   -2.4140   21.5013 C.3     1  UNL1        0.0431
     26 C           4.6775   -3.5907   21.7501 C.3     1  UNL1        0.0733
     27 N           5.5587   -4.3171   20.7776 N.3     1  UNL1       -0.2969
     28 C           5.7611   -4.0464   19.3162 C.3     1  UNL1        0.0733
     29 C           5.1323   -2.9823   18.4663 C.3     1  UNL1        0.0431
     30 H           5.2385   -5.2847   20.8163 H       1  UNL1        0.1233
@<TRIPOS>BOND
     1     1     2    2
     2     2     3    2
     3     2    18    1
     4    18    19    1
     5    19    20   ar
     6    20    21   ar
     7    21    22   ar
     8    22    23   ar
     9    23    24   ar
    10    23    25    1
    11    25    26    1
    12    26    27    1
    13    27    28    1
    14    28    29    1
    15     2     4    1
    16     4     5   ar
    17     5     6   ar
    18     6     7   ar
    19     7    10    1
    20    10    11    1
    21    11    12   ar
    22    12    13   ar
    23    13    14   ar
    24    14    15    1
    25    14    16   ar
    26    16    17   ar
    27     7     8   ar
    28     8     9   ar
    29    24    19   ar
    30     9     4   ar
    31    29    22    1
    32    17    11   ar
    33    27    30    1
@<TRIPOS>MOLECULE
*****
 30 33 0 0 0
SMALL
GASTEIGER

@<TRIPOS>ATOM
      1 O           6.1970   -2.3559   20.1492 O.2     1  UNL1       -0.1683
      2 S           5.3027   -3.5106   20.4912 S.O2    1  UNL1        0.0143
      3 O           4.4084   -4.6652   20.8332 O.2     1  UNL1       -0.1683
      4 C           6.0692   -3.7278   21.7621 C.ar    1  UNL1        0.1253
      5 C           5.3939   -3.5348   23.0876 C.ar    1  UNL1        0.0247
      6 C           6.1605   -3.7521   24.3584 C.ar    1  UNL1        0.0594
      7 C           7.6023   -4.1623   24.3040 C.ar    1  UNL1        0.2298
      8 N           8.2776   -4.3553   22.9785 N.ar    1  UNL1       -0.2085
      9 C           7.5110   -4.1381   21.7076 C.ar    1  UNL1        0.1203
     10 O           8.3689   -4.3796   25.5749 O.3     1  UNL1       -0.4361
     11 C           8.3988   -5.7383   26.2096 C.ar    1  UNL1        0.1473
     12 C           7.6592   -6.8789   25.5756 C.ar    1  UNL1        0.0399
     13 C           7.6891   -8.2376   26.2103 C.ar    1  UNL1        0.0328
     14 C           8.4587   -8.4558   27.4792 C.ar    1  UNL1        0.1403
     15 F           8.4886   -9.8145   28.1140 F       1  UNL1       -0.2042
     16 C           9.1984   -7.3152   28.1134 C.ar    1  UNL1        0.0328
     17 C           9.1684   -5.9565   27.4786 C.ar    1  UNL1        0.0399
     18 C           4.5362   -3.2933   19.2203 C.3     1  UNL1        0.1823
     19 C           3.7560   -2.0277   19.0221 C.ar    1  UNL1        0.0014
     20 C           3.9437   -1.2188   17.7729 C.ar    1  UNL1       -0.0029
     21 C           3.1635    0.0470   17.5746 C.ar    1  UNL1       -0.0048
     22 C           2.1955    0.5037   18.6256 C.ar    1  UNL1       -0.0247
     23 C           2.0079   -0.3051   19.8747 C.ar    1  UNL1       -0.0250
     24 C           2.7880   -1.5708   20.0730 C.ar    1  UNL1       -0.0071
     25 C           1.1017   -0.0320   21.0385 C.3     1  UNL1        0.0431
     26 C           0.1595    1.1176   21.2404 C.3     1  UNL1        0.0733
     27 N          -0.1093    2.2778   20.3286 N.3     1  UNL1       -0.2969
     28 C           0.4978    2.5752   18.9895 C.3     1  UNL1        0.0733
     29 C           1.5235    1.7856   18.2316 C.3     1  UNL1        0.0431
     30 H           0.1017    3.1007   20.8932 H       1  UNL1        0.1233
@<TRIPOS>BOND
     1     1     2    2
     2     2     3    2
     3     2    18    1
     4    18    19    1
     5    19    20   ar
     6    20    21   ar
     7    21    22   ar
     8    22    23   ar
     9    23    24   ar
    10    23    25    1
    11    25    26    1
    12    26    27    1
    13    27    28    1
    14    28    29    1
    15     2     4    1
    16     4     5   ar
    17     5     6   ar
    18     6     7   ar
    19     7    10    1
    20    10    11    1
    21    11    12   ar
    22    12    13   ar
    23    13    14   ar
    24    14    15    1
    25    14    16   ar
    26    16    17   ar
    27     7     8   ar
    28     8     9   ar
    29    24    19   ar
    30     9     4   ar
    31    29    22    1
    32    17    11   ar
    33    27    30    1
@<TRIPOS>MOLECULE
*****
 30 33 0 0 0
SMALL
GASTEIGER

@<TRIPOS>ATOM
      1 O           6.1955   -0.5152   19.4730 O.2     1  UNL1       -0.1683
      2 S           5.7661   -1.6606   18.6049 S.O2    1  UNL1        0.0143
      3 O           5.3367   -2.8061   17.7368 O.2     1  UNL1       -0.1683
      4 C           6.6588   -2.5832   19.3807 C.ar    1  UNL1        0.1253
      5 C           8.1365   -2.3303   19.4313 C.ar    1  UNL1        0.0247
      6 C           9.0291   -3.2530   20.2071 C.ar    1  UNL1        0.0594
      7 C           8.4442   -4.4285   20.9323 C.ar    1  UNL1        0.2298
      8 N           6.9665   -4.6814   20.8818 N.ar    1  UNL1       -0.2085
      9 C           6.0738   -3.7588   20.1060 C.ar    1  UNL1        0.1203
     10 O           9.3368   -5.3512   21.7081 O.3     1  UNL1       -0.4361
     11 C           8.9298   -5.8143   23.0756 C.ar    1  UNL1        0.1473
     12 C           8.8644   -7.2812   23.3821 C.ar    1  UNL1        0.0399
     13 C           8.4574   -7.7443   24.7494 C.ar    1  UNL1        0.0328
     14 C           8.1156   -6.7405   25.8104 C.ar    1  UNL1        0.1403
     15 F           7.7085   -7.2037   27.1778 F       1  UNL1       -0.2042
     16 C           8.1809   -5.2736   25.5039 C.ar    1  UNL1        0.0328
     17 C           8.5880   -4.8105   24.1365 C.ar    1  UNL1        0.0399
     18 C           4.8734   -0.7380   17.8291 C.3     1  UNL1        0.1823
     19 C           3.6364   -0.1790   18.4673 C.ar    1  UNL1        0.0014
     20 C           2.8034   -1.0403   19.3698 C.ar    1  UNL1       -0.0029
     21 C           1.5663   -0.4814   20.0080 C.ar    1  UNL1       -0.0048
     22 C           1.1623    0.9389   19.7438 C.ar    1  UNL1       -0.0247
     23 C           1.9952    1.8000   18.8414 C.ar    1  UNL1       -0.0250
     24 C           3.2322    1.2412   18.2031 C.ar    1  UNL1       -0.0071
     25 C           1.7738    3.2304   18.4475 C.3     1  UNL1        0.0431
     26 C           0.6646    4.1528   18.8589 C.3     1  UNL1        0.0733
     27 N          -0.4969    3.8725   19.7656 N.3     1  UNL1       -0.2969
     28 C          -0.8363    2.6008   20.4850 C.3     1  UNL1        0.0733
     29 C          -0.0979    1.2952   20.4753 C.3     1  UNL1        0.0431
     30 H          -1.3194    4.0712   19.1960 H       1  UNL1        0.1233
@<TRIPOS>BOND
     1     1     2    2
     2     2     3    2
     3     2    18    1
     4    18    19    1
     5    19    20   ar
     6    20    21   ar
     7    21    22   ar
     8    22    23   ar
     9    23    24   ar
    10    23    25    1
    11    25    26    1
    12    26    27    1
    13    27    28    1
    14    28    29    1
    15     2     4    1
    16     4     5   ar
    17     5     6   ar
    18     6     7   ar
    19     7    10    1
    20    10    11    1
    21    11    12   ar
    22    12    13   ar
    23    13    14   ar
    24    14    15    1
    25    14    16   ar
    26    16    17   ar
    27     7     8   ar
    28     8     9   ar
    29    24    19   ar
    30     9     4   ar
    31    29    22    1
    32    17    11   ar
    33    27    30    1
@<TRIPOS>MOLECULE
*****
 30 33 0 0 0
SMALL
GASTEIGER

@<TRIPOS>ATOM
      1 O           6.7072   -2.4706   19.8762 O.2     1  UNL1       -0.1683
      2 S           5.7303   -3.5786   20.1372 S.O2    1  UNL1        0.0143
      3 O           4.7534   -4.6865   20.3982 O.2     1  UNL1       -0.1683
      4 C           6.4408   -3.9034   21.4177 C.ar    1  UNL1        0.1253
      5 C           7.8725   -4.3503   21.3886 C.ar    1  UNL1        0.0247
      6 C           8.5829   -4.6751   22.6691 C.ar    1  UNL1        0.0594
      7 C           7.8619   -4.5531   23.9787 C.ar    1  UNL1        0.2298
      8 N           6.4302   -4.1062   24.0079 N.ar    1  UNL1       -0.2085
      9 C           5.7197   -3.7814   22.7274 C.ar    1  UNL1        0.1203
     10 O           8.5723   -4.8779   25.2593 O.3     1  UNL1       -0.4361
     11 C           7.9535   -4.5081   26.5748 C.ar    1  UNL1        0.1473
     12 C           7.1362   -5.5149   27.3287 C.ar    1  UNL1        0.0399
     13 C           6.5175   -5.1451   28.6440 C.ar    1  UNL1        0.0328
     14 C           6.7161   -3.7684   29.2057 C.ar    1  UNL1        0.1403
     15 F           6.0974   -3.3986   30.5211 F       1  UNL1       -0.2042
     16 C           7.5334   -2.7615   28.4518 C.ar    1  UNL1        0.0328
     17 C           8.1521   -3.1314   27.1364 C.ar    1  UNL1        0.0399
     18 C           5.0198   -3.2538   18.8567 C.3     1  UNL1        0.1823
     19 C           4.1191   -2.0566   18.7817 C.ar    1  UNL1        0.0014
     20 C           4.0953   -1.2126   17.5419 C.ar    1  UNL1       -0.0029
     21 C           3.1947   -0.0154   17.4668 C.ar    1  UNL1       -0.0048
     22 C           2.3178    0.3377   18.6315 C.ar    1  UNL1       -0.0247
     23 C           2.3416   -0.5064   19.8711 C.ar    1  UNL1       -0.0250
     24 C           3.2422   -1.7035   19.9463 C.ar    1  UNL1       -0.0071
     25 C           1.5541   -0.3329   21.1360 C.3     1  UNL1        0.0431
     26 C           0.5482    0.7276   21.4734 C.3     1  UNL1        0.0733
     27 N           0.0816    1.8763   20.6294 N.3     1  UNL1       -0.2969
     28 C           0.5053    2.2485   19.2394 C.3     1  UNL1        0.0733
     29 C           1.5006    1.5637   18.3503 C.3     1  UNL1        0.0431
     30 H           0.2859    2.7042   21.1891 H       1  UNL1        0.1233
@<TRIPOS>BOND
     1     1     2    2
     2     2     3    2
     3     2    18    1
     4    18    19    1
     5    19    20   ar
     6    20    21   ar
     7    21    22   ar
     8    22    23   ar
     9    23    24   ar
    10    23    25    1
    11    25    26    1
    12    26    27    1
    13    27    28    1
    14    28    29    1
    15     2     4    1
    16     4     5   ar
    17     5     6   ar
    18     6     7   ar
    19     7    10    1
    20    10    11    1
    21    11    12   ar
    22    12    13   ar
    23    13    14   ar
    24    14    15    1
    25    14    16   ar
    26    16    17   ar
    27     7     8   ar
    28     8     9   ar
    29    24    19   ar
    30     9     4   ar
    31    29    22    1
    32    17    11   ar
    33    27    30    1
@<TRIPOS>MOLECULE
*****
 30 33 0 0 0
SMALL
GASTEIGER

@<TRIPOS>ATOM
      1 O           6.1722   -6.3112   26.8698 O.2     1  UNL1       -0.1683
      2 S           7.5844   -5.8061   26.8989 S.O2    1  UNL1        0.0143
      3 O           8.9965   -5.3011   26.9281 O.2     1  UNL1       -0.1683
      4 C           7.4865   -5.4486   25.4455 C.ar    1  UNL1        0.1253
      5 C           6.6957   -4.2469   25.0203 C.ar    1  UNL1        0.0247
      6 C           6.5979   -3.8894   23.5668 C.ar    1  UNL1        0.0594
      7 C           7.2907   -4.7334   22.5385 C.ar    1  UNL1        0.2298
      8 N           8.0815   -5.9351   22.9636 N.ar    1  UNL1       -0.2085
      9 C           8.1794   -6.2927   24.4171 C.ar    1  UNL1        0.1203
     10 O           7.1929   -4.3760   21.0850 O.3     1  UNL1       -0.4361
     11 C           6.0561   -3.5281   20.5961 C.ar    1  UNL1        0.1473
     12 C           6.2068   -2.0371   20.5302 C.ar    1  UNL1        0.0399
     13 C           5.0701   -1.1894   20.0413 C.ar    1  UNL1        0.0328
     14 C           3.7826   -1.8325   19.6184 C.ar    1  UNL1        0.1403
     15 F           2.6459   -0.9846   19.1295 F       1  UNL1       -0.2042
     16 C           3.6319   -3.3235   19.6843 C.ar    1  UNL1        0.0328
     17 C           4.7687   -4.1712   20.1732 C.ar    1  UNL1        0.0399
     18 C           7.6822   -6.1637   28.3524 C.3     1  UNL1        0.1823
     19 C           7.2312   -5.1864   29.3971 C.ar    1  UNL1        0.0014
     20 C           7.2004   -5.5928   30.8407 C.ar    1  UNL1       -0.0029
     21 C           6.7494   -4.6155   31.8855 C.ar    1  UNL1       -0.0048
     22 C           6.3292   -3.2318   31.4867 C.ar    1  UNL1       -0.0247
     23 C           6.3600   -2.8256   30.0432 C.ar    1  UNL1       -0.0250
     24 C           6.8110   -3.8027   28.9984 C.ar    1  UNL1       -0.0071
     25 C           5.9860   -1.5065   29.4346 C.3     1  UNL1        0.0431
     26 C           5.4887   -0.2680   30.1195 C.3     1  UNL1        0.0733
     27 N           5.2427   -0.0428   31.5819 N.3     1  UNL1       -0.2969
     28 C           5.4332   -1.0003   32.7207 C.3     1  UNL1        0.0733
     29 C           5.9167   -2.4196   32.6784 C.3     1  UNL1        0.0431
     30 H           4.2608    0.2279   31.6371 H       1  UNL1        0.1233
@<TRIPOS>BOND
     1     1     2    2
     2     2     3    2
     3     2    18    1
     4    18    19    1
     5    19    20   ar
     6    20    21   ar
     7    21    22   ar
     8    22    23   ar
     9    23    24   ar
    10    23    25    1
    11    25    26    1
    12    26    27    1
    13    27    28    1
    14    28    29    1
    15     2     4    1
    16     4     5   ar
    17     5     6   ar
    18     6     7   ar
    19     7    10    1
    20    10    11    1
    21    11    12   ar
    22    12    13   ar
    23    13    14   ar
    24    14    15    1
    25    14    16   ar
    26    16    17   ar
    27     7     8   ar
    28     8     9   ar
    29    24    19   ar
    30     9     4   ar
    31    29    22    1
    32    17    11   ar
    33    27    30    1
@<TRIPOS>MOLECULE
*****
 30 33 0 0 0
SMALL
GASTEIGER

@<TRIPOS>ATOM
      1 O           9.4109   -3.7674   23.5606 O.2     1  UNL1       -0.1683
      2 S           9.0547   -5.1874   23.2341 S.O2    1  UNL1        0.0143
      3 O           8.6984   -6.6075   22.9076 O.2     1  UNL1       -0.1683
      4 C           8.6261   -5.4066   24.6548 C.ar    1  UNL1        0.1253
      5 C           7.2881   -6.0176   24.9488 C.ar    1  UNL1        0.0247
      6 C           6.8597   -6.2367   26.3695 C.ar    1  UNL1        0.0594
      7 C           7.7691   -5.8448   27.4962 C.ar    1  UNL1        0.2298
      8 N           9.1071   -5.2338   27.2022 N.ar    1  UNL1       -0.2085
      9 C           9.5356   -5.0147   25.7815 C.ar    1  UNL1        0.1203
     10 O           7.3407   -6.0639   28.9169 O.3     1  UNL1       -0.4361
     11 C           6.9727   -4.8924   29.7783 C.ar    1  UNL1        0.1473
     12 C           6.9518   -5.0363   31.2713 C.ar    1  UNL1        0.0399
     13 C           6.5838   -3.8648   32.1326 C.ar    1  UNL1        0.0328
     14 C           6.2367   -2.5492   31.5011 C.ar    1  UNL1        0.1403
     15 F           5.8687   -1.3777   32.3626 F       1  UNL1       -0.2042
     16 C           6.2575   -2.4052   30.0082 C.ar    1  UNL1        0.0328
     17 C           6.6255   -3.5768   29.1468 C.ar    1  UNL1        0.0399
     18 C           9.4832   -4.9683   21.8134 C.3     1  UNL1        0.1823
     19 C           8.6302   -4.1491   20.8907 C.ar    1  UNL1        0.0014
     20 C           9.2660   -3.1463   19.9741 C.ar    1  UNL1       -0.0029
     21 C           8.4131   -2.3271   19.0513 C.ar    1  UNL1       -0.0048
     22 C           6.9243   -2.5108   19.0452 C.ar    1  UNL1       -0.0247
     23 C           6.2887   -3.5136   19.9617 C.ar    1  UNL1       -0.0250
     24 C           7.1415   -4.3328   20.8845 C.ar    1  UNL1       -0.0071
     25 C           4.8352   -3.8520   20.1140 C.3     1  UNL1        0.0431
     26 C           3.6586   -3.2710   19.3871 C.3     1  UNL1        0.0733
     27 N           3.6449   -2.2084   18.3286 N.3     1  UNL1       -0.2969
     28 C           4.8043   -1.4641   17.7355 C.3     1  UNL1        0.0733
     29 C           6.2638   -1.5987   18.0544 C.3     1  UNL1        0.0431
     30 H           3.0395   -1.4795   18.7063 H       1  UNL1        0.1233
@<TRIPOS>BOND
     1     1     2    2
     2     2     3    2
     3     2    18    1
     4    18    19    1
     5    19    20   ar
     6    20    21   ar
     7    21    22   ar
     8    22    23   ar
     9    23    24   ar
    10    23    25    1
    11    25    26    1
    12    26    27    1
    13    27    28    1
    14    28    29    1
    15     2     4    1
    16     4     5   ar
    17     5     6   ar
    18     6     7   ar
    19     7    10    1
    20    10    11    1
    21    11    12   ar
    22    12    13   ar
    23    13    14   ar
    24    14    15    1
    25    14    16   ar
    26    16    17   ar
    27     7     8   ar
    28     8     9   ar
    29    24    19   ar
    30     9     4   ar
    31    29    22    1
    32    17    11   ar
    33    27    30    1
@<TRIPOS>MOLECULE
*****
 30 33 0 0 0
SMALL
GASTEIGER

@<TRIPOS>ATOM
      1 O           7.1785   -1.8317   24.0962 O.2     1  UNL1       -0.1683
      2 S           6.4894   -3.0835   23.6396 S.O2    1  UNL1        0.0143
      3 O           5.8004   -4.3352   23.1830 O.2     1  UNL1       -0.1683
      4 C           6.5306   -3.6172   25.0408 C.ar    1  UNL1        0.1253
      5 C           6.1734   -2.7264   26.1936 C.ar    1  UNL1        0.0247
      6 C           6.2146   -3.2602   27.5947 C.ar    1  UNL1        0.0594
      7 C           6.6131   -4.6848   27.8433 C.ar    1  UNL1        0.2298
      8 N           6.9703   -5.5757   26.6905 N.ar    1  UNL1       -0.2085
      9 C           6.9291   -5.0419   25.2893 C.ar    1  UNL1        0.1203
     10 O           6.6543   -5.2187   29.2444 O.3     1  UNL1       -0.4361
     11 C           7.3408   -4.4368   30.3249 C.ar    1  UNL1        0.1473
     12 C           8.8380   -4.3510   30.3529 C.ar    1  UNL1        0.0399
     13 C           9.5245   -3.5692   31.4334 C.ar    1  UNL1        0.0328
     14 C           8.7136   -2.8730   32.4859 C.ar    1  UNL1        0.1403
     15 F           9.4001   -2.0911   33.5664 F       1  UNL1       -0.2042
     16 C           7.2163   -2.9587   32.4580 C.ar    1  UNL1        0.0328
     17 C           6.5299   -3.7406   31.3775 C.ar    1  UNL1        0.0399
     18 C           6.4482   -2.5497   22.2384 C.3     1  UNL1        0.1823
     19 C           5.1606   -2.0292   21.6717 C.ar    1  UNL1        0.0014
     20 C           4.7303   -2.4338   20.2929 C.ar    1  UNL1       -0.0029
     21 C           3.4426   -1.9134   19.7261 C.ar    1  UNL1       -0.0048
     22 C           2.5853   -0.9884   20.5383 C.ar    1  UNL1       -0.0247
     23 C           3.0157   -0.5839   21.9170 C.ar    1  UNL1       -0.0250
     24 C           4.3033   -1.1043   22.4838 C.ar    1  UNL1       -0.0071
     25 C           2.3158    0.3208   22.8875 C.3     1  UNL1        0.0431
     26 C           1.0126    1.0443   22.7188 C.3     1  UNL1        0.0733
     27 N           0.0877    1.0419   21.5380 N.3     1  UNL1       -0.2969
     28 C           0.2373    0.3154   20.2342 C.3     1  UNL1        0.0733
     29 C           1.3488   -0.5882   19.7893 C.3     1  UNL1        0.0431
     30 H           0.0062    2.0241   21.2753 H       1  UNL1        0.1233
@<TRIPOS>BOND
     1     1     2    2
     2     2     3    2
     3     2    18    1
     4    18    19    1
     5    19    20   ar
     6    20    21   ar
     7    21    22   ar
     8    22    23   ar
     9    23    24   ar
    10    23    25    1
    11    25    26    1
    12    26    27    1
    13    27    28    1
    14    28    29    1
    15     2     4    1
    16     4     5   ar
    17     5     6   ar
    18     6     7   ar
    19     7    10    1
    20    10    11    1
    21    11    12   ar
    22    12    13   ar
    23    13    14   ar
    24    14    15    1
    25    14    16   ar
    26    16    17   ar
    27     7     8   ar
    28     8     9   ar
    29    24    19   ar
    30     9     4   ar
    31    29    22    1
    32    17    11   ar
    33    27    30    1
