@<TRIPOS>MOLECULE
*****
 34 36 0 0 0
SMALL
GASTEIGER

@<TRIPOS>ATOM
      1 C           1.2386    0.8191   20.3790 C.ar    1  UNL1        0.0696
      2 C           1.6744    1.0284   21.7989 C.ar    1  UNL1        0.0057
      3 C           2.8173    0.2336   22.3576 C.ar    1  UNL1       -0.0041
      4 C           3.5245   -0.7704   21.4963 C.ar    1  UNL1       -0.0185
      5 C           3.0887   -0.9797   20.0764 C.ar    1  UNL1        0.0677
      6 C           1.9458   -0.1850   19.5177 C.ar    1  UNL1        0.0095
      7 C           4.6674   -1.5651   22.0550 C.3     1  UNL1        0.0257
      8 C           4.3983   -2.8005   22.8619 C.3     1  UNL1        0.0259
      9 C           5.5412   -3.5953   23.4206 C.3     1  UNL1        0.0941
     10 N           6.9533   -3.1546   23.1723 N.am    1  UNL1       -0.2748
     11 C           8.0962   -3.9493   23.7309 C.2     1  UNL1        0.2668
     12 O           9.5083   -3.5086   23.4826 O.2     1  UNL1       -0.2683
     13 C           7.2225   -1.9192   22.3653 C.3     1  UNL1        0.0941
     14 C           6.0795   -1.1244   21.8066 C.3     1  UNL1        0.0259
     15 C           7.8271   -5.1847   24.5379 C.ar    1  UNL1        0.1347
     16 C           8.3078   -6.5191   24.0495 C.ar    1  UNL1        0.0238
     17 C           8.0386   -7.7545   24.8565 C.ar    1  UNL1        0.0033
     18 C           7.2887   -7.6557   26.1519 C.ar    1  UNL1        0.0207
     19 C           6.8080   -6.3214   26.6402 C.ar    1  UNL1        0.0990
     20 N           7.0772   -5.0859   25.8333 N.ar    1  UNL1       -0.2393
     21 N          -0.9511    2.1700   20.7394 N.am    1  UNL1       -0.1708
     22 C           0.0957    1.6138   19.8203 C.2     1  UNL1        0.3078
     23 O          -0.0005    1.8523   18.3425 O.2     1  UNL1       -0.2516
     24 H          -0.8880    2.0135   21.7093 H       1  UNL1        0.2545
     25 N          -3.4836    2.7486   20.7024 N.pl3   1  UNL1       -0.1313
     26 C          -2.0940    2.9648   20.1808 C.2     1  UNL1        0.3751
     27 N          -1.8473    3.9758   19.1004 N.pl3   1  UNL1       -0.2906
     28 H          -4.2338    3.2702   20.3357 H       1  UNL1        0.3060
     29 H          -2.5974    4.4974   18.7337 H       1  UNL1        0.2545
     30 H          -0.9352    4.1176   18.7580 H       1  UNL1        0.2545
     31 C           3.7959   -1.9838   19.2150 C.3     1  UNL1        0.4183
     32 F           4.5030   -2.9877   18.3537 F       1  UNL1       -0.1659
     33 F           2.8686   -3.0565   19.7042 F       1  UNL1       -0.1659
     34 F           4.7231   -0.9110   18.7258 F       1  UNL1       -0.1659
@<TRIPOS>BOND
     1    25    26    2
     2    26    27    1
     3    26    21    1
     4    21    22   am
     5    22    23    2
     6    22     1    1
     7     1     2   ar
     8     2     3   ar
     9     3     4   ar
    10     4     7    1
    11     7     8    1
    12     8     9    1
    13     9    10    1
    14    10    11   am
    15    11    12    2
    16    11    15    1
    17    15    16   ar
    18    16    17   ar
    19    17    18   ar
    20    18    19   ar
    21    19    20   ar
    22    10    13    1
    23    13    14    1
    24     4     5   ar
    25     5    31    1
    26    31    32    1
    27    31    33    1
    28    31    34    1
    29     5     6   ar
    30     6     1   ar
    31    14     7    1
    32    20    15   ar
    33    25    28    1
    34    27    29    1
    35    27    30    1
    36    21    24    1
@<TRIPOS>MOLECULE
*****
 34 36 0 0 0
SMALL
GASTEIGER

@<TRIPOS>ATOM
      1 C           3.1222   -0.1098   29.6131 C.ar    1  UNL1        0.0696
      2 C           3.6397    0.8744   28.6064 C.ar    1  UNL1        0.0057
      3 C           2.6793    1.6908   27.7933 C.ar    1  UNL1       -0.0041
      4 C           1.2013    1.5230   27.9869 C.ar    1  UNL1       -0.0185
      5 C           0.6838    0.5388   28.9936 C.ar    1  UNL1        0.0677
      6 C           1.6443   -0.2776   29.8067 C.ar    1  UNL1        0.0095
      7 C           0.2409    2.3393   27.1739 C.3     1  UNL1        0.0257
      8 C          -0.2570    1.8206   25.8575 C.3     1  UNL1        0.0259
      9 C          -1.2174    2.6369   25.0444 C.3     1  UNL1        0.0941
     10 N          -1.6799    3.9721   25.5477 N.am    1  UNL1       -0.2748
     11 C          -2.6404    4.7885   24.7346 C.2     1  UNL1        0.2668
     12 O          -3.1029    6.1236   25.2379 O.2     1  UNL1       -0.2683
     13 C          -1.1820    4.4909   26.8641 C.3     1  UNL1        0.0941
     14 C          -0.2216    3.6745   27.6772 C.3     1  UNL1        0.0259
     15 C          -3.1383    4.2697   23.4182 C.ar    1  UNL1        0.1347
     16 C          -4.4208    3.4944   23.3542 C.ar    1  UNL1        0.0238
     17 C          -4.9187    2.9756   22.0378 C.ar    1  UNL1        0.0033
     18 C          -4.1341    3.2321   20.7854 C.ar    1  UNL1        0.0207
     19 C          -2.8516    4.0074   20.8493 C.ar    1  UNL1        0.0990
     20 N          -2.3537    4.5262   22.1658 N.ar    1  UNL1       -0.2393
     21 N           3.7226   -1.3362   31.8234 N.am    1  UNL1       -0.1708
     22 C           4.0826   -0.9262   30.4262 C.2     1  UNL1        0.3078
     23 O           5.4030   -1.3326   29.8421 O.2     1  UNL1       -0.2516
     24 H           2.8559   -1.0695   32.2068 H       1  UNL1        0.2545
     25 N           4.1826   -3.3093   33.4498 N.pl3   1  UNL1       -0.1313
     26 C           4.6830   -2.1526   32.6365 C.2     1  UNL1        0.3751
     27 N           6.1439   -1.8122   32.6362 N.pl3   1  UNL1       -0.2906
     28 H           4.8130   -3.8451   33.9835 H       1  UNL1        0.3060
     29 H           6.7743   -2.3480   33.1699 H       1  UNL1        0.2545
     30 H           6.4724   -1.0530   32.1024 H       1  UNL1        0.2545
     31 C          -0.7942    0.3709   29.1873 C.3     1  UNL1        0.4183
     32 F          -2.2721    0.2030   29.3809 F       1  UNL1       -0.1659
     33 F          -0.7650    1.3865   30.2907 F       1  UNL1       -0.1659
     34 F          -0.8233   -0.6448   28.0839 F       1  UNL1       -0.1659
@<TRIPOS>BOND
     1    25    26    2
     2    26    27    1
     3    26    21    1
     4    21    22   am
     5    22    23    2
     6    22     1    1
     7     1     2   ar
     8     2     3   ar
     9     3     4   ar
    10     4     7    1
    11     7     8    1
    12     8     9    1
    13     9    10    1
    14    10    11   am
    15    11    12    2
    16    11    15    1
    17    15    16   ar
    18    16    17   ar
    19    17    18   ar
    20    18    19   ar
    21    19    20   ar
    22    10    13    1
    23    13    14    1
    24     4     5   ar
    25     5    31    1
    26    31    32    1
    27    31    33    1
    28    31    34    1
    29     5     6   ar
    30     6     1   ar
    31    14     7    1
    32    20    15   ar
    33    25    28    1
    34    27    29    1
    35    27    30    1
    36    21    24    1
@<TRIPOS>MOLECULE
*****
 34 36 0 0 0
SMALL
GASTEIGER

@<TRIPOS>ATOM
      1 C           6.7033   -2.6872   32.2765 C.ar    1  UNL1        0.0696
      2 C           5.2401   -2.7890   32.5907 C.ar    1  UNL1        0.0057
      3 C           4.6114   -1.8273   33.5550 C.ar    1  UNL1       -0.0041
      4 C           5.4459   -0.7638   34.2051 C.ar    1  UNL1       -0.0185
      5 C           6.9090   -0.6620   33.8909 C.ar    1  UNL1        0.0677
      6 C           7.5377   -1.6237   32.9266 C.ar    1  UNL1        0.0095
      7 C           4.8171    0.1979   35.1694 C.3     1  UNL1        0.0257
      8 C           4.3061    1.5215   34.6828 C.3     1  UNL1        0.0259
      9 C           3.6774    2.4832   35.6470 C.3     1  UNL1        0.0941
     10 N           3.5597    2.1213   37.0979 N.am    1  UNL1       -0.2748
     11 C           2.9310    3.0830   38.0622 C.2     1  UNL1        0.2668
     12 O           2.8133    2.7211   39.5131 O.2     1  UNL1       -0.2683
     13 C           4.0708    0.7977   37.5845 C.3     1  UNL1        0.0941
     14 C           4.6995   -0.1640   36.6203 C.3     1  UNL1        0.0259
     15 C           2.4199    4.4066   37.5756 C.ar    1  UNL1        0.1347
     16 C           3.2827    5.6290   37.6825 C.ar    1  UNL1        0.0238
     17 C           2.7716    6.9526   37.1959 C.ar    1  UNL1        0.0033
     18 C           1.3978    7.0539   36.6024 C.ar    1  UNL1        0.0207
     19 C           0.5350    5.8316   36.4954 C.ar    1  UNL1        0.0990
     20 N           1.0461    4.5079   36.9821 N.ar    1  UNL1       -0.2393
     21 N           6.5360   -4.8017   30.7762 N.am    1  UNL1       -0.1708
     22 C           7.3320   -3.6489   31.3122 C.2     1  UNL1        0.3078
     23 O           8.7568   -3.4578   30.8840 O.2     1  UNL1       -0.2516
     24 H           5.6008   -4.9271   31.0573 H       1  UNL1        0.2545
     25 N           8.4219   -6.4894   30.1890 N.pl3   1  UNL1       -0.1313
     26 C           7.1647   -5.7634   29.8119 C.2     1  UNL1        0.3751
     27 N           6.5361   -5.9991   28.4705 N.pl3   1  UNL1       -0.2906
     28 H           8.8345   -7.1206   29.5561 H       1  UNL1        0.3060
     29 H           6.9487   -6.6303   27.8376 H       1  UNL1        0.2545
     30 H           5.7109   -5.5226   28.2230 H       1  UNL1        0.2545
     31 C           7.7435    0.4015   34.5409 C.3     1  UNL1        0.4183
     32 F           8.5780    1.4651   35.1909 F       1  UNL1       -0.1659
     33 F           8.0402   -0.5277   35.6804 F       1  UNL1       -0.1659
     34 F           7.4468    1.3308   33.4015 F       1  UNL1       -0.1659
@<TRIPOS>BOND
     1    25    26    2
     2    26    27    1
     3    26    21    1
     4    21    22   am
     5    22    23    2
     6    22     1    1
     7     1     2   ar
     8     2     3   ar
     9     3     4   ar
    10     4     7    1
    11     7     8    1
    12     8     9    1
    13     9    10    1
    14    10    11   am
    15    11    12    2
    16    11    15    1
    17    15    16   ar
    18    16    17   ar
    19    17    18   ar
    20    18    19   ar
    21    19    20   ar
    22    10    13    1
    23    13    14    1
    24     4     5   ar
    25     5    31    1
    26    31    32    1
    27    31    33    1
    28    31    34    1
    29     5     6   ar
    30     6     1   ar
    31    14     7    1
    32    20    15   ar
    33    25    28    1
    34    27    29    1
    35    27    30    1
    36    21    24    1
@<TRIPOS>MOLECULE
*****
 34 36 0 0 0
SMALL
GASTEIGER

@<TRIPOS>ATOM
      1 C           4.3707   -2.1848   22.7959 C.ar    1  UNL1        0.0696
      2 C           3.6795   -1.3268   23.8138 C.ar    1  UNL1        0.0057
      3 C           2.7803   -0.2119   23.3687 C.ar    1  UNL1       -0.0041
      4 C           2.5721    0.0452   21.9057 C.ar    1  UNL1       -0.0185
      5 C           3.2632   -0.8127   20.8878 C.ar    1  UNL1        0.0677
      6 C           4.1625   -1.9277   21.3329 C.ar    1  UNL1        0.0095
      7 C           1.6728    1.1602   21.4606 C.3     1  UNL1        0.0257
      8 C           0.2599    0.8663   21.0518 C.3     1  UNL1        0.0259
      9 C          -0.6394    1.9813   20.6067 C.3     1  UNL1        0.0941
     10 N          -0.1257    3.3901   20.5704 N.am    1  UNL1       -0.2748
     11 C          -1.0250    4.5051   20.1253 C.2     1  UNL1        0.2668
     12 O          -0.5114    5.9139   20.0890 O.2     1  UNL1       -0.2683
     13 C           1.2872    3.6840   20.9792 C.3     1  UNL1        0.0941
     14 C           2.1865    2.5690   21.4243 C.3     1  UNL1        0.0259
     15 C          -2.4380    4.2113   19.7165 C.ar    1  UNL1        0.1347
     16 C          -2.8127    4.2053   18.2640 C.ar    1  UNL1        0.0238
     17 C          -4.2256    3.9115   17.8552 C.ar    1  UNL1        0.0033
     18 C          -5.2639    3.6236   18.8988 C.ar    1  UNL1        0.0207
     19 C          -4.8893    3.6296   20.3512 C.ar    1  UNL1        0.0990
     20 N          -3.4763    3.9234   20.7601 N.ar    1  UNL1       -0.2393
     21 N           5.7216   -3.3743   24.6694 N.am    1  UNL1       -0.1708
     22 C           5.2700   -3.2997   23.2410 C.2     1  UNL1        0.3078
     23 O           5.7176   -4.3402   22.2577 O.2     1  UNL1       -0.2516
     24 H           5.4278   -2.6914   25.3148 H       1  UNL1        0.2545
     25 N           7.7266   -4.9639   24.2190 N.pl3   1  UNL1       -0.1313
     26 C           6.6209   -4.4892   25.1145 C.2     1  UNL1        0.3751
     27 N           6.4144   -5.1295   26.4552 N.pl3   1  UNL1       -0.2906
     28 H           8.3168   -5.6957   24.5111 H       1  UNL1        0.3060
     29 H           7.0046   -5.8613   26.7474 H       1  UNL1        0.2545
     30 H           5.6887   -4.8180   27.0430 H       1  UNL1        0.2545
     31 C           3.0551   -0.5557   19.4246 C.3     1  UNL1        0.4183
     32 F           2.8470   -0.2986   17.9616 F       1  UNL1       -0.1659
     33 F           1.8898   -1.5001   19.4244 F       1  UNL1       -0.1659
     34 F           4.2204    0.3888   19.4248 F       1  UNL1       -0.1659
@<TRIPOS>BOND
     1    25    26    2
     2    26    27    1
     3    26    21    1
     4    21    22   am
     5    22    23    2
     6    22     1    1
     7     1     2   ar
     8     2     3   ar
     9     3     4   ar
    10     4     7    1
    11     7     8    1
    12     8     9    1
    13     9    10    1
    14    10    11   am
    15    11    12    2
    16    11    15    1
    17    15    16   ar
    18    16    17   ar
    19    17    18   ar
    20    18    19   ar
    21    19    20   ar
    22    10    13    1
    23    13    14    1
    24     4     5   ar
    25     5    31    1
    26    31    32    1
    27    31    33    1
    28    31    34    1
    29     5     6   ar
    30     6     1   ar
    31    14     7    1
    32    20    15   ar
    33    25    28    1
    34    27    29    1
    35    27    30    1
    36    21    24    1
@<TRIPOS>MOLECULE
*****
 34 36 0 0 0
SMALL
GASTEIGER

@<TRIPOS>ATOM
      1 C           7.4148   -4.0240   27.5321 C.ar    1  UNL1        0.0696
      2 C           6.2924   -3.0468   27.3443 C.ar    1  UNL1        0.0057
      3 C           5.8471   -2.6727   25.9616 C.ar    1  UNL1       -0.0041
      4 C           6.5243   -3.2758   24.7667 C.ar    1  UNL1       -0.0185
      5 C           7.6467   -4.2530   24.9545 C.ar    1  UNL1        0.0677
      6 C           8.0919   -4.6271   26.3372 C.ar    1  UNL1        0.0095
      7 C           6.0790   -2.9017   23.3840 C.3     1  UNL1        0.0257
      8 C           6.6134   -1.6598   22.7343 C.3     1  UNL1        0.0259
      9 C           6.1682   -1.2857   21.3516 C.3     1  UNL1        0.0941
     10 N           5.1885   -2.1535   20.6187 N.am    1  UNL1       -0.2748
     11 C           4.7433   -1.7794   19.2360 C.2     1  UNL1        0.2668
     12 O           3.7636   -2.6471   18.5031 O.2     1  UNL1       -0.2683
     13 C           4.6541   -3.3953   21.2684 C.3     1  UNL1        0.0941
     14 C           5.0994   -3.7694   22.6511 C.3     1  UNL1        0.0259
     15 C           5.2777   -0.5375   18.5863 C.ar    1  UNL1        0.1347
     16 C           4.6125    0.7840   18.8335 C.ar    1  UNL1        0.0238
     17 C           5.1469    2.0259   18.1838 C.ar    1  UNL1        0.0033
     18 C           6.3465    1.9462   17.2868 C.ar    1  UNL1        0.0207
     19 C           7.0117    0.6248   17.0395 C.ar    1  UNL1        0.0990
     20 N           6.4773   -0.6172   17.6893 N.ar    1  UNL1       -0.2393
     21 N           6.8489   -4.5555   30.0114 N.am    1  UNL1       -0.1708
     22 C           7.8600   -4.3981   28.9148 C.2     1  UNL1        0.3078
     23 O           9.3164   -4.6148   29.2008 O.2     1  UNL1       -0.2516
     24 H           5.8929   -4.4133   29.8237 H       1  UNL1        0.2545
     25 N           6.5933   -6.0289   32.1360 N.pl3   1  UNL1       -0.1313
     26 C           7.2941   -4.9296   31.3941 C.2     1  UNL1        0.3751
     27 N           8.4402   -4.2044   32.0349 N.pl3   1  UNL1       -0.2906
     28 H           6.8855   -6.2744   33.0435 H       1  UNL1        0.3060
     29 H           8.7325   -4.4499   32.9424 H       1  UNL1        0.2545
     30 H           8.9002   -3.4829   31.5479 H       1  UNL1        0.2545
     31 C           8.3239   -4.8561   23.7596 C.3     1  UNL1        0.4183
     32 F           9.0010   -5.4592   22.5648 F       1  UNL1       -0.1659
     33 F           9.1971   -3.6422   23.6418 F       1  UNL1       -0.1659
     34 F           7.4507   -6.0700   23.8775 F       1  UNL1       -0.1659
@<TRIPOS>BOND
     1    25    26    2
     2    26    27    1
     3    26    21    1
     4    21    22   am
     5    22    23    2
     6    22     1    1
     7     1     2   ar
     8     2     3   ar
     9     3     4   ar
    10     4     7    1
    11     7     8    1
    12     8     9    1
    13     9    10    1
    14    10    11   am
    15    11    12    2
    16    11    15    1
    17    15    16   ar
    18    16    17   ar
    19    17    18   ar
    20    18    19   ar
    21    19    20   ar
    22    10    13    1
    23    13    14    1
    24     4     5   ar
    25     5    31    1
    26    31    32    1
    27    31    33    1
    28    31    34    1
    29     5     6   ar
    30     6     1   ar
    31    14     7    1
    32    20    15   ar
    33    25    28    1
    34    27    29    1
    35    27    30    1
    36    21    24    1
@<TRIPOS>MOLECULE
*****
 34 36 0 0 0
SMALL
GASTEIGER

@<TRIPOS>ATOM
      1 C          -3.8642    3.4939   24.5869 C.ar    1  UNL1        0.0696
      2 C          -4.0690    3.7502   26.0506 C.ar    1  UNL1        0.0057
      3 C          -2.9087    3.6618   26.9970 C.ar    1  UNL1       -0.0041
      4 C          -1.5435    3.3171   26.4799 C.ar    1  UNL1       -0.0185
      5 C          -1.3387    3.0607   25.0162 C.ar    1  UNL1        0.0677
      6 C          -2.4991    3.1491   24.0698 C.ar    1  UNL1        0.0095
      7 C          -0.3832    3.2286   27.4263 C.3     1  UNL1        0.0257
      8 C          -0.0024    1.9070   28.0247 C.3     1  UNL1        0.0259
      9 C           1.1579    1.8186   28.9712 C.3     1  UNL1        0.0941
     10 N           1.9375    3.0518   29.3192 N.am    1  UNL1       -0.2748
     11 C           3.0978    2.9634   30.2657 C.2     1  UNL1        0.2668
     12 O           3.8774    4.1967   30.6138 O.2     1  UNL1       -0.2683
     13 C           1.5568    4.3735   28.7208 C.3     1  UNL1        0.0941
     14 C           0.3964    4.4619   27.7744 C.3     1  UNL1        0.0259
     15 C           3.4786    1.6417   30.8641 C.ar    1  UNL1        0.1347
     16 C           3.0570    1.3025   32.2631 C.ar    1  UNL1        0.0238
     17 C           3.4377   -0.0192   32.8615 C.ar    1  UNL1        0.0033
     18 C           4.2401   -1.0017   32.0610 C.ar    1  UNL1        0.0207
     19 C           4.6617   -0.6625   30.6620 C.ar    1  UNL1        0.0990
     20 N           4.2810    0.6592   30.0635 N.ar    1  UNL1       -0.2393
     21 N          -6.3452    4.1074   24.1200 N.am    1  UNL1       -0.1708
     22 C          -5.0246    3.5823   23.6405 C.2     1  UNL1        0.3078
     23 O          -4.8642    3.1455   22.2145 O.2     1  UNL1       -0.2516
     24 H          -6.4505    4.3941   25.0560 H       1  UNL1        0.2545
     25 N          -8.8763    3.7897   23.6275 N.pl3   1  UNL1       -0.1313
     26 C          -7.5056    4.1958   23.1736 C.2     1  UNL1        0.3751
     27 N          -7.2951    4.6904   21.7731 N.pl3   1  UNL1       -0.2906
     28 H          -9.6379    3.8477   23.0063 H       1  UNL1        0.3060
     29 H          -8.0567    4.7484   21.1519 H       1  UNL1        0.2545
     30 H          -6.3954    4.9569   21.4752 H       1  UNL1        0.2545
     31 C           0.0264    2.7160   24.4990 C.3     1  UNL1        0.4183
     32 F           1.3915    2.3712   23.9817 F       1  UNL1       -0.1659
     33 F           0.2982    4.1695   24.2473 F       1  UNL1       -0.1659
     34 F          -0.2453    1.2624   24.7506 F       1  UNL1       -0.1659
@<TRIPOS>BOND
     1    25    26    2
     2    26    27    1
     3    26    21    1
     4    21    22   am
     5    22    23    2
     6    22     1    1
     7     1     2   ar
     8     2     3   ar
     9     3     4   ar
    10     4     7    1
    11     7     8    1
    12     8     9    1
    13     9    10    1
    14    10    11   am
    15    11    12    2
    16    11    15    1
    17    15    16   ar
    18    16    17   ar
    19    17    18   ar
    20    18    19   ar
    21    19    20   ar
    22    10    13    1
    23    13    14    1
    24     4     5   ar
    25     5    31    1
    26    31    32    1
    27    31    33    1
    28    31    34    1
    29     5     6   ar
    30     6     1   ar
    31    14     7    1
    32    20    15   ar
    33    25    28    1
    34    27    29    1
    35    27    30    1
    36    21    24    1
@<TRIPOS>MOLECULE
*****
 34 36 0 0 0
SMALL
GASTEIGER

@<TRIPOS>ATOM
      1 C          -3.3055    3.7154   24.6303 C.ar    1  UNL1        0.0696
      2 C          -3.7177    3.6597   26.0714 C.ar    1  UNL1        0.0057
      3 C          -2.7698    3.1228   27.1025 C.ar    1  UNL1       -0.0041
      4 C          -1.4096    2.6415   26.6924 C.ar    1  UNL1       -0.0185
      5 C          -0.9974    2.6971   25.2513 C.ar    1  UNL1        0.0677
      6 C          -1.9453    3.2340   24.2202 C.ar    1  UNL1        0.0095
      7 C          -0.4617    2.1046   27.7235 C.3     1  UNL1        0.0257
      8 C           0.4404    3.0401   28.4724 C.3     1  UNL1        0.0259
      9 C           1.3884    2.5032   29.5035 C.3     1  UNL1        0.0941
     10 N           1.4342    1.0307   29.7857 N.am    1  UNL1       -0.2748
     11 C           2.3821    0.4938   30.8168 C.2     1  UNL1        0.2668
     12 O           2.4279   -0.9787   31.0989 O.2     1  UNL1       -0.2683
     13 C           0.5321    0.0952   29.0368 C.3     1  UNL1        0.0941
     14 C          -0.4159    0.6321   28.0057 C.3     1  UNL1        0.0259
     15 C           3.2842    1.4293   31.5656 C.ar    1  UNL1        0.1347
     16 C           2.8620    1.9718   32.8989 C.ar    1  UNL1        0.0238
     17 C           3.7641    2.9073   33.6478 C.ar    1  UNL1        0.0033
     18 C           5.0885    3.3005   33.0635 C.ar    1  UNL1        0.0207
     19 C           5.5108    2.7580   31.7304 C.ar    1  UNL1        0.0990
     20 N           4.6087    1.8224   30.9814 N.ar    1  UNL1       -0.2393
     21 N          -5.6066    3.6284   23.4273 N.am    1  UNL1       -0.1708
     22 C          -4.2534    4.2523   23.5992 C.2     1  UNL1        0.3078
     23 O          -3.8482    5.4131   22.7400 O.2     1  UNL1       -0.2516
     24 H          -5.8726    2.8665   23.9912 H       1  UNL1        0.2545
     25 N          -7.9532    4.5410   22.7866 N.pl3   1  UNL1       -0.1313
     26 C          -6.5545    4.1653   22.3962 C.2     1  UNL1        0.3751
     27 N          -6.1037    4.3266   20.9746 N.pl3   1  UNL1       -0.2906
     28 H          -8.5754    4.8934   22.1099 H       1  UNL1        0.3060
     29 H          -6.7258    4.6790   20.2979 H       1  UNL1        0.2545
     30 H          -5.1857    4.0800   20.7183 H       1  UNL1        0.2545
     31 C           0.3629    2.2158   24.8412 C.3     1  UNL1        0.4183
     32 F           1.7231    1.7345   24.4311 F       1  UNL1       -0.1659
     33 F          -0.1727    0.8218   24.7007 F       1  UNL1       -0.1659
     34 F           0.8985    3.6098   24.9817 F       1  UNL1       -0.1659
@<TRIPOS>BOND
     1    25    26    2
     2    26    27    1
     3    26    21    1
     4    21    22   am
     5    22    23    2
     6    22     1    1
     7     1     2   ar
     8     2     3   ar
     9     3     4   ar
    10     4     7    1
    11     7     8    1
    12     8     9    1
    13     9    10    1
    14    10    11   am
    15    11    12    2
    16    11    15    1
    17    15    16   ar
    18    16    17   ar
    19    17    18   ar
    20    18    19   ar
    21    19    20   ar
    22    10    13    1
    23    13    14    1
    24     4     5   ar
    25     5    31    1
    26    31    32    1
    27    31    33    1
    28    31    34    1
    29     5     6   ar
    30     6     1   ar
    31    14     7    1
    32    20    15   ar
    33    25    28    1
    34    27    29    1
    35    27    30    1
    36    21    24    1
@<TRIPOS>MOLECULE
*****
 34 36 0 0 0
SMALL
GASTEIGER

@<TRIPOS>ATOM
      1 C           5.9897   -3.6829   21.9850 C.ar    1  UNL1        0.0696
      2 C           5.0455   -2.9959   22.9265 C.ar    1  UNL1        0.0057
      3 C           5.2194   -3.1501   24.4084 C.ar    1  UNL1       -0.0041
      4 C           6.3375   -3.9913   24.9488 C.ar    1  UNL1       -0.0185
      5 C           7.2818   -4.6782   24.0073 C.ar    1  UNL1        0.0677
      6 C           7.1079   -4.5240   22.5254 C.ar    1  UNL1        0.0095
      7 C           6.5114   -4.1455   26.4307 C.3     1  UNL1        0.0257
      8 C           6.7132   -2.9343   27.2922 C.3     1  UNL1        0.0259
      9 C           6.8871   -3.0885   28.7741 C.3     1  UNL1        0.0941
     10 N           6.8592   -4.4538   29.3944 N.am    1  UNL1       -0.2748
     11 C           7.0332   -4.6080   30.8763 C.2     1  UNL1        0.2668
     12 O           7.0053   -5.9734   31.4967 O.2     1  UNL1       -0.2683
     13 C           6.6575   -5.6650   28.5329 C.3     1  UNL1        0.0941
     14 C           6.4836   -5.5108   27.0510 C.3     1  UNL1        0.0259
     15 C           7.2349   -3.3969   31.7378 C.ar    1  UNL1        0.1347
     16 C           8.6225   -2.9561   32.0991 C.ar    1  UNL1        0.0238
     17 C           8.8243   -1.7449   32.9607 C.ar    1  UNL1        0.0033
     18 C           7.6385   -0.9744   33.4609 C.ar    1  UNL1        0.0207
     19 C           6.2510   -1.4151   33.0997 C.ar    1  UNL1        0.0990
     20 N           6.0492   -2.6263   32.2381 N.ar    1  UNL1       -0.2393
     21 N           5.9086   -2.1700   19.8745 N.am    1  UNL1       -0.1708
     22 C           5.8158   -3.5287   20.5031 C.2     1  UNL1        0.3078
     23 O           5.5491   -4.7332   19.6499 O.2     1  UNL1       -0.2516
     24 H           6.0837   -1.3794   20.4344 H       1  UNL1        0.2545
     25 N           6.9286   -2.0792   17.4867 N.pl3   1  UNL1       -0.1313
     26 C           5.7347   -2.0158   18.3926 C.2     1  UNL1        0.3751
     27 N           4.3669   -1.7981   17.8166 N.pl3   1  UNL1       -0.2906
     28 H           6.8144   -1.9780   16.5141 H       1  UNL1        0.3060
     29 H           4.2527   -1.6969   16.8440 H       1  UNL1        0.2545
     30 H           3.5833   -1.7565   18.4112 H       1  UNL1        0.2545
     31 C           8.4000   -5.5195   24.5477 C.3     1  UNL1        0.4183
     32 F           9.5182   -6.3606   25.0881 F       1  UNL1       -0.1659
     33 F           7.6309   -6.7612   24.2064 F       1  UNL1       -0.1659
     34 F           9.1691   -4.2778   24.8891 F       1  UNL1       -0.1659
@<TRIPOS>BOND
     1    25    26    2
     2    26    27    1
     3    26    21    1
     4    21    22   am
     5    22    23    2
     6    22     1    1
     7     1     2   ar
     8     2     3   ar
     9     3     4   ar
    10     4     7    1
    11     7     8    1
    12     8     9    1
    13     9    10    1
    14    10    11   am
    15    11    12    2
    16    11    15    1
    17    15    16   ar
    18    16    17   ar
    19    17    18   ar
    20    18    19   ar
    21    19    20   ar
    22    10    13    1
    23    13    14    1
    24     4     5   ar
    25     5    31    1
    26    31    32    1
    27    31    33    1
    28    31    34    1
    29     5     6   ar
    30     6     1   ar
    31    14     7    1
    32    20    15   ar
    33    25    28    1
    34    27    29    1
    35    27    30    1
    36    21    24    1
@<TRIPOS>MOLECULE
*****
 34 36 0 0 0
SMALL
GASTEIGER

@<TRIPOS>ATOM
      1 C           7.0150   -3.3878   27.7973 C.ar    1  UNL1        0.0696
      2 C           7.5089   -4.2756   26.6938 C.ar    1  UNL1        0.0057
      3 C           7.1008   -4.0069   25.2756 C.ar    1  UNL1       -0.0041
      4 C           6.1989   -2.8504   24.9609 C.ar    1  UNL1       -0.0185
      5 C           5.7050   -1.9627   26.0645 C.ar    1  UNL1        0.0677
      6 C           6.1131   -2.2314   27.4827 C.ar    1  UNL1        0.0095
      7 C           5.7908   -2.5817   23.5428 C.3     1  UNL1        0.0257
      8 C           6.3327   -1.3840   22.8205 C.3     1  UNL1        0.0259
      9 C           5.9246   -1.1153   21.4023 C.3     1  UNL1        0.0941
     10 N           4.9746   -2.0443   20.7064 N.am    1  UNL1       -0.2748
     11 C           4.5666   -1.7756   19.2882 C.2     1  UNL1        0.2668
     12 O           3.6166   -2.7046   18.5922 O.2     1  UNL1       -0.2683
     13 C           4.4327   -3.2420   21.4286 C.3     1  UNL1        0.0941
     14 C           4.8408   -3.5107   22.8468 C.3     1  UNL1        0.0259
     15 C           5.1085   -0.5778   18.5659 C.ar    1  UNL1        0.1347
     16 C           4.4221    0.7497   18.6948 C.ar    1  UNL1        0.0238
     17 C           4.9640    1.9475   17.9725 C.ar    1  UNL1        0.0033
     18 C           6.1923    1.8177   17.1214 C.ar    1  UNL1        0.0207
     19 C           6.8787    0.4903   16.9925 C.ar    1  UNL1        0.0990
     20 N           6.3368   -0.7076   17.7148 N.ar    1  UNL1       -0.2393
     21 N           6.5739   -4.5336   30.0870 N.am    1  UNL1       -0.1708
     22 C           7.4231   -3.6565   29.2155 C.2     1  UNL1        0.3078
     23 O           8.6804   -3.0482   29.7623 O.2     1  UNL1       -0.2516
     24 H           5.7486   -4.9330   29.7281 H       1  UNL1        0.2545
     25 N           6.6652   -6.1244   32.1391 N.pl3   1  UNL1       -0.1313
     26 C           6.9820   -4.8024   31.5052 C.2     1  UNL1        0.3751
     27 N           7.7068   -3.7490   32.2894 N.pl3   1  UNL1       -0.2906
     28 H           6.9331   -6.3007   33.0699 H       1  UNL1        0.3060
     29 H           7.9747   -3.9253   33.2202 H       1  UNL1        0.2545
     30 H           7.9147   -2.8813   31.8734 H       1  UNL1        0.2545
     31 C           4.8030   -0.8061   25.7499 C.3     1  UNL1        0.4183
     32 F           3.9011    0.3504   25.4354 F       1  UNL1       -0.1659
     33 F           3.6242   -1.7332   25.7214 F       1  UNL1       -0.1659
     34 F           5.9818    0.1210   25.7785 F       1  UNL1       -0.1659
@<TRIPOS>BOND
     1    25    26    2
     2    26    27    1
     3    26    21    1
     4    21    22   am
     5    22    23    2
     6    22     1    1
     7     1     2   ar
     8     2     3   ar
     9     3     4   ar
    10     4     7    1
    11     7     8    1
    12     8     9    1
    13     9    10    1
    14    10    11   am
    15    11    12    2
    16    11    15    1
    17    15    16   ar
    18    16    17   ar
    19    17    18   ar
    20    18    19   ar
    21    19    20   ar
    22    10    13    1
    23    13    14    1
    24     4     5   ar
    25     5    31    1
    26    31    32    1
    27    31    33    1
    28    31    34    1
    29     5     6   ar
    30     6     1   ar
    31    14     7    1
    32    20    15   ar
    33    25    28    1
    34    27    29    1
    35    27    30    1
    36    21    24    1
