@<TRIPOS>MOLECULE
*****
 35 38 0 0 0
SMALL
GASTEIGER

@<TRIPOS>ATOM
      1 C           3.7414   -1.4171   22.5297 C.ar    1  UNL1        0.0006
      2 C           2.7483   -0.2938   22.5732 C.ar    1  UNL1        0.0016
      3 C           2.3695    0.3218   23.8875 C.ar    1  UNL1        0.0196
      4 C           2.9839   -0.1858   25.1583 C.ar    1  UNL1        0.0875
      5 N           2.8063    0.2207   26.5913 N.ar    1  UNL1       -0.2412
      6 C           3.6896   -0.6514   27.4334 C.ar    1  UNL1        0.1110
      7 S           4.4131   -1.5969   26.5208 S.2     1  UNL1       -0.0693
      8 C           3.9769   -1.3091   25.1148 C.ar    1  UNL1        0.0482
      9 C           4.3557   -1.9248   23.8005 C.ar    1  UNL1        0.0080
     10 C           4.7223   -1.7766   18.7011 C.ar    1  UNL1        0.0536
     11 C           4.8778   -3.2642   18.5867 C.ar    1  UNL1        0.0045
     12 C           4.6546   -4.1360   19.7867 C.ar    1  UNL1        0.0001
     13 C           4.2757   -3.5203   21.1011 C.ar    1  UNL1        0.0000
     14 C           4.1202   -2.0328   21.2154 C.ar    1  UNL1        0.0002
     15 C           4.3435   -1.1610   20.0154 C.ar    1  UNL1        0.0045
     16 C           6.4001    0.8193   16.2118 C.3     1  UNL1        0.1152
     17 N           6.1769   -0.0526   17.4118 N.am    1  UNL1       -0.2726
     18 C           7.1847   -0.0723   18.5225 C.3     1  UNL1        0.1152
     19 C           4.9456   -0.9047   17.5011 C.2     1  UNL1        0.2491
     20 O           3.9377   -0.8850   16.3903 O.2     1  UNL1       -0.2699
     21 C           3.8256   -0.5891   28.9259 C.3     1  UNL1        0.2129
     22 C           2.6577   -0.1697   29.7686 C.2     1  UNL1        0.2430
     23 O           2.2864   -0.9652   30.9848 O.2     1  UNL1       -0.2735
     24 N           1.8612    1.0451   29.3950 N.am    1  UNL1       -0.2955
     25 H           2.1050    1.5672   28.5967 H       1  UNL1        0.1499
     26 C           0.6932    1.4646   30.2377 C.3     1  UNL1        0.1757
     27 C           0.9224    2.2051   31.5218 C.2     1  UNL1        0.2425
     28 O           0.2106    3.5004   31.7779 O.2     1  UNL1       -0.2733
     29 N           1.8634    1.6505   32.5497 N.am    1  UNL1       -0.3046
     30 H           2.3306    0.8003   32.3816 H       1  UNL1        0.1494
     31 C           2.0926    2.3910   33.8339 C.3     1  UNL1        0.0717
     32 C           2.4864    2.3906   35.2813 C.3     1  UNL1        0.0213
     33 C           2.0959    3.6742   34.6107 C.3     1  UNL1        0.0213
     34 C           5.1296   -0.9461   29.5758 C.1     1  UNL1        0.0881
     35 N           6.4335   -1.3031   30.2256 N.1     1  UNL1       -0.1950
@<TRIPOS>BOND
     1    16    17    1
     2    17    18    1
     3    17    19   am
     4    19    20    2
     5    19    10    1
     6    10    11   ar
     7    11    12   ar
     8    12    13   ar
     9    13    14   ar
    10    14     1    1
    11     1     2   ar
    12     2     3   ar
    13     3     4   ar
    14     4     5   ar
    15     5     6   ar
    16     6    21    1
    17    21    34    1
    18    34    35    3
    19    21    22    1
    20    22    23    2
    21    22    24   am
    22    24    26    1
    23    26    27    1
    24    27    28    2
    25    27    29   am
    26    29    31    1
    27    31    32    1
    28    32    33    1
    29     6     7   ar
    30     7     8   ar
    31     8     9   ar
    32    14    15   ar
    33    15    10   ar
    34     9     1   ar
    35     8     4   ar
    36    33    31    1
    37    24    25    1
    38    29    30    1
@<TRIPOS>MOLECULE
*****
 35 38 0 0 0
SMALL
GASTEIGER

@<TRIPOS>ATOM
      1 C           5.1858   -3.0492   23.1015 C.ar    1  UNL1        0.0006
      2 C           6.3820   -3.9355   23.2845 C.ar    1  UNL1        0.0016
      3 C           7.0598   -4.0141   24.6203 C.ar    1  UNL1        0.0196
      4 C           6.5414   -3.2064   25.7731 C.ar    1  UNL1        0.0875
      5 N           6.9987   -3.0800   27.1962 N.ar    1  UNL1       -0.2412
      6 C           6.0850   -2.1156   27.8926 C.ar    1  UNL1        0.1110
      7 S           5.0632   -1.6459   26.9000 S.2     1  UNL1       -0.0693
      8 C           5.3452   -2.3201   25.5901 C.ar    1  UNL1        0.0482
      9 C           4.6674   -2.2415   24.2543 C.ar    1  UNL1        0.0080
     10 C           3.0055   -1.6896   20.0770 C.ar    1  UNL1        0.0536
     11 C           3.1522   -2.8132   19.0941 C.ar    1  UNL1        0.0045
     12 C           3.9768   -4.0154   19.4470 C.ar    1  UNL1        0.0001
     13 C           4.6547   -4.0941   20.7829 C.ar    1  UNL1        0.0000
     14 C           4.5079   -2.9705   21.7657 C.ar    1  UNL1        0.0002
     15 C           3.6833   -1.7682   21.4128 C.ar    1  UNL1        0.0045
     16 C           1.9727    1.8495   18.6077 C.3     1  UNL1        0.1152
     17 N           2.7974    0.6472   18.9607 N.am    1  UNL1       -0.2726
     18 C           4.2385    0.5794   18.5501 C.3     1  UNL1        0.1152
     19 C           2.1808   -0.4873   19.7241 C.2     1  UNL1        0.2491
     20 O           0.7397   -0.4195   20.1347 O.2     1  UNL1       -0.2699
     21 C           6.1771   -1.6946   29.3295 C.3     1  UNL1        0.2129
     22 C           5.2975   -0.5952   29.8467 C.2     1  UNL1        0.2430
     23 O           5.5417    0.8228   29.4229 O.2     1  UNL1       -0.2735
     24 N           4.1737   -0.9138   30.7877 N.am    1  UNL1       -0.2955
     25 H           4.0134   -1.8445   31.0658 H       1  UNL1        0.1499
     26 C           3.2940    0.1856   31.3050 C.3     1  UNL1        0.1757
     27 C           1.9304    0.3948   30.7163 C.2     1  UNL1        0.2425
     28 O           1.0016    1.4082   31.3168 O.2     1  UNL1       -0.2733
     29 N           1.4955   -0.4094   29.5272 N.am    1  UNL1       -0.3046
     30 H           2.1050   -1.0745   29.1331 H       1  UNL1        0.1494
     31 C           0.1317   -0.2002   28.9384 C.3     1  UNL1        0.0717
     32 C          -0.7924    0.5708   28.0431 C.3     1  UNL1        0.0213
     33 C          -1.3061   -0.6089   28.8140 C.3     1  UNL1        0.0213
     34 C           7.1487   -2.3731   30.2490 C.1     1  UNL1        0.0881
     35 N           8.1204   -3.0516   31.1685 N.1     1  UNL1       -0.1950
@<TRIPOS>BOND
     1    16    17    1
     2    17    18    1
     3    17    19   am
     4    19    20    2
     5    19    10    1
     6    10    11   ar
     7    11    12   ar
     8    12    13   ar
     9    13    14   ar
    10    14     1    1
    11     1     2   ar
    12     2     3   ar
    13     3     4   ar
    14     4     5   ar
    15     5     6   ar
    16     6    21    1
    17    21    34    1
    18    34    35    3
    19    21    22    1
    20    22    23    2
    21    22    24   am
    22    24    26    1
    23    26    27    1
    24    27    28    2
    25    27    29   am
    26    29    31    1
    27    31    32    1
    28    32    33    1
    29     6     7   ar
    30     7     8   ar
    31     8     9   ar
    32    14    15   ar
    33    15    10   ar
    34     9     1   ar
    35     8     4   ar
    36    33    31    1
    37    24    25    1
    38    29    30    1
@<TRIPOS>MOLECULE
*****
 35 38 0 0 0
SMALL
GASTEIGER

@<TRIPOS>ATOM
      1 C           4.0227   -1.7598   22.4953 C.ar    1  UNL1        0.0006
      2 C           4.7673   -2.2625   23.6964 C.ar    1  UNL1        0.0016
      3 C           4.4593   -1.7085   25.0559 C.ar    1  UNL1        0.0196
      4 C           3.4066   -0.6517   25.2142 C.ar    1  UNL1        0.0875
      5 N           2.8895    0.0774   26.4189 N.ar    1  UNL1       -0.2412
      6 C           1.8253    1.0307   25.9622 C.ar    1  UNL1        0.1110
      7 S           1.6846    0.8908   24.4754 S.2     1  UNL1       -0.0693
      8 C           2.6619   -0.1490   24.0131 C.ar    1  UNL1        0.0482
      9 C           2.9699   -0.7030   22.6537 C.ar    1  UNL1        0.0080
     10 C           4.8509   -1.9384   18.6182 C.ar    1  UNL1        0.0536
     11 C           4.9467   -3.4218   18.4168 C.ar    1  UNL1        0.0045
     12 C           4.7345   -4.3511   19.5749 C.ar    1  UNL1        0.0001
     13 C           4.4264   -3.7971   20.9345 C.ar    1  UNL1        0.0000
     14 C           4.3307   -2.3138   21.1358 C.ar    1  UNL1        0.0002
     15 C           4.5429   -1.3845   19.9777 C.ar    1  UNL1        0.0045
     16 C           6.5148    0.7626   16.2337 C.3     1  UNL1        0.1152
     17 N           6.3025   -0.1667   17.3918 N.am    1  UNL1       -0.2726
     18 C           7.3295   -0.2538   18.4816 C.3     1  UNL1        0.1152
     19 C           5.0632   -1.0091   17.4601 C.2     1  UNL1        0.2491
     20 O           4.0362   -0.9220   16.3703 O.2     1  UNL1       -0.2699
     21 C           1.0396    1.9608   26.8385 C.3     1  UNL1        0.2129
     22 C           1.1495    1.8571   28.3309 C.2     1  UNL1        0.2430
     23 O          -0.0888    1.7226   29.1666 O.2     1  UNL1       -0.2735
     24 N           2.4978    1.8880   28.9875 N.am    1  UNL1       -0.2955
     25 H           3.3105    1.9763   28.4390 H       1  UNL1        0.1499
     26 C           2.6077    1.7844   30.4799 C.3     1  UNL1        0.1757
     27 C           2.8977    0.4594   31.1204 C.2     1  UNL1        0.2425
     28 O           2.0970   -0.7499   30.7377 O.2     1  UNL1       -0.2733
     29 N           3.9884    0.3437   32.1436 N.am    1  UNL1       -0.3046
     30 H           4.5140    1.1374   32.3947 H       1  UNL1        0.1494
     31 C           4.2785   -0.9813   32.7841 C.3     1  UNL1        0.0717
     32 C           4.3230   -1.8522   34.0045 C.3     1  UNL1        0.0213
     33 C           4.7363   -2.4054   32.6729 C.3     1  UNL1        0.0213
     34 C           0.1440    2.9944   26.2224 C.1     1  UNL1        0.0881
     35 N          -0.7515    4.0280   25.6063 N.1     1  UNL1       -0.1950
@<TRIPOS>BOND
     1    16    17    1
     2    17    18    1
     3    17    19   am
     4    19    20    2
     5    19    10    1
     6    10    11   ar
     7    11    12   ar
     8    12    13   ar
     9    13    14   ar
    10    14     1    1
    11     1     2   ar
    12     2     3   ar
    13     3     4   ar
    14     4     5   ar
    15     5     6   ar
    16     6    21    1
    17    21    34    1
    18    34    35    3
    19    21    22    1
    20    22    23    2
    21    22    24   am
    22    24    26    1
    23    26    27    1
    24    27    28    2
    25    27    29   am
    26    29    31    1
    27    31    32    1
    28    32    33    1
    29     6     7   ar
    30     7     8   ar
    31     8     9   ar
    32    14    15   ar
    33    15    10   ar
    34     9     1   ar
    35     8     4   ar
    36    33    31    1
    37    24    25    1
    38    29    30    1
@<TRIPOS>MOLECULE
*****
 35 38 0 0 0
SMALL
GASTEIGER

@<TRIPOS>ATOM
      1 C           0.1314    2.5168   28.1020 C.ar    1  UNL1        0.0006
      2 C           0.0857    1.0487   27.7977 C.ar    1  UNL1        0.0016
      3 C           0.7568    0.0712   28.7164 C.ar    1  UNL1        0.0196
      4 C           1.4736    0.5618   29.9393 C.ar    1  UNL1        0.0875
      5 N           2.2216   -0.1594   31.0213 N.ar    1  UNL1       -0.2412
      6 C           2.7295    0.8631   31.9942 C.ar    1  UNL1        0.1110
      7 S           2.2954    2.2161   31.5136 S.2     1  UNL1       -0.0693
      8 C           1.5192    2.0299   30.2436 C.ar    1  UNL1        0.0482
      9 C           0.8481    3.0074   29.3249 C.ar    1  UNL1        0.0080
     10 C          -2.5004    4.1051   25.5918 C.ar    1  UNL1        0.0536
     11 C          -1.8821    5.4495   25.3459 C.ar    1  UNL1        0.0045
     12 C          -0.5926    5.8163   26.0187 C.ar    1  UNL1        0.0001
     13 C           0.0786    4.8387   26.9374 C.ar    1  UNL1        0.0000
     14 C          -0.5398    3.4944   27.1833 C.ar    1  UNL1        0.0002
     15 C          -1.8293    3.1276   26.5105 C.ar    1  UNL1        0.0045
     16 C          -5.1161    3.1552   22.7623 C.3     1  UNL1        0.1152
     17 N          -3.8266    3.5220   23.4351 N.am    1  UNL1       -0.2726
     18 C          -2.5737    3.6723   22.6241 C.3     1  UNL1        0.1152
     19 C          -3.7899    3.7384   24.9190 C.2     1  UNL1        0.2491
     20 O          -5.0428    3.5880   25.7300 O.2     1  UNL1       -0.2699
     21 C           3.5308    0.5820   33.2307 C.3     1  UNL1        0.2129
     22 C           3.3887    1.4665   34.4338 C.2     1  UNL1        0.2430
     23 O           2.0899    2.1682   34.6996 O.2     1  UNL1       -0.2735
     24 N           4.5455    1.6494   35.3710 N.am    1  UNL1       -0.2955
     25 H           5.3980    1.1889   35.1965 H       1  UNL1        0.1499
     26 C           4.4035    2.5340   36.5741 C.3     1  UNL1        0.1757
     27 C           3.6787    2.0365   37.7894 C.2     1  UNL1        0.2425
     28 O           4.3808    1.9883   39.1140 O.2     1  UNL1       -0.2733
     29 N           2.2517    1.5873   37.6801 N.am    1  UNL1       -0.3046
     30 H           1.7909    1.6190   36.8106 H       1  UNL1        0.1494
     31 C           1.5268    1.0898   38.8954 C.3     1  UNL1        0.0717
     32 C           1.0899   -0.0451   39.7736 C.3     1  UNL1        0.0213
     33 C           0.7082    1.3630   40.1223 C.3     1  UNL1        0.0213
     34 C           4.4742   -0.5838   33.2642 C.1     1  UNL1        0.0881
     35 N           5.4176   -1.7495   33.2976 N.1     1  UNL1       -0.1950
@<TRIPOS>BOND
     1    16    17    1
     2    17    18    1
     3    17    19   am
     4    19    20    2
     5    19    10    1
     6    10    11   ar
     7    11    12   ar
     8    12    13   ar
     9    13    14   ar
    10    14     1    1
    11     1     2   ar
    12     2     3   ar
    13     3     4   ar
    14     4     5   ar
    15     5     6   ar
    16     6    21    1
    17    21    34    1
    18    34    35    3
    19    21    22    1
    20    22    23    2
    21    22    24   am
    22    24    26    1
    23    26    27    1
    24    27    28    2
    25    27    29   am
    26    29    31    1
    27    31    32    1
    28    32    33    1
    29     6     7   ar
    30     7     8   ar
    31     8     9   ar
    32    14    15   ar
    33    15    10   ar
    34     9     1   ar
    35     8     4   ar
    36    33    31    1
    37    24    25    1
    38    29    30    1
@<TRIPOS>MOLECULE
*****
 35 38 0 0 0
SMALL
GASTEIGER

@<TRIPOS>ATOM
      1 C           2.9474   -0.5939   22.0599 C.ar    1  UNL1        0.0006
      2 C           2.7742   -0.1565   23.4841 C.ar    1  UNL1        0.0016
      3 C           3.5495   -0.8325   24.5759 C.ar    1  UNL1        0.0196
      4 C           4.4980   -1.9459   24.2433 C.ar    1  UNL1        0.0875
      5 N           5.3911   -2.7933   25.1004 N.ar    1  UNL1       -0.2412
      6 C           6.1162   -3.7544   24.2057 C.ar    1  UNL1        0.1110
      7 S           5.6713   -3.5011   22.7958 S.2     1  UNL1       -0.0693
      8 C           4.6712   -2.3833   22.8190 C.ar    1  UNL1        0.0482
      9 C           3.8959   -1.7073   21.7273 C.ar    1  UNL1        0.0080
     10 C           0.3814    1.8082   20.2172 C.ar    1  UNL1        0.0536
     11 C           0.6215    1.4341   18.7846 C.ar    1  UNL1        0.0045
     12 C           1.6368    0.3840   18.4437 C.ar    1  UNL1        0.0001
     13 C           2.4122   -0.2920   19.5355 C.ar    1  UNL1        0.0000
     14 C           2.1721    0.0821   20.9681 C.ar    1  UNL1        0.0002
     15 C           1.1567    1.1322   21.3089 C.ar    1  UNL1        0.0045
     16 C          -1.2373    5.3478   20.9927 C.3     1  UNL1        0.1152
     17 N          -0.2220    4.2977   20.6518 N.am    1  UNL1       -0.2726
     18 C           1.2054    4.6868   20.4047 C.3     1  UNL1        0.1152
     19 C          -0.6340    2.8584   20.5581 C.2     1  UNL1        0.2491
     20 O          -2.0614    2.4693   20.8052 O.2     1  UNL1       -0.2699
     21 C           7.1115   -4.7876   24.6440 C.3     1  UNL1        0.2129
     22 C           7.3886   -4.9901   26.1042 C.2     1  UNL1        0.2430
     23 O           8.8016   -4.9831   26.6074 O.2     1  UNL1       -0.2735
     24 N           6.2527   -5.1996   27.0611 N.am    1  UNL1       -0.2955
     25 H           5.3253   -5.2042   26.7308 H       1  UNL1        0.1499
     26 C           6.5298   -5.4021   28.5214 C.3     1  UNL1        0.1757
     27 C           6.5631   -4.2238   29.4489 C.2     1  UNL1        0.2425
     28 O           6.6575   -2.8339   28.8927 O.2     1  UNL1       -0.2733
     29 N           6.5021   -4.4353   30.9326 N.am    1  UNL1       -0.3046
     30 H           6.4401   -5.3475   31.2977 H       1  UNL1        0.1494
     31 C           6.5354   -3.2569   31.8602 C.3     1  UNL1        0.0717
     32 C           5.8292   -2.3151   32.7899 C.3     1  UNL1        0.0213
     33 C           7.2993   -2.1578   32.5372 C.3     1  UNL1        0.0213
     34 C           7.8296   -5.6182   23.6221 C.1     1  UNL1        0.0881
     35 N           8.5477   -6.4489   22.6001 N.1     1  UNL1       -0.1950
@<TRIPOS>BOND
     1    16    17    1
     2    17    18    1
     3    17    19   am
     4    19    20    2
     5    19    10    1
     6    10    11   ar
     7    11    12   ar
     8    12    13   ar
     9    13    14   ar
    10    14     1    1
    11     1     2   ar
    12     2     3   ar
    13     3     4   ar
    14     4     5   ar
    15     5     6   ar
    16     6    21    1
    17    21    34    1
    18    34    35    3
    19    21    22    1
    20    22    23    2
    21    22    24   am
    22    24    26    1
    23    26    27    1
    24    27    28    2
    25    27    29   am
    26    29    31    1
    27    31    32    1
    28    32    33    1
    29     6     7   ar
    30     7     8   ar
    31     8     9   ar
    32    14    15   ar
    33    15    10   ar
    34     9     1   ar
    35     8     4   ar
    36    33    31    1
    37    24    25    1
    38    29    30    1
@<TRIPOS>MOLECULE
*****
 35 38 0 0 0
SMALL
GASTEIGER

@<TRIPOS>ATOM
      1 C           2.6995   -0.9622   20.7214 C.ar    1  UNL1        0.0006
      2 C           2.5258   -0.5298   22.1471 C.ar    1  UNL1        0.0016
      3 C           1.6463    0.6405   22.4740 C.ar    1  UNL1        0.0196
      4 C           0.9404    1.3782   21.3752 C.ar    1  UNL1        0.0875
      5 N           0.0161    2.5596   21.3920 N.ar    1  UNL1       -0.2412
      6 C          -0.3814    2.8573   19.9766 C.ar    1  UNL1        0.1110
      7 S           0.2972    1.8599   19.0851 S.2     1  UNL1       -0.0693
      8 C           1.1141    0.9458   19.9495 C.ar    1  UNL1        0.0482
      9 C           1.9937   -0.2244   19.6226 C.ar    1  UNL1        0.0080
     10 C           5.6839   -3.5728   20.8896 C.ar    1  UNL1        0.0536
     11 C           5.3383   -4.4729   19.7405 C.ar    1  UNL1        0.0045
     12 C           4.1131   -4.2028   18.9183 C.ar    1  UNL1        0.0001
     13 C           3.2335   -3.0325   19.2453 C.ar    1  UNL1        0.0000
     14 C           3.5791   -2.1324   20.3944 C.ar    1  UNL1        0.0002
     15 C           4.8043   -2.4026   21.2165 C.ar    1  UNL1        0.0045
     16 C           9.4504   -3.5117   22.1386 C.3     1  UNL1        0.1152
     17 N           8.2252   -3.2415   21.3165 N.am    1  UNL1       -0.2726
     18 C           8.3161   -2.3700   20.0991 C.3     1  UNL1        0.1152
     19 C           6.9091   -3.8430   21.7118 C.2     1  UNL1        0.2491
     20 O           6.8182   -4.7145   22.9292 O.2     1  UNL1       -0.2699
     21 C          -1.2967    3.9589   19.5309 C.3     1  UNL1        0.2129
     22 C          -2.7216    3.9855   19.9988 C.2     1  UNL1        0.2430
     23 O          -3.5832    5.1792   19.7116 O.2     1  UNL1       -0.2735
     24 N          -3.2849    2.8182   20.7540 N.am    1  UNL1       -0.2955
     25 H          -2.7194    2.0347   20.9425 H       1  UNL1        0.1499
     26 C          -4.7098    2.8448   21.2219 C.3     1  UNL1        0.1757
     27 C          -5.0394    3.3544   22.5936 C.2     1  UNL1        0.2425
     28 O          -6.4249    3.8405   22.9003 O.2     1  UNL1       -0.2733
     29 N          -3.9835    3.3780   23.6587 N.am    1  UNL1       -0.3046
     30 H          -3.0741    3.0589   23.4574 H       1  UNL1        0.1494
     31 C          -4.3130    3.8876   25.0305 C.3     1  UNL1        0.0717
     32 C          -4.0505    3.9061   26.5072 C.3     1  UNL1        0.0213
     33 C          -5.1463    4.7519   25.9296 C.3     1  UNL1        0.0213
     34 C          -0.7872    5.0339   18.6173 C.1     1  UNL1        0.0881
     35 N          -0.2776    6.1090   17.7038 N.1     1  UNL1       -0.1950
@<TRIPOS>BOND
     1    16    17    1
     2    17    18    1
     3    17    19   am
     4    19    20    2
     5    19    10    1
     6    10    11   ar
     7    11    12   ar
     8    12    13   ar
     9    13    14   ar
    10    14     1    1
    11     1     2   ar
    12     2     3   ar
    13     3     4   ar
    14     4     5   ar
    15     5     6   ar
    16     6    21    1
    17    21    34    1
    18    34    35    3
    19    21    22    1
    20    22    23    2
    21    22    24   am
    22    24    26    1
    23    26    27    1
    24    27    28    2
    25    27    29   am
    26    29    31    1
    27    31    32    1
    28    32    33    1
    29     6     7   ar
    30     7     8   ar
    31     8     9   ar
    32    14    15   ar
    33    15    10   ar
    34     9     1   ar
    35     8     4   ar
    36    33    31    1
    37    24    25    1
    38    29    30    1
@<TRIPOS>MOLECULE
*****
 35 38 0 0 0
SMALL
GASTEIGER

@<TRIPOS>ATOM
      1 C           4.6376   -2.3920   23.4480 C.ar    1  UNL1        0.0006
      2 C           5.8368   -3.0717   24.0395 C.ar    1  UNL1        0.0016
      3 C           6.1678   -2.8807   25.4899 C.ar    1  UNL1        0.0196
      4 C           5.2995   -2.0100   26.3490 C.ar    1  UNL1        0.0875
      5 N           5.3751   -1.6371   27.8000 N.ar    1  UNL1       -0.2412
      6 C           4.2226   -0.7269   28.1053 C.ar    1  UNL1        0.1110
      7 S           3.4348   -0.5373   26.8430 S.2     1  UNL1       -0.0693
      8 C           4.1003   -1.3303   25.7576 C.ar    1  UNL1        0.0482
      9 C           3.7694   -1.5213   24.3071 C.ar    1  UNL1        0.0080
     10 C           3.4324   -1.6289   19.7446 C.ar    1  UNL1        0.0536
     11 C           3.6446   -2.9649   19.0964 C.ar    1  UNL1        0.0045
     12 C           4.1878   -4.1099   19.8988 C.ar    1  UNL1        0.0001
     13 C           4.5188   -3.9190   21.3494 C.ar    1  UNL1        0.0000
     14 C           4.3066   -2.5830   21.9975 C.ar    1  UNL1        0.0002
     15 C           3.7634   -1.4379   21.1951 C.ar    1  UNL1        0.0045
     16 C           1.0055    1.2439   18.4768 C.3     1  UNL1        0.1152
     17 N           1.5486    0.0988   19.2792 N.am    1  UNL1       -0.2726
     18 C           0.7513   -0.4636   20.4185 C.3     1  UNL1        0.1152
     19 C           2.8892   -0.4838   18.9423 C.2     1  UNL1        0.2491
     20 O           3.6865    0.0786   17.8030 O.2     1  UNL1       -0.2699
     21 C           3.9124   -0.1139   29.4387 C.3     1  UNL1        0.2129
     22 C           4.2320   -0.8603   30.6999 C.2     1  UNL1        0.2430
     23 O           3.1574   -1.1107   31.7161 O.2     1  UNL1       -0.2735
     24 N           5.6262   -1.3564   30.9450 N.am    1  UNL1       -0.2955
     25 H           6.3314   -1.1921   30.2780 H       1  UNL1        0.1499
     26 C           5.9458   -2.1029   32.2062 C.3     1  UNL1        0.1757
     27 C           6.0744   -1.3621   33.5041 C.2     1  UNL1        0.2425
     28 O           7.4126   -0.8464   33.9439 O.2     1  UNL1       -0.2733
     29 N           4.8649   -1.1369   34.3622 N.am    1  UNL1       -0.3046
     30 H           3.9866   -1.4754   34.0735 H       1  UNL1        0.1494
     31 C           4.9935   -0.3960   35.6601 C.3     1  UNL1        0.0717
     32 C           4.3832    0.4452   36.7417 C.3     1  UNL1        0.0213
     33 C           5.8265    0.0460   36.8266 C.3     1  UNL1        0.0213
     34 C           3.2826    1.2456   29.5109 C.1     1  UNL1        0.0881
     35 N           2.6528    2.6050   29.5831 N.1     1  UNL1       -0.1950
@<TRIPOS>BOND
     1    16    17    1
     2    17    18    1
     3    17    19   am
     4    19    20    2
     5    19    10    1
     6    10    11   ar
     7    11    12   ar
     8    12    13   ar
     9    13    14   ar
    10    14     1    1
    11     1     2   ar
    12     2     3   ar
    13     3     4   ar
    14     4     5   ar
    15     5     6   ar
    16     6    21    1
    17    21    34    1
    18    34    35    3
    19    21    22    1
    20    22    23    2
    21    22    24   am
    22    24    26    1
    23    26    27    1
    24    27    28    2
    25    27    29   am
    26    29    31    1
    27    31    32    1
    28    32    33    1
    29     6     7   ar
    30     7     8   ar
    31     8     9   ar
    32    14    15   ar
    33    15    10   ar
    34     9     1   ar
    35     8     4   ar
    36    33    31    1
    37    24    25    1
    38    29    30    1
@<TRIPOS>MOLECULE
*****
 35 38 0 0 0
SMALL
GASTEIGER

@<TRIPOS>ATOM
      1 C           2.0211    0.4326   20.5019 C.ar    1  UNL1        0.0006
      2 C           1.1414    1.4908   19.9051 C.ar    1  UNL1        0.0016
      3 C           0.2349    2.2975   20.7868 C.ar    1  UNL1        0.0196
      4 C           0.2082    2.0460   22.2653 C.ar    1  UNL1        0.0875
      5 N          -0.5761    2.6780   23.3769 N.ar    1  UNL1       -0.2412
      6 C          -0.1811    2.0103   24.6607 C.ar    1  UNL1        0.1110
      7 S           0.8474    0.9657   24.3425 S.2     1  UNL1       -0.0693
      8 C           1.0879    0.9878   22.8621 C.ar    1  UNL1        0.0482
      9 C           1.9944    0.1811   21.9804 C.ar    1  UNL1        0.0080
     10 C           4.6424   -2.3027   19.3200 C.ar    1  UNL1        0.0536
     11 C           4.7407   -1.9877   17.8567 C.ar    1  UNL1        0.0045
     12 C           3.9324   -0.8659   17.2752 C.ar    1  UNL1        0.0001
     13 C           3.0259   -0.0591   18.1569 C.ar    1  UNL1        0.0000
     14 C           2.9277   -0.3741   19.6201 C.ar    1  UNL1        0.0002
     15 C           3.7359   -1.4960   20.2017 C.ar    1  UNL1        0.0045
     16 C           7.6531   -4.2903   20.9739 C.3     1  UNL1        0.1152
     17 N           6.8448   -3.1685   20.3923 N.am    1  UNL1       -0.2726
     18 C           7.4307   -1.7907   20.3015 C.3     1  UNL1        0.1152
     19 C           5.4507   -3.4246   19.9016 C.2     1  UNL1        0.2491
     20 O           4.8648   -4.8024   19.9924 O.2     1  UNL1       -0.2699
     21 C          -0.7199    2.3308   26.0235 C.3     1  UNL1        0.2129
     22 C          -0.0708    1.7467   27.2430 C.2     1  UNL1        0.2430
     23 O           1.0382    2.4872   27.9300 O.2     1  UNL1       -0.2735
     24 N          -0.5307    0.4221   27.7757 N.am    1  UNL1       -0.2955
     25 H          -1.2585   -0.0639   27.3249 H       1  UNL1        0.1499
     26 C           0.1184   -0.1621   28.9954 C.3     1  UNL1        0.1757
     27 C           1.5766   -0.5129   28.9737 C.2     1  UNL1        0.2425
     28 O           2.2901   -0.8332   30.2537 O.2     1  UNL1       -0.2733
     29 N           2.3214   -0.5434   27.6721 N.am    1  UNL1       -0.3046
     30 H           1.8531   -0.3331   26.8320 H       1  UNL1        0.1494
     31 C           3.7797   -0.8941   27.6504 C.3     1  UNL1        0.0717
     32 C           4.8677   -1.9180   27.5158 C.3     1  UNL1        0.0213
     33 C           5.2175   -0.4779   27.7474 C.3     1  UNL1        0.0213
     34 C          -1.9078    3.2355   26.1665 C.1     1  UNL1        0.0881
     35 N          -3.0956    4.1402   26.3096 N.1     1  UNL1       -0.1950
@<TRIPOS>BOND
     1    16    17    1
     2    17    18    1
     3    17    19   am
     4    19    20    2
     5    19    10    1
     6    10    11   ar
     7    11    12   ar
     8    12    13   ar
     9    13    14   ar
    10    14     1    1
    11     1     2   ar
    12     2     3   ar
    13     3     4   ar
    14     4     5   ar
    15     5     6   ar
    16     6    21    1
    17    21    34    1
    18    34    35    3
    19    21    22    1
    20    22    23    2
    21    22    24   am
    22    24    26    1
    23    26    27    1
    24    27    28    2
    25    27    29   am
    26    29    31    1
    27    31    32    1
    28    32    33    1
    29     6     7   ar
    30     7     8   ar
    31     8     9   ar
    32    14    15   ar
    33    15    10   ar
    34     9     1   ar
    35     8     4   ar
    36    33    31    1
    37    24    25    1
    38    29    30    1
@<TRIPOS>MOLECULE
*****
 35 38 0 0 0
SMALL
GASTEIGER

@<TRIPOS>ATOM
      1 C           0.4270    1.9274   27.2638 C.ar    1  UNL1        0.0006
      2 C           1.4116    0.8623   26.8817 C.ar    1  UNL1        0.0016
      3 C           2.3184    0.2717   27.9204 C.ar    1  UNL1        0.0196
      4 C           2.2404    0.7461   29.3413 C.ar    1  UNL1        0.0875
      5 N           2.9999    0.3532   30.5737 N.ar    1  UNL1       -0.2412
      6 C           2.4845    1.1754   31.7176 C.ar    1  UNL1        0.1110
      7 S           1.4066    2.0765   31.1920 S.2     1  UNL1       -0.0693
      8 C           1.2558    1.8112   29.7234 C.ar    1  UNL1        0.0482
      9 C           0.3491    2.4018   28.6847 C.ar    1  UNL1        0.0080
     10 C          -2.7479    3.6052   25.5741 C.ar    1  UNL1        0.0536
     11 C          -2.2934    3.6993   24.1477 C.ar    1  UNL1        0.0045
     12 C          -0.9321    3.2028   23.7600 C.ar    1  UNL1        0.0001
     13 C          -0.0253    2.6122   24.7987 C.ar    1  UNL1        0.0000
     14 C          -0.4798    2.5180   26.2251 C.ar    1  UNL1        0.0002
     15 C          -1.8411    3.0145   26.6128 C.ar    1  UNL1        0.0045
     16 C          -5.6062    5.8118   27.2206 C.3     1  UNL1        0.1152
     17 N          -4.2449    5.3153   26.8329 N.am    1  UNL1       -0.2726
     18 C          -3.0193    6.0324   27.3163 C.3     1  UNL1        0.1152
     19 C          -4.1092    4.1017   25.9618 C.2     1  UNL1        0.2491
     20 O          -5.3348    3.3846   25.4784 O.2     1  UNL1       -0.2699
     21 C           2.9631    1.1084   33.1377 C.3     1  UNL1        0.2129
     22 C           3.9358    0.0444   33.5519 C.2     1  UNL1        0.2430
     23 O           4.8955    0.3018   34.6756 O.2     1  UNL1       -0.2735
     24 N           3.9489   -1.2771   32.8423 N.am    1  UNL1       -0.2955
     25 H           3.3190   -1.4461   32.1048 H       1  UNL1        0.1499
     26 C           4.9217   -2.3412   33.2565 C.3     1  UNL1        0.1757
     27 C           5.7666   -3.0277   32.2246 C.2     1  UNL1        0.2425
     28 O           6.1340   -2.3117   30.9588 O.2     1  UNL1       -0.2733
     29 N           6.2441   -4.4303   32.4586 N.am    1  UNL1       -0.3046
     30 H           6.0029   -4.9002   33.2894 H       1  UNL1        0.1494
     31 C           7.0890   -5.1169   31.4267 C.3     1  UNL1        0.0717
     32 C           8.1557   -6.1103   31.0727 C.3     1  UNL1        0.0213
     33 C           7.4857   -5.3126   29.9935 C.3     1  UNL1        0.0213
     34 C           2.4688    2.1054   34.1435 C.1     1  UNL1        0.0881
     35 N           1.9745    3.1023   35.1493 N.1     1  UNL1       -0.1950
@<TRIPOS>BOND
     1    16    17    1
     2    17    18    1
     3    17    19   am
     4    19    20    2
     5    19    10    1
     6    10    11   ar
     7    11    12   ar
     8    12    13   ar
     9    13    14   ar
    10    14     1    1
    11     1     2   ar
    12     2     3   ar
    13     3     4   ar
    14     4     5   ar
    15     5     6   ar
    16     6    21    1
    17    21    34    1
    18    34    35    3
    19    21    22    1
    20    22    23    2
    21    22    24   am
    22    24    26    1
    23    26    27    1
    24    27    28    2
    25    27    29   am
    26    29    31    1
    27    31    32    1
    28    32    33    1
    29     6     7   ar
    30     7     8   ar
    31     8     9   ar
    32    14    15   ar
    33    15    10   ar
    34     9     1   ar
    35     8     4   ar
    36    33    31    1
    37    24    25    1
    38    29    30    1
