@<TRIPOS>MOLECULE
*****
 22 24 0 0 0
SMALL
GASTEIGER

@<TRIPOS>ATOM
      1 C          -9.9921  -18.8224   20.8570 C.ar    1  UNL1        0.0000
      2 C         -10.4120  -19.5177   19.5960 C.ar    1  UNL1       -0.0000
      3 C          -9.3762  -20.0923   18.6758 C.ar    1  UNL1        0.0000
      4 C          -7.9203  -19.9716   19.0166 C.ar    1  UNL1        0.0015
      5 C          -7.5004  -19.2763   20.2776 C.ar    1  UNL1        0.0172
      6 C          -8.5364  -18.7016   21.1979 C.ar    1  UNL1        0.0015
      7 C         -11.6029  -16.8895   21.5045 C.ar    1  UNL1        0.0714
      8 C         -12.6388  -16.3149   22.4247 C.ar    1  UNL1        0.0039
      9 C         -13.0998  -17.0987   23.6177 C.ar    1  UNL1       -0.0001
     10 C         -12.5249  -18.4570   23.8905 C.ar    1  UNL1       -0.0000
     11 C         -11.4890  -19.0315   22.9703 C.ar    1  UNL1       -0.0001
     12 C         -11.0280  -18.2478   21.7773 C.ar    1  UNL1        0.0039
     13 F         -10.6810  -15.3220   19.1185 F       1  UNL1       -0.1659
     14 C         -11.1419  -16.1057   20.3115 C.3     1  UNL1        0.4186
     15 F         -12.2362  -16.7166   19.4873 F       1  UNL1       -0.1659
     16 F         -10.0477  -15.4948   21.1357 F       1  UNL1       -0.1659
     17 C          -6.0447  -19.1555   20.6185 C.ar    1  UNL1        0.0772
     18 C          -5.4132  -19.5178   21.9300 C.ar    1  UNL1        0.1175
     19 N          -3.9431  -19.2375   21.8297 N.ar    1  UNL1       -0.2225
     20 C          -3.6660  -18.7019   20.4562 C.ar    1  UNL1        0.1750
     21 N          -4.9648  -18.6513   19.7076 N.ar    1  UNL1       -0.3349
     22 H          -5.0871  -18.3415   18.7812 H       1  UNL1        0.1675
@<TRIPOS>BOND
     1    13    14    1
     2    14    15    1
     3    14    16    1
     4    14     7    1
     5     7     8   ar
     6     8     9   ar
     7     9    10   ar
     8    10    11   ar
     9    11    12   ar
    10    12     1    1
    11     1     2   ar
    12     2     3   ar
    13     3     4   ar
    14     4     5   ar
    15     5    17    1
    16    17    18   ar
    17    18    19   ar
    18    19    20   ar
    19    20    21   ar
    20     5     6   ar
    21    12     7   ar
    22     6     1   ar
    23    21    17   ar
    24    21    22    1
@<TRIPOS>MOLECULE
*****
 22 24 0 0 0
SMALL
GASTEIGER

@<TRIPOS>ATOM
      1 C          -9.4269  -18.6382   21.0967 C.ar    1  UNL1        0.0000
      2 C          -9.5502  -19.3424   19.7780 C.ar    1  UNL1       -0.0000
      3 C          -8.3253  -19.8715   19.0928 C.ar    1  UNL1        0.0000
      4 C          -6.9769  -19.6964   19.7263 C.ar    1  UNL1        0.0015
      5 C          -6.8535  -18.9923   21.0450 C.ar    1  UNL1        0.0172
      6 C          -8.0786  -18.4631   21.7302 C.ar    1  UNL1        0.0015
      7 C         -11.1377  -18.7483   23.0489 C.ar    1  UNL1        0.0714
      8 C         -12.3627  -18.2191   23.7340 C.ar    1  UNL1        0.0039
      9 C         -13.1018  -17.0508   23.1520 C.ar    1  UNL1       -0.0001
     10 C         -12.6161  -16.4116   21.8850 C.ar    1  UNL1       -0.0000
     11 C         -11.3911  -16.9408   21.1999 C.ar    1  UNL1       -0.0001
     12 C         -10.6519  -18.1091   21.7818 C.ar    1  UNL1        0.0039
     13 F          -9.6593  -21.0849   24.2127 F       1  UNL1       -0.1659
     14 C         -10.3985  -19.9166   23.6308 C.3     1  UNL1        0.4186
     15 F          -9.7482  -19.0071   24.6308 F       1  UNL1       -0.1659
     16 F         -11.0488  -20.8261   22.6308 F       1  UNL1       -0.1659
     17 C          -5.5052  -18.8172   21.6785 C.ar    1  UNL1        0.0772
     18 C          -4.2737  -19.6142   21.3652 C.ar    1  UNL1        0.1175
     19 N          -3.1590  -19.1040   22.2296 N.ar    1  UNL1       -0.2225
     20 C          -3.7017  -17.9916   23.0772 C.ar    1  UNL1        0.1750
     21 N          -5.1517  -17.8144   22.7365 N.ar    1  UNL1       -0.3349
     22 H          -5.7639  -17.1556   23.1371 H       1  UNL1        0.1675
@<TRIPOS>BOND
     1    13    14    1
     2    14    15    1
     3    14    16    1
     4    14     7    1
     5     7     8   ar
     6     8     9   ar
     7     9    10   ar
     8    10    11   ar
     9    11    12   ar
    10    12     1    1
    11     1     2   ar
    12     2     3   ar
    13     3     4   ar
    14     4     5   ar
    15     5    17    1
    16    17    18   ar
    17    18    19   ar
    18    19    20   ar
    19    20    21   ar
    20     5     6   ar
    21    12     7   ar
    22     6     1   ar
    23    21    17   ar
    24    21    22    1
@<TRIPOS>MOLECULE
*****
 22 24 0 0 0
SMALL
GASTEIGER

@<TRIPOS>ATOM
      1 C          -7.6109  -19.2665   22.1942 C.ar    1  UNL1        0.0000
      2 C          -8.1604  -20.2685   23.1659 C.ar    1  UNL1       -0.0000
      3 C          -9.6371  -20.3344   23.4207 C.ar    1  UNL1        0.0000
      4 C         -10.5644  -19.3984   22.7038 C.ar    1  UNL1        0.0015
      5 C         -10.0150  -18.3964   21.7321 C.ar    1  UNL1        0.0172
      6 C          -8.5382  -18.3305   21.4773 C.ar    1  UNL1        0.0015
      7 C          -5.5343  -19.9714   20.8011 C.ar    1  UNL1        0.0714
      8 C          -4.0576  -19.9055   20.5465 C.ar    1  UNL1        0.0039
      9 C          -3.1807  -19.0687   21.4301 C.ar    1  UNL1       -0.0001
     10 C          -3.7805  -18.2978   22.5685 C.ar    1  UNL1       -0.0000
     11 C          -5.2573  -18.3637   22.8231 C.ar    1  UNL1       -0.0001
     12 C          -6.1341  -19.2006   21.9395 C.ar    1  UNL1        0.0039
     13 F          -7.2880  -21.6451   19.0338 F       1  UNL1       -0.1659
     14 C          -6.4111  -20.8083   19.9175 C.3     1  UNL1        0.4186
     15 F          -5.9699  -22.0419   20.6479 F       1  UNL1       -0.1659
     16 F          -6.8524  -19.5746   19.1871 F       1  UNL1       -0.1659
     17 C         -10.9422  -17.4603   21.0152 C.ar    1  UNL1        0.0772
     18 C         -12.4177  -17.3287   21.2508 C.ar    1  UNL1        0.1175
     19 N         -12.9442  -16.2786   20.3180 N.ar    1  UNL1       -0.2225
     20 C         -11.7940  -15.7613   19.5059 C.ar    1  UNL1        0.1750
     21 N         -10.5568  -16.4916   19.9368 N.ar    1  UNL1       -0.3349
     22 H          -9.6508  -16.3586   19.5752 H       1  UNL1        0.1675
@<TRIPOS>BOND
     1    13    14    1
     2    14    15    1
     3    14    16    1
     4    14     7    1
     5     7     8   ar
     6     8     9   ar
     7     9    10   ar
     8    10    11   ar
     9    11    12   ar
    10    12     1    1
    11     1     2   ar
    12     2     3   ar
    13     3     4   ar
    14     4     5   ar
    15     5    17    1
    16    17    18   ar
    17    18    19   ar
    18    19    20   ar
    19    20    21   ar
    20     5     6   ar
    21    12     7   ar
    22     6     1   ar
    23    21    17   ar
    24    21    22    1
@<TRIPOS>MOLECULE
*****
 22 24 0 0 0
SMALL
GASTEIGER

@<TRIPOS>ATOM
      1 C         -12.3574   -4.4394   18.6547 C.ar    1  UNL1        0.0000
      2 C         -12.8294   -3.5268   19.7476 C.ar    1  UNL1       -0.0000
      3 C         -13.9614   -3.9459   20.6380 C.ar    1  UNL1        0.0000
      4 C         -14.6214   -5.2776   20.4356 C.ar    1  UNL1        0.0015
      5 C         -14.1495   -6.1902   19.3427 C.ar    1  UNL1        0.0172
      6 C         -13.0175   -5.7710   18.4522 C.ar    1  UNL1        0.0015
      7 C          -9.9634   -4.8299   17.7240 C.ar    1  UNL1        0.0714
      8 C          -8.8315   -4.4107   16.8335 C.ar    1  UNL1        0.0039
      9 C          -8.9615   -3.1819   15.9833 C.ar    1  UNL1       -0.0001
     10 C         -10.2236   -2.3722   16.0234 C.ar    1  UNL1       -0.0000
     11 C         -11.3555   -2.7913   16.9139 C.ar    1  UNL1       -0.0001
     12 C         -11.2254   -4.0202   17.7642 C.ar    1  UNL1        0.0039
     13 F          -9.7032   -7.2876   19.4246 F       1  UNL1       -0.1659
     14 C          -9.8333   -6.0588   18.5743 C.3     1  UNL1        0.4186
     15 F         -10.2479   -6.9084   17.4097 F       1  UNL1       -0.1659
     16 F          -9.4187   -5.2091   19.7388 F       1  UNL1       -0.1659
     17 C         -14.8095   -7.5218   19.1402 C.ar    1  UNL1        0.0772
     18 C         -14.2878   -8.6449   18.2936 C.ar    1  UNL1        0.1175
     19 N         -15.2629   -9.7814   18.3790 N.ar    1  UNL1       -0.2225
     20 C         -16.3874   -9.3608   19.2783 C.ar    1  UNL1        0.1750
     21 N         -16.1071   -7.9643   19.7487 N.ar    1  UNL1       -0.3349
     22 H         -16.6752   -7.4317   20.3511 H       1  UNL1        0.1675
@<TRIPOS>BOND
     1    13    14    1
     2    14    15    1
     3    14    16    1
     4    14     7    1
     5     7     8   ar
     6     8     9   ar
     7     9    10   ar
     8    10    11   ar
     9    11    12   ar
    10    12     1    1
    11     1     2   ar
    12     2     3   ar
    13     3     4   ar
    14     4     5   ar
    15     5    17    1
    16    17    18   ar
    17    18    19   ar
    18    19    20   ar
    19    20    21   ar
    20     5     6   ar
    21    12     7   ar
    22     6     1   ar
    23    21    17   ar
    24    21    22    1
@<TRIPOS>MOLECULE
*****
 22 24 0 0 0
SMALL
GASTEIGER

@<TRIPOS>ATOM
      1 C          -8.1939  -19.0763   21.7528 C.ar    1  UNL1        0.0000
      2 C          -8.4288  -19.4236   20.3126 C.ar    1  UNL1       -0.0000
      3 C          -7.2690  -19.5252   19.3668 C.ar    1  UNL1        0.0000
      4 C          -5.8742  -19.2796   19.8612 C.ar    1  UNL1        0.0015
      5 C          -5.6393  -18.9324   21.3014 C.ar    1  UNL1        0.0172
      6 C          -6.7992  -18.8307   22.2472 C.ar    1  UNL1        0.0015
      7 C         -10.1373  -17.6989   22.7901 C.ar    1  UNL1        0.0714
      8 C         -11.2971  -17.5974   23.7359 C.ar    1  UNL1        0.0039
      9 C         -11.6733  -18.7715   24.5901 C.ar    1  UNL1       -0.0001
     10 C         -10.8898  -20.0473   24.4986 C.ar    1  UNL1       -0.0000
     11 C          -9.7300  -20.1489   23.5528 C.ar    1  UNL1       -0.0001
     12 C          -9.3537  -18.9747   22.6986 C.ar    1  UNL1        0.0039
     13 F          -9.3848  -15.3506   21.0816 F       1  UNL1       -0.1659
     14 C          -9.7611  -16.5247   21.9359 C.3     1  UNL1        0.4186
     15 F          -8.8344  -16.0395   23.0109 F       1  UNL1       -0.1659
     16 F         -10.6878  -17.0100   20.8608 F       1  UNL1       -0.1659
     17 C          -4.2447  -18.6868   21.7959 C.ar    1  UNL1        0.0772
     18 C          -3.8710  -17.9887   23.0699 C.ar    1  UNL1        0.1175
     19 N          -2.3741  -17.9666   23.1645 N.ar    1  UNL1       -0.2225
     20 C          -1.8227  -18.6510   21.9489 C.ar    1  UNL1        0.1750
     21 N          -2.9788  -19.0961   21.1031 N.ar    1  UNL1       -0.3349
     22 H          -2.9174  -19.5731   20.2441 H       1  UNL1        0.1675
@<TRIPOS>BOND
     1    13    14    1
     2    14    15    1
     3    14    16    1
     4    14     7    1
     5     7     8   ar
     6     8     9   ar
     7     9    10   ar
     8    10    11   ar
     9    11    12   ar
    10    12     1    1
    11     1     2   ar
    12     2     3   ar
    13     3     4   ar
    14     4     5   ar
    15     5    17    1
    16    17    18   ar
    17    18    19   ar
    18    19    20   ar
    19    20    21   ar
    20     5     6   ar
    21    12     7   ar
    22     6     1   ar
    23    21    17   ar
    24    21    22    1
@<TRIPOS>MOLECULE
*****
 22 24 0 0 0
SMALL
GASTEIGER

@<TRIPOS>ATOM
      1 C         -15.9761   -6.2605   18.7347 C.ar    1  UNL1        0.0000
      2 C         -16.4083   -5.1547   19.6515 C.ar    1  UNL1       -0.0000
      3 C         -15.3814   -4.3470   20.3885 C.ar    1  UNL1        0.0000
      4 C         -13.9223   -4.6450   20.2086 C.ar    1  UNL1        0.0015
      5 C         -13.4902   -5.7508   19.2919 C.ar    1  UNL1        0.0172
      6 C         -14.5171   -6.5585   18.5549 C.ar    1  UNL1        0.0015
      7 C         -17.4296   -8.4042   18.5299 C.ar    1  UNL1        0.0714
      8 C         -18.4565   -9.2118   17.7929 C.ar    1  UNL1        0.0039
      9 C         -19.0568   -8.6836   16.5239 C.ar    1  UNL1       -0.0001
     10 C         -18.6302   -7.3476   15.9918 C.ar    1  UNL1       -0.0000
     11 C         -17.6033   -6.5399   16.7287 C.ar    1  UNL1       -0.0001
     12 C         -17.0030   -7.0682   17.9978 C.ar    1  UNL1        0.0039
     13 F         -16.2290   -9.4608   21.0680 F       1  UNL1       -0.1659
     14 C         -16.8293   -8.9325   19.7990 C.3     1  UNL1        0.4186
     15 F         -17.9202   -8.2729   20.5895 F       1  UNL1       -0.1659
     16 F         -15.7385   -9.5921   19.0084 F       1  UNL1       -0.1659
     17 C         -12.0311   -6.0488   19.1120 C.ar    1  UNL1        0.0772
     18 C         -10.9169   -5.0447   19.1333 C.ar    1  UNL1        0.1175
     19 N          -9.6273   -5.7786   18.9137 N.ar    1  UNL1       -0.2225
     20 C          -9.9445   -7.2363   18.7568 C.ar    1  UNL1        0.1750
     21 N         -11.4301   -7.4033   18.8793 N.ar    1  UNL1       -0.3349
     22 H         -11.9240   -8.2527   18.8178 H       1  UNL1        0.1675
@<TRIPOS>BOND
     1    13    14    1
     2    14    15    1
     3    14    16    1
     4    14     7    1
     5     7     8   ar
     6     8     9   ar
     7     9    10   ar
     8    10    11   ar
     9    11    12   ar
    10    12     1    1
    11     1     2   ar
    12     2     3   ar
    13     3     4   ar
    14     4     5   ar
    15     5    17    1
    16    17    18   ar
    17    18    19   ar
    18    19    20   ar
    19    20    21   ar
    20     5     6   ar
    21    12     7   ar
    22     6     1   ar
    23    21    17   ar
    24    21    22    1
@<TRIPOS>MOLECULE
*****
 22 24 0 0 0
SMALL
GASTEIGER

@<TRIPOS>ATOM
      1 C         -12.4474   -3.9532   18.8370 C.ar    1  UNL1        0.0000
      2 C         -12.6819   -2.9315   19.9098 C.ar    1  UNL1       -0.0000
      3 C         -13.8407   -3.0837   20.8501 C.ar    1  UNL1        0.0000
      4 C         -14.7649   -4.2577   20.7175 C.ar    1  UNL1        0.0015
      5 C         -14.5304   -5.2795   19.6447 C.ar    1  UNL1        0.0172
      6 C         -13.3716   -5.1272   18.7044 C.ar    1  UNL1        0.0015
      7 C         -11.2464   -2.6473   16.9390 C.ar    1  UNL1        0.0714
      8 C         -10.0877   -2.4950   15.9988 C.ar    1  UNL1        0.0039
      9 C          -8.9711   -3.4965   16.0162 C.ar    1  UNL1       -0.0001
     10 C          -9.0133   -4.6502   16.9739 C.ar    1  UNL1       -0.0000
     11 C         -10.1720   -4.8024   17.9141 C.ar    1  UNL1       -0.0001
     12 C         -11.2886   -3.8010   17.8967 C.ar    1  UNL1        0.0039
     13 F         -13.4796   -0.6443   16.9042 F       1  UNL1       -0.1659
     14 C         -12.3630   -1.6458   16.9216 C.3     1  UNL1        0.4186
     15 F         -13.1748   -2.5659   16.0588 F       1  UNL1       -0.1659
     16 F         -11.5512   -0.7257   17.7844 F       1  UNL1       -0.1659
     17 C         -15.4545   -6.4535   19.5121 C.ar    1  UNL1        0.0772
     18 C         -16.9529   -6.3957   19.4697 C.ar    1  UNL1        0.1175
     19 N         -17.4670   -7.7979   19.3300 N.ar    1  UNL1       -0.2225
     20 C         -16.2864   -8.7223   19.2861 C.ar    1  UNL1        0.1750
     21 N         -15.0427   -7.8913   19.3986 N.ar    1  UNL1       -0.3349
     22 H         -14.1184   -8.2302   19.3981 H       1  UNL1        0.1675
@<TRIPOS>BOND
     1    13    14    1
     2    14    15    1
     3    14    16    1
     4    14     7    1
     5     7     8   ar
     6     8     9   ar
     7     9    10   ar
     8    10    11   ar
     9    11    12   ar
    10    12     1    1
    11     1     2   ar
    12     2     3   ar
    13     3     4   ar
    14     4     5   ar
    15     5    17    1
    16    17    18   ar
    17    18    19   ar
    18    19    20   ar
    19    20    21   ar
    20     5     6   ar
    21    12     7   ar
    22     6     1   ar
    23    21    17   ar
    24    21    22    1
@<TRIPOS>MOLECULE
*****
 22 24 0 0 0
SMALL
GASTEIGER

@<TRIPOS>ATOM
      1 C         -15.8384   -6.3766   19.4037 C.ar    1  UNL1        0.0000
      2 C         -16.4124   -5.0341   19.7472 C.ar    1  UNL1       -0.0000
      3 C         -15.5042   -3.8542   19.9287 C.ar    1  UNL1        0.0000
      4 C         -14.0218   -4.0169   19.7667 C.ar    1  UNL1        0.0015
      5 C         -13.4478   -5.3595   19.4232 C.ar    1  UNL1        0.0172
      6 C         -14.3561   -6.5393   19.2417 C.ar    1  UNL1        0.0015
      7 C         -16.4524   -8.5731   18.1593 C.ar    1  UNL1        0.0714
      8 C         -17.3607   -9.7529   17.9778 C.ar    1  UNL1        0.0039
      9 C         -18.5634   -9.9161   18.8592 C.ar    1  UNL1       -0.0001
     10 C         -18.8578   -8.8994   19.9221 C.ar    1  UNL1       -0.0000
     11 C         -17.9495   -7.7196   20.1035 C.ar    1  UNL1       -0.0001
     12 C         -16.7468   -7.5565   19.2221 C.ar    1  UNL1        0.0039
     13 F         -14.0469   -8.2468   16.3965 F       1  UNL1       -0.1659
     14 C         -15.2496   -8.4100   17.2779 C.3     1  UNL1        0.4186
     15 F         -14.4999   -9.4015   18.1174 F       1  UNL1       -0.1659
     16 F         -15.9994   -7.4185   16.4384 F       1  UNL1       -0.1659
     17 C         -11.9655   -5.5222   19.2612 C.ar    1  UNL1        0.0772
     18 C         -11.2453   -6.8071   18.9777 C.ar    1  UNL1        0.1175
     19 N          -9.7778   -6.5076   18.8955 N.ar    1  UNL1       -0.2225
     20 C          -9.5910   -5.0376   19.1282 C.ar    1  UNL1        0.1750
     21 N         -10.9431   -4.4286   19.3542 N.ar    1  UNL1       -0.3349
     22 H         -11.1271   -3.4780   19.5323 H       1  UNL1        0.1675
@<TRIPOS>BOND
     1    13    14    1
     2    14    15    1
     3    14    16    1
     4    14     7    1
     5     7     8   ar
     6     8     9   ar
     7     9    10   ar
     8    10    11   ar
     9    11    12   ar
    10    12     1    1
    11     1     2   ar
    12     2     3   ar
    13     3     4   ar
    14     4     5   ar
    15     5    17    1
    16    17    18   ar
    17    18    19   ar
    18    19    20   ar
    19    20    21   ar
    20     5     6   ar
    21    12     7   ar
    22     6     1   ar
    23    21    17   ar
    24    21    22    1
@<TRIPOS>MOLECULE
*****
 22 24 0 0 0
SMALL
GASTEIGER

@<TRIPOS>ATOM
      1 C           3.1700   -2.1052   20.0274 C.ar    1  UNL1        0.0000
      2 C           3.1861   -3.2656   19.0770 C.ar    1  UNL1       -0.0000
      3 C           3.9746   -4.4973   19.4104 C.ar    1  UNL1        0.0000
      4 C           4.7471   -4.5686   20.6943 C.ar    1  UNL1        0.0015
      5 C           4.7310   -3.4082   21.6447 C.ar    1  UNL1        0.0172
      6 C           3.9425   -2.1765   21.3112 C.ar    1  UNL1        0.0015
      7 C           2.8855    0.0804   18.6518 C.ar    1  UNL1        0.0714
      8 C           2.0970    1.3121   18.3183 C.ar    1  UNL1        0.0039
      9 C           0.8044    1.5898   19.0270 C.ar    1  UNL1       -0.0001
     10 C           0.3004    0.6359   20.0691 C.ar    1  UNL1       -0.0000
     11 C           1.0889   -0.5957   20.4025 C.ar    1  UNL1       -0.0001
     12 C           2.3815   -0.8735   19.6939 C.ar    1  UNL1        0.0039
     13 F           5.4706   -0.4751   17.2345 F       1  UNL1       -0.1659
     14 C           4.1780   -0.1973   17.9431 C.3     1  UNL1        0.4186
     15 F           4.9356    0.4082   19.0874 F       1  UNL1       -0.1659
     16 F           3.4205   -0.8029   16.7988 F       1  UNL1       -0.1659
     17 C           5.5034   -3.4795   22.9285 C.ar    1  UNL1        0.0772
     18 C           6.8004   -4.2033   23.1381 C.ar    1  UNL1        0.1175
     19 N           7.2131   -4.0107   24.5673 N.ar    1  UNL1       -0.2225
     20 C           6.1711   -3.1676   25.2410 C.ar    1  UNL1        0.1750
     21 N           5.1145   -2.8394   24.2281 N.ar    1  UNL1       -0.3349
     22 H           4.3075   -2.2987   24.3882 H       1  UNL1        0.1675
@<TRIPOS>BOND
     1    13    14    1
     2    14    15    1
     3    14    16    1
     4    14     7    1
     5     7     8   ar
     6     8     9   ar
     7     9    10   ar
     8    10    11   ar
     9    11    12   ar
    10    12     1    1
    11     1     2   ar
    12     2     3   ar
    13     3     4   ar
    14     4     5   ar
    15     5    17    1
    16    17    18   ar
    17    18    19   ar
    18    19    20   ar
    19    20    21   ar
    20     5     6   ar
    21    12     7   ar
    22     6     1   ar
    23    21    17   ar
    24    21    22    1
