@<TRIPOS>MOLECULE
*****
 31 33 0 0 0
SMALL
GASTEIGER

@<TRIPOS>ATOM
      1 C         -10.3324  -18.5963   21.0233 C.ar    1  UNL1        0.1393
      2 N          -8.9908  -18.9928   20.4825 N.ar    1  UNL1       -0.2155
      3 C          -8.0096  -19.7096   21.3620 C.ar    1  UNL1        0.1343
      4 C          -8.3701  -20.0298   22.7823 C.ar    1  UNL1        0.0310
      5 C          -9.7119  -19.6332   23.3233 C.ar    1  UNL1       -0.0067
      6 C         -10.0724  -19.9534   24.7436 C.3     1  UNL1        0.0319
      7 C         -10.6930  -18.9164   22.4438 C.ar    1  UNL1        0.0959
      8 N         -11.3136  -17.8795   20.1438 N.pl3   1  UNL1       -0.3145
      9 H         -11.9766  -18.3915   19.6265 H       1  UNL1        0.1483
     10 C         -11.2847  -16.3825   20.0524 C.3     1  UNL1        0.1362
     11 C         -10.5816  -15.5802   21.1070 C.3     1  UNL1        0.2266
     12 O          -9.0861  -15.6264   21.2118 O.3     1  UNL1       -0.4720
     13 C          -7.1097  -15.5277   25.2534 C.ar    1  UNL1        0.0592
     14 C          -8.5059  -16.0579   25.1140 C.ar    1  UNL1        0.0179
     15 C          -9.1647  -16.0908   23.7668 C.ar    1  UNL1        0.0397
     16 C          -8.4273  -15.5935   22.5590 C.ar    1  UNL1        0.1577
     17 C          -7.0311  -15.0633   22.6984 C.ar    1  UNL1        0.1352
     18 N          -6.3723  -15.0304   24.0456 N.ar    1  UNL1       -0.2450
     19 C          -7.2018  -15.9568   27.8141 C.3     1  UNL1        0.0067
     20 C          -6.4509  -15.4948   26.6006 C.3     1  UNL1        0.0458
     21 N          -6.6679  -20.1062   20.8211 N.pl3   1  UNL1       -0.2837
     22 H          -6.5899  -20.8787   20.2158 H       1  UNL1        0.1550
     23 C          -5.4450  -19.3258   21.2024 C.ar    1  UNL1        0.1276
     24 C          -4.0672  -19.5155   20.6404 C.ar    1  UNL1        0.0503
     25 C          -3.1559  -18.5256   21.3033 C.ar    1  UNL1        0.0815
     26 C          -1.6877  -18.3653   21.0406 C.3     1  UNL1        0.0540
     27 N          -3.9704  -17.7240   22.2750 N.ar    1  UNL1       -0.1760
     28 N          -5.3851  -18.2186   22.2126 N.ar    1  UNL1       -0.2631
     29 H          -6.1415  -17.8766   22.7418 H       1  UNL1        0.1903
     30 C         -12.0347  -18.5198   22.9846 C.1     1  UNL1        0.1029
     31 N         -13.3764  -18.1233   23.5254 N.1     1  UNL1       -0.1907
@<TRIPOS>BOND
     1    19    20    1
     2    20    13    1
     3    13    14   ar
     4    14    15   ar
     5    15    16   ar
     6    16    12    1
     7    12    11    1
     8    11    10    1
     9    10     8    1
    10     8     1    1
    11     1     2   ar
    12     2     3   ar
    13     3    21    1
    14    21    23    1
    15    23    24   ar
    16    24    25   ar
    17    25    26    1
    18    25    27   ar
    19    27    28   ar
    20     3     4   ar
    21     4     5   ar
    22     5     6    1
    23     5     7   ar
    24     7    30    1
    25    30    31    3
    26    16    17   ar
    27    17    18   ar
    28    18    13   ar
    29     7     1   ar
    30    28    23   ar
    31     8     9    1
    32    21    22    1
    33    28    29    1
@<TRIPOS>MOLECULE
*****
 31 33 0 0 0
SMALL
GASTEIGER

@<TRIPOS>ATOM
      1 C          -4.4318  -18.4950   22.4431 C.ar    1  UNL1        0.1393
      2 N          -5.1426  -17.3286   23.0630 N.ar    1  UNL1       -0.2155
      3 C          -4.5120  -15.9678   23.0404 C.ar    1  UNL1        0.1343
      4 C          -3.1707  -15.7733   22.3979 C.ar    1  UNL1        0.0310
      5 C          -2.4598  -16.9397   21.7778 C.ar    1  UNL1       -0.0067
      6 C          -1.1185  -16.7453   21.1353 C.3     1  UNL1        0.0319
      7 C          -3.0904  -18.3006   21.8004 C.ar    1  UNL1        0.0959
      8 N          -5.0624  -19.8558   22.4657 N.pl3   1  UNL1       -0.3145
      9 H          -4.7983  -20.5094   23.1529 H       1  UNL1        0.1483
     10 C          -6.0954  -20.2208   21.4411 C.3     1  UNL1        0.1362
     11 C          -6.2707  -19.3716   20.2171 C.3     1  UNL1        0.2266
     12 O          -7.6404  -18.9141   19.8115 O.3     1  UNL1       -0.4720
     13 C         -10.8729  -18.4674   22.9101 C.ar    1  UNL1        0.0592
     14 C         -11.0226  -19.4762   21.8101 C.ar    1  UNL1        0.0179
     15 C          -9.9451  -19.6251   20.7773 C.ar    1  UNL1        0.0397
     16 C          -8.7179  -18.7652   20.8444 C.ar    1  UNL1        0.1577
     17 C          -8.5682  -17.7565   21.9443 C.ar    1  UNL1        0.1352
     18 N          -9.6457  -17.6076   22.9772 N.ar    1  UNL1       -0.2450
     19 C         -13.3340  -17.9120   23.5302 C.3     1  UNL1        0.0067
     20 C         -11.9504  -18.3185   23.9430 C.3     1  UNL1        0.0458
     21 N          -5.2228  -14.8014   23.6604 N.pl3   1  UNL1       -0.2837
     22 H          -4.8781  -13.8886   23.5294 H       1  UNL1        0.1550
     23 C          -6.4589  -15.0258   24.4800 C.ar    1  UNL1        0.1276
     24 C          -6.4987  -15.4742   25.9108 C.ar    1  UNL1        0.0503
     25 C          -7.9366  -15.5668   26.3278 C.ar    1  UNL1        0.0815
     26 C          -8.4376  -15.9783   27.6804 C.3     1  UNL1        0.0540
     27 N          -8.7855  -15.1755   25.1546 N.ar    1  UNL1       -0.1760
     28 N          -7.8722  -14.8412   24.0126 N.ar    1  UNL1       -0.2631
     29 H          -8.1514  -14.5515   23.1141 H       1  UNL1        0.1903
     30 C          -2.3797  -19.4669   21.1805 C.1     1  UNL1        0.1029
     31 N          -1.6689  -20.6333   20.5605 N.1     1  UNL1       -0.1907
@<TRIPOS>BOND
     1    19    20    1
     2    20    13    1
     3    13    14   ar
     4    14    15   ar
     5    15    16   ar
     6    16    12    1
     7    12    11    1
     8    11    10    1
     9    10     8    1
    10     8     1    1
    11     1     2   ar
    12     2     3   ar
    13     3    21    1
    14    21    23    1
    15    23    24   ar
    16    24    25   ar
    17    25    26    1
    18    25    27   ar
    19    27    28   ar
    20     3     4   ar
    21     4     5   ar
    22     5     6    1
    23     5     7   ar
    24     7    30    1
    25    30    31    3
    26    16    17   ar
    27    17    18   ar
    28    18    13   ar
    29     7     1   ar
    30    28    23   ar
    31     8     9    1
    32    21    22    1
    33    28    29    1
@<TRIPOS>MOLECULE
*****
 31 33 0 0 0
SMALL
GASTEIGER

@<TRIPOS>ATOM
      1 C          -6.2884  -18.2831   22.3750 C.ar    1  UNL1        0.1393
      2 N          -4.8297  -18.5693   22.1746 N.ar    1  UNL1       -0.2155
      3 C          -3.7977  -17.6919   22.8190 C.ar    1  UNL1        0.1343
      4 C          -4.2245  -16.5283   23.6638 C.ar    1  UNL1        0.0310
      5 C          -5.6832  -16.2420   23.8643 C.ar    1  UNL1       -0.0067
      6 C          -6.1100  -15.0783   24.7091 C.3     1  UNL1        0.0319
      7 C          -6.7152  -17.1194   23.2199 C.ar    1  UNL1        0.0959
      8 N          -7.3203  -19.1605   21.7307 N.pl3   1  UNL1       -0.3145
      9 H          -8.0182  -19.5849   22.2803 H       1  UNL1        0.1483
     10 C          -7.2890  -19.3912   20.2488 C.3     1  UNL1        0.1362
     11 C          -8.5652  -19.6427   19.5018 C.3     1  UNL1        0.2266
     12 O          -9.5837  -18.5497   19.3677 O.3     1  UNL1       -0.4720
     13 C         -12.6802  -17.9534   22.5780 C.ar    1  UNL1        0.0592
     14 C         -12.5785  -16.9774   21.4436 C.ar    1  UNL1        0.0179
     15 C         -11.5463  -17.1762   20.3735 C.ar    1  UNL1        0.0397
     16 C         -10.6159  -18.3510   20.4378 C.ar    1  UNL1        0.1577
     17 C         -10.7177  -19.3270   21.5722 C.ar    1  UNL1        0.1352
     18 N         -11.7498  -19.1282   22.6423 N.ar    1  UNL1       -0.2450
     19 C         -13.6257  -18.5327   24.9276 C.3     1  UNL1        0.0067
     20 C         -13.7124  -17.7547   23.6481 C.3     1  UNL1        0.0458
     21 N          -2.3390  -17.9782   22.6185 N.pl3   1  UNL1       -0.2837
     22 H          -1.7682  -18.1906   23.3920 H       1  UNL1        0.1550
     23 C          -1.7499  -17.9409   21.2395 C.ar    1  UNL1        0.1276
     24 C          -2.5138  -17.7813   19.9585 C.ar    1  UNL1        0.0503
     25 C          -1.5296  -17.7984   18.8267 C.ar    1  UNL1        0.0815
     26 C          -1.8597  -17.6681   17.3693 C.3     1  UNL1        0.0540
     27 N          -0.1574  -17.9685   19.4082 N.ar    1  UNL1       -0.1760
     28 N          -0.2936  -18.0566   20.8994 N.ar    1  UNL1       -0.2631
     29 H           0.4435  -18.1704   21.5421 H       1  UNL1        0.1903
     30 C          -8.1739  -16.8331   23.4204 C.1     1  UNL1        0.1029
     31 N          -9.6326  -16.5469   23.6208 N.1     1  UNL1       -0.1907
@<TRIPOS>BOND
     1    19    20    1
     2    20    13    1
     3    13    14   ar
     4    14    15   ar
     5    15    16   ar
     6    16    12    1
     7    12    11    1
     8    11    10    1
     9    10     8    1
    10     8     1    1
    11     1     2   ar
    12     2     3   ar
    13     3    21    1
    14    21    23    1
    15    23    24   ar
    16    24    25   ar
    17    25    26    1
    18    25    27   ar
    19    27    28   ar
    20     3     4   ar
    21     4     5   ar
    22     5     6    1
    23     5     7   ar
    24     7    30    1
    25    30    31    3
    26    16    17   ar
    27    17    18   ar
    28    18    13   ar
    29     7     1   ar
    30    28    23   ar
    31     8     9    1
    32    21    22    1
    33    28    29    1
@<TRIPOS>MOLECULE
*****
 31 33 0 0 0
SMALL
GASTEIGER

@<TRIPOS>ATOM
      1 C          -9.9245  -17.4713   24.2277 C.ar    1  UNL1        0.1393
      2 N          -8.5950  -17.0464   24.7770 N.ar    1  UNL1       -0.2155
      3 C          -7.7273  -16.1043   23.9962 C.ar    1  UNL1        0.1343
      4 C          -8.1891  -15.5872   22.6661 C.ar    1  UNL1        0.0310
      5 C          -9.5187  -16.0122   22.1167 C.ar    1  UNL1       -0.0067
      6 C          -9.9805  -15.4951   20.7866 C.3     1  UNL1        0.0319
      7 C         -10.3864  -16.9542   22.8975 C.ar    1  UNL1        0.0959
      8 N         -10.7922  -18.4134   25.0085 N.pl3   1  UNL1       -0.3145
      9 H         -11.5146  -18.0608   25.5768 H       1  UNL1        0.1483
     10 C         -10.5591  -19.8928   24.9234 C.3     1  UNL1        0.1362
     11 C          -9.5084  -20.4346   24.0001 C.3     1  UNL1        0.2266
     12 O          -9.5496  -20.1000   22.5385 O.3     1  UNL1       -0.4720
     13 C          -5.7298  -19.2507   20.3163 C.ar    1  UNL1        0.0592
     14 C          -5.6817  -19.8765   21.6786 C.ar    1  UNL1        0.0179
     15 C          -6.9549  -20.1595   22.4194 C.ar    1  UNL1        0.0397
     16 C          -8.2763  -19.8169   21.7978 C.ar    1  UNL1        0.1577
     17 C          -8.3245  -19.1911   20.4354 C.ar    1  UNL1        0.1352
     18 N          -7.0512  -18.9080   19.6947 N.ar    1  UNL1       -0.2450
     19 C          -3.3578  -19.9885   19.5554 C.3     1  UNL1        0.0067
     20 C          -4.4566  -18.9676   19.5755 C.3     1  UNL1        0.0458
     21 N          -6.3977  -15.6794   24.5456 N.pl3   1  UNL1       -0.2837
     22 H          -6.3468  -15.2349   25.4226 H       1  UNL1        0.1550
     23 C          -5.1458  -15.9317   23.7589 C.ar    1  UNL1        0.1276
     24 C          -4.3945  -17.2280   23.6892 C.ar    1  UNL1        0.0503
     25 C          -3.2098  -17.0295   22.7909 C.ar    1  UNL1        0.0815
     26 C          -2.1857  -18.0677   22.4398 C.3     1  UNL1        0.0540
     27 N          -3.2289  -15.6103   22.3054 N.ar    1  UNL1       -0.1760
     28 N          -4.4254  -14.9319   22.9036 N.ar    1  UNL1       -0.2631
     29 H          -4.6913  -13.9949   22.7601 H       1  UNL1        0.1903
     30 C         -11.7158  -17.3792   22.3482 C.1     1  UNL1        0.1029
     31 N         -13.0453  -17.8041   21.7988 N.1     1  UNL1       -0.1907
@<TRIPOS>BOND
     1    19    20    1
     2    20    13    1
     3    13    14   ar
     4    14    15   ar
     5    15    16   ar
     6    16    12    1
     7    12    11    1
     8    11    10    1
     9    10     8    1
    10     8     1    1
    11     1     2   ar
    12     2     3   ar
    13     3    21    1
    14    21    23    1
    15    23    24   ar
    16    24    25   ar
    17    25    26    1
    18    25    27   ar
    19    27    28   ar
    20     3     4   ar
    21     4     5   ar
    22     5     6    1
    23     5     7   ar
    24     7    30    1
    25    30    31    3
    26    16    17   ar
    27    17    18   ar
    28    18    13   ar
    29     7     1   ar
    30    28    23   ar
    31     8     9    1
    32    21    22    1
    33    28    29    1
@<TRIPOS>MOLECULE
*****
 31 33 0 0 0
SMALL
GASTEIGER

@<TRIPOS>ATOM
      1 C          -5.5138  -17.9619   22.5773 C.ar    1  UNL1        0.1393
      2 N          -6.9797  -18.0743   22.2802 N.ar    1  UNL1       -0.2155
      3 C          -7.4602  -19.0256   21.2246 C.ar    1  UNL1        0.1343
      4 C          -6.4748  -19.8644   20.4662 C.ar    1  UNL1        0.0310
      5 C          -5.0087  -19.7519   20.7632 C.ar    1  UNL1       -0.0067
      6 C          -4.0233  -20.5906   20.0048 C.3     1  UNL1        0.0319
      7 C          -4.5282  -18.8006   21.8188 C.ar    1  UNL1        0.0959
      8 N          -5.0333  -17.0106   23.6329 N.pl3   1  UNL1       -0.3145
      9 H          -4.2064  -17.2045   24.1308 H       1  UNL1        0.1483
     10 C          -5.8127  -15.7638   23.9299 C.3     1  UNL1        0.1362
     11 C          -5.9323  -15.2726   25.3421 C.3     1  UNL1        0.2266
     12 O          -7.1201  -15.6590   26.1726 O.3     1  UNL1       -0.4720
     13 C         -10.6291  -17.7245   24.2565 C.ar    1  UNL1        0.0592
     14 C          -9.8526  -18.4138   25.3391 C.ar    1  UNL1        0.0179
     15 C          -8.6829  -17.7253   25.9777 C.ar    1  UNL1        0.0397
     16 C          -8.2897  -16.3475   25.5339 C.ar    1  UNL1        0.1577
     17 C          -9.0662  -15.6582   24.4514 C.ar    1  UNL1        0.1352
     18 N         -10.2359  -16.3467   23.8127 N.ar    1  UNL1       -0.2450
     19 C         -13.0135  -17.6232   23.2298 C.3     1  UNL1        0.0067
     20 C         -11.7987  -18.4130   23.6179 C.3     1  UNL1        0.0458
     21 N          -8.9263  -19.1381   20.9276 N.pl3   1  UNL1       -0.2837
     22 H          -9.3557  -20.0234   20.8965 H       1  UNL1        0.1550
     23 C          -9.7379  -17.9016   20.6777 C.ar    1  UNL1        0.1276
     24 C         -11.0794  -17.8478   20.0089 C.ar    1  UNL1        0.0503
     25 C         -11.5212  -16.4149   19.9707 C.ar    1  UNL1        0.0815
     26 C         -12.8059  -15.9035   19.3893 C.3     1  UNL1        0.0540
     27 N         -10.4526  -15.5830   20.6160 N.ar    1  UNL1       -0.1760
     28 N          -9.3505  -16.5019   21.0529 N.ar    1  UNL1       -0.2631
     29 H          -8.5189  -16.2335   21.5064 H       1  UNL1        0.1903
     30 C          -3.0623  -18.6881   22.1159 C.1     1  UNL1        0.1029
     31 N          -1.5964  -18.5756   22.4130 N.1     1  UNL1       -0.1907
@<TRIPOS>BOND
     1    19    20    1
     2    20    13    1
     3    13    14   ar
     4    14    15   ar
     5    15    16   ar
     6    16    12    1
     7    12    11    1
     8    11    10    1
     9    10     8    1
    10     8     1    1
    11     1     2   ar
    12     2     3   ar
    13     3    21    1
    14    21    23    1
    15    23    24   ar
    16    24    25   ar
    17    25    26    1
    18    25    27   ar
    19    27    28   ar
    20     3     4   ar
    21     4     5   ar
    22     5     6    1
    23     5     7   ar
    24     7    30    1
    25    30    31    3
    26    16    17   ar
    27    17    18   ar
    28    18    13   ar
    29     7     1   ar
    30    28    23   ar
    31     8     9    1
    32    21    22    1
    33    28    29    1
@<TRIPOS>MOLECULE
*****
 31 33 0 0 0
SMALL
GASTEIGER

@<TRIPOS>ATOM
      1 C          -9.3377  -17.5664   23.2256 C.ar    1  UNL1        0.1393
      2 N          -8.1005  -18.4017   23.0798 N.ar    1  UNL1       -0.2155
      3 C          -7.8702  -19.1882   21.8234 C.ar    1  UNL1        0.1343
      4 C          -8.8772  -19.1393   20.7128 C.ar    1  UNL1        0.0310
      5 C         -10.1146  -18.3039   20.8586 C.ar    1  UNL1       -0.0067
      6 C         -11.1216  -18.2550   19.7480 C.3     1  UNL1        0.0319
      7 C         -10.3448  -17.5175   22.1150 C.ar    1  UNL1        0.0959
      8 N          -9.5680  -16.7800   24.4820 N.pl3   1  UNL1       -0.3145
      9 H         -10.1566  -15.9909   24.4679 H       1  UNL1        0.1483
     10 C          -8.9014  -17.1958   25.7599 C.3     1  UNL1        0.1362
     11 C          -8.4135  -16.1556   26.7242 C.3     1  UNL1        0.2266
     12 O          -7.3411  -15.1924   26.3092 O.3     1  UNL1       -0.4720
     13 C          -3.9835  -16.5722   23.6499 C.ar    1  UNL1        0.0592
     14 C          -4.0106  -16.9759   25.0942 C.ar    1  UNL1        0.0179
     15 C          -5.1298  -16.5160   25.9807 C.ar    1  UNL1        0.0397
     16 C          -6.2219  -15.6523   25.4227 C.ar    1  UNL1        0.1577
     17 C          -6.1948  -15.2486   23.9784 C.ar    1  UNL1        0.1352
     18 N          -5.0756  -15.7086   23.0919 N.ar    1  UNL1       -0.2450
     19 C          -2.1713  -16.0541   21.8617 C.3     1  UNL1        0.0067
     20 C          -2.8642  -17.0321   22.7634 C.3     1  UNL1        0.0458
     21 N          -6.6328  -20.0235   21.6777 N.pl3   1  UNL1       -0.2837
     22 H          -6.5884  -20.9144   22.0944 H       1  UNL1        0.1550
     23 C          -5.4632  -19.5016   20.8970 C.ar    1  UNL1        0.1276
     24 C          -4.0287  -19.8957   21.0889 C.ar    1  UNL1        0.0503
     25 C          -3.2015  -19.1315   20.0979 C.ar    1  UNL1        0.0815
     26 C          -1.7125  -19.2185   19.9391 C.3     1  UNL1        0.0540
     27 N          -4.1249  -18.2651   19.2936 N.ar    1  UNL1       -0.1760
     28 N          -5.5227  -18.4938   19.7875 N.ar    1  UNL1       -0.2631
     29 H          -6.3363  -18.0589   19.4439 H       1  UNL1        0.1903
     30 C         -11.5821  -16.6821   22.2608 C.1     1  UNL1        0.1029
     31 N         -12.8194  -15.8468   22.4066 N.1     1  UNL1       -0.1907
@<TRIPOS>BOND
     1    19    20    1
     2    20    13    1
     3    13    14   ar
     4    14    15   ar
     5    15    16   ar
     6    16    12    1
     7    12    11    1
     8    11    10    1
     9    10     8    1
    10     8     1    1
    11     1     2   ar
    12     2     3   ar
    13     3    21    1
    14    21    23    1
    15    23    24   ar
    16    24    25   ar
    17    25    26    1
    18    25    27   ar
    19    27    28   ar
    20     3     4   ar
    21     4     5   ar
    22     5     6    1
    23     5     7   ar
    24     7    30    1
    25    30    31    3
    26    16    17   ar
    27    17    18   ar
    28    18    13   ar
    29     7     1   ar
    30    28    23   ar
    31     8     9    1
    32    21    22    1
    33    28    29    1
@<TRIPOS>MOLECULE
*****
 31 33 0 0 0
SMALL
GASTEIGER

@<TRIPOS>ATOM
      1 C           8.0359   -7.4975   27.5481 C.ar    1  UNL1        0.1393
      2 N           8.1807   -7.1746   29.0057 N.ar    1  UNL1       -0.2155
      3 C           8.7484   -5.8520   29.4281 C.ar    1  UNL1        0.1343
      4 C           9.1712   -4.8523   28.3929 C.ar    1  UNL1        0.0310
      5 C           9.0264   -5.1752   26.9352 C.ar    1  UNL1       -0.0067
      6 C           9.4492   -4.1754   25.8999 C.3     1  UNL1        0.0319
      7 C           8.4587   -6.4978   26.5128 C.ar    1  UNL1        0.0959
      8 N           7.4682   -8.8202   27.1257 N.pl3   1  UNL1       -0.3145
      9 H           6.7221   -8.8534   26.4842 H       1  UNL1        0.1483
     10 C           8.0372  -10.0923   27.6808 C.3     1  UNL1        0.1362
     11 C           7.1292  -11.1113   28.3029 C.3     1  UNL1        0.2266
     12 O           6.5856  -12.2370   27.4738 O.3     1  UNL1       -0.4720
     13 C           2.3471  -13.6266   28.0691 C.ar    1  UNL1        0.0592
     14 C           3.0070  -12.7665   29.1057 C.ar    1  UNL1        0.0179
     15 C           4.4198  -12.3032   28.9073 C.ar    1  UNL1        0.0397
     16 C           5.1728  -12.7002   27.6722 C.ar    1  UNL1        0.1577
     17 C           4.5129  -13.5604   26.6356 C.ar    1  UNL1        0.1352
     18 N           3.1001  -14.0236   26.8340 N.ar    1  UNL1       -0.2450
     19 C          -0.1605  -13.0873   28.4822 C.3     1  UNL1        0.0067
     20 C           0.9343  -14.0899   28.2675 C.3     1  UNL1        0.0458
     21 N           8.8932   -5.5291   30.8858 N.pl3   1  UNL1       -0.2837
     22 H           9.5795   -5.9846   31.4250 H       1  UNL1        0.1550
     23 C           7.9924   -4.5123   31.5219 C.ar    1  UNL1        0.1276
     24 C           8.3028   -3.0576   31.7150 C.ar    1  UNL1        0.0503
     25 C           7.1253   -2.4179   32.3890 C.ar    1  UNL1        0.0815
     26 C           7.0068   -0.9725   32.7723 C.3     1  UNL1        0.0540
     27 N           6.0871   -3.4773   32.6124 N.ar    1  UNL1       -0.1760
     28 N           6.6231   -4.7717   32.0765 N.ar    1  UNL1       -0.2631
     29 H           6.1578   -5.6393   32.0869 H       1  UNL1        0.1903
     30 C           8.3138   -6.8207   25.0551 C.1     1  UNL1        0.1029
     31 N           8.1690   -7.1436   23.5975 N.1     1  UNL1       -0.1907
@<TRIPOS>BOND
     1    19    20    1
     2    20    13    1
     3    13    14   ar
     4    14    15   ar
     5    15    16   ar
     6    16    12    1
     7    12    11    1
     8    11    10    1
     9    10     8    1
    10     8     1    1
    11     1     2   ar
    12     2     3   ar
    13     3    21    1
    14    21    23    1
    15    23    24   ar
    16    24    25   ar
    17    25    26    1
    18    25    27   ar
    19    27    28   ar
    20     3     4   ar
    21     4     5   ar
    22     5     6    1
    23     5     7   ar
    24     7    30    1
    25    30    31    3
    26    16    17   ar
    27    17    18   ar
    28    18    13   ar
    29     7     1   ar
    30    28    23   ar
    31     8     9    1
    32    21    22    1
    33    28    29    1
@<TRIPOS>MOLECULE
*****
 31 33 0 0 0
SMALL
GASTEIGER

@<TRIPOS>ATOM
      1 C          -7.9750  -18.3559   20.9617 C.ar    1  UNL1        0.1393
      2 N          -6.8263  -17.9497   21.8367 N.ar    1  UNL1       -0.2155
      3 C          -5.5873  -18.7936   21.8877 C.ar    1  UNL1        0.1343
      4 C          -5.4969  -20.0438   21.0638 C.ar    1  UNL1        0.0310
      5 C          -6.6456  -20.4501   20.1888 C.ar    1  UNL1       -0.0067
      6 C          -6.5552  -21.7002   19.3649 C.3     1  UNL1        0.0319
      7 C          -7.8846  -19.6061   20.1377 C.ar    1  UNL1        0.0959
      8 N          -9.2140  -17.5119   20.9107 N.pl3   1  UNL1       -0.3145
      9 H          -9.1401  -16.5332   20.8346 H       1  UNL1        0.1483
     10 C         -10.5656  -18.1593   20.9755 C.3     1  UNL1        0.1362
     11 C         -11.4599  -17.9120   22.1541 C.3     1  UNL1        0.2266
     12 O         -11.1116  -18.4891   23.4940 O.3     1  UNL1       -0.4720
     13 C          -8.3644  -16.2468   26.2645 C.ar    1  UNL1        0.0592
     14 C          -8.7968  -15.6235   24.9705 C.ar    1  UNL1        0.0179
     15 C          -9.7125  -16.3709   24.0470 C.ar    1  UNL1        0.0397
     16 C         -10.1958  -17.7417   24.4175 C.ar    1  UNL1        0.1577
     17 C          -9.7635  -18.3650   25.7115 C.ar    1  UNL1        0.1352
     18 N          -8.8478  -17.6176   26.6350 N.ar    1  UNL1       -0.2450
     19 C          -6.0408  -15.1987   26.7668 C.3     1  UNL1        0.0067
     20 C          -7.4487  -15.4994   27.1879 C.3     1  UNL1        0.0458
     21 N          -4.4387  -18.3874   22.7628 N.pl3   1  UNL1       -0.2837
     22 H          -4.4759  -18.5532   23.7325 H       1  UNL1        0.1550
     23 C          -3.2333  -17.7284   22.1603 C.ar    1  UNL1        0.1276
     24 C          -2.1813  -18.4038   21.3315 C.ar    1  UNL1        0.0503
     25 C          -1.1661  -17.3713   20.9398 C.ar    1  UNL1        0.0815
     26 C           0.0587  -17.6102   20.1075 C.3     1  UNL1        0.0540
     27 N          -1.5909  -16.0577   21.5266 N.ar    1  UNL1       -0.1760
     28 N          -2.8685  -16.2785   22.2809 N.ar    1  UNL1       -0.2631
     29 H          -3.3781  -15.5922   22.7694 H       1  UNL1        0.1903
     30 C          -9.0332  -20.0123   19.2628 C.1     1  UNL1        0.1029
     31 N         -10.1818  -20.4185   18.3878 N.1     1  UNL1       -0.1907
@<TRIPOS>BOND
     1    19    20    1
     2    20    13    1
     3    13    14   ar
     4    14    15   ar
     5    15    16   ar
     6    16    12    1
     7    12    11    1
     8    11    10    1
     9    10     8    1
    10     8     1    1
    11     1     2   ar
    12     2     3   ar
    13     3    21    1
    14    21    23    1
    15    23    24   ar
    16    24    25   ar
    17    25    26    1
    18    25    27   ar
    19    27    28   ar
    20     3     4   ar
    21     4     5   ar
    22     5     6    1
    23     5     7   ar
    24     7    30    1
    25    30    31    3
    26    16    17   ar
    27    17    18   ar
    28    18    13   ar
    29     7     1   ar
    30    28    23   ar
    31     8     9    1
    32    21    22    1
    33    28    29    1
@<TRIPOS>MOLECULE
*****
 31 33 0 0 0
SMALL
GASTEIGER

@<TRIPOS>ATOM
      1 C          -8.3627  -17.0013   24.0914 C.ar    1  UNL1        0.1393
      2 N          -7.8275  -17.7152   22.8857 N.ar    1  UNL1       -0.2155
      3 C          -6.3602  -17.6707   22.5776 C.ar    1  UNL1        0.1343
      4 C          -5.4280  -16.9123   23.4752 C.ar    1  UNL1        0.0310
      5 C          -5.9632  -16.1984   24.6811 C.ar    1  UNL1       -0.0067
      6 C          -5.0310  -15.4400   25.5788 C.3     1  UNL1        0.0319
      7 C          -7.4305  -16.2429   24.9892 C.ar    1  UNL1        0.0959
      8 N          -9.8300  -17.0458   24.3995 N.pl3   1  UNL1       -0.3145
      9 H         -10.3699  -16.2244   24.3436 H       1  UNL1        0.1483
     10 C         -10.4749  -18.3418   24.7928 C.3     1  UNL1        0.1362
     11 C         -11.9409  -18.5525   24.5554 C.3     1  UNL1        0.2266
     12 O         -12.4921  -18.4860   23.1619 O.3     1  UNL1       -0.4720
     13 C          -9.8510  -19.4518   19.6489 C.ar    1  UNL1        0.0592
     14 C         -10.7651  -18.2637   19.5957 C.ar    1  UNL1        0.0179
     15 C         -11.6455  -17.9418   20.7668 C.ar    1  UNL1        0.0397
     16 C         -11.6118  -18.8079   21.9909 C.ar    1  UNL1        0.1577
     17 C         -10.6977  -19.9960   22.0440 C.ar    1  UNL1        0.1352
     18 N          -9.8173  -20.3180   20.8730 N.ar    1  UNL1       -0.2450
     19 C          -9.0421  -21.1274   17.8356 C.3     1  UNL1        0.0067
     20 C          -8.9707  -19.7738   18.4778 C.3     1  UNL1        0.0458
     21 N          -5.8250  -18.3846   21.3717 N.pl3   1  UNL1       -0.2837
     22 H          -6.4286  -18.6182   20.6298 H       1  UNL1        0.1550
     23 C          -4.3704  -18.7426   21.2963 C.ar    1  UNL1        0.1276
     24 C          -3.3625  -18.1438   20.3606 C.ar    1  UNL1        0.0503
     25 C          -2.0373  -18.7934   20.6292 C.ar    1  UNL1        0.0815
     26 C          -0.7494  -18.4950   19.9206 C.3     1  UNL1        0.0540
     27 N          -2.2263  -19.7936   21.7310 N.ar    1  UNL1       -0.1760
     28 N          -3.6682  -19.7622   22.1432 N.ar    1  UNL1       -0.2631
     29 H          -4.0812  -20.3140   22.8462 H       1  UNL1        0.1903
     30 C          -7.9657  -15.5290   26.1950 C.1     1  UNL1        0.1029
     31 N          -8.5008  -14.8151   27.4007 N.1     1  UNL1       -0.1907
@<TRIPOS>BOND
     1    19    20    1
     2    20    13    1
     3    13    14   ar
     4    14    15   ar
     5    15    16   ar
     6    16    12    1
     7    12    11    1
     8    11    10    1
     9    10     8    1
    10     8     1    1
    11     1     2   ar
    12     2     3   ar
    13     3    21    1
    14    21    23    1
    15    23    24   ar
    16    24    25   ar
    17    25    26    1
    18    25    27   ar
    19    27    28   ar
    20     3     4   ar
    21     4     5   ar
    22     5     6    1
    23     5     7   ar
    24     7    30    1
    25    30    31    3
    26    16    17   ar
    27    17    18   ar
    28    18    13   ar
    29     7     1   ar
    30    28    23   ar
    31     8     9    1
    32    21    22    1
    33    28    29    1
