@<TRIPOS>MOLECULE
*****
 41 45 0 0 0
SMALL
GASTEIGER

@<TRIPOS>ATOM
      1 C           3.8948   -1.3420   27.3671 C.3     1  UNL1        0.0942
      2 C           2.6051   -0.8127   27.9207 C.3     1  UNL1        0.1129
      3 N           2.5889   -0.1160   29.2489 N.am    1  UNL1       -0.2779
      4 C           1.2992    0.4133   29.8025 C.2     1  UNL1        0.2252
      5 O           1.2830    1.1101   31.1308 O.2     1  UNL1       -0.2749
      6 C           3.8625    0.0515   30.0236 C.3     1  UNL1        0.0936
      7 C           5.1522   -0.4777   29.4700 C.3     1  UNL1        0.0246
      8 C           5.1684   -1.1745   28.1418 C.3     1  UNL1        0.0374
      9 N           3.9342   -1.9335   23.4430 N.am    1  UNL1       -0.2485
     10 C           3.9180   -1.2368   24.7713 C.2     1  UNL1        0.3059
     11 O           3.9086    0.2620   24.8320 O.2     1  UNL1       -0.2524
     12 N           3.9111   -2.0388   26.0388 N.am    1  UNL1       -0.2885
     13 H           3.9404   -2.9172   23.4032 H       1  UNL1        0.1583
     14 H           3.9173   -3.0225   25.9990 H       1  UNL1        0.1510
     15 C           3.3484   -0.2724   19.9842 C.ar    1  UNL1        0.0803
     16 S           2.9690   -1.2670   21.0411 S.2     1  UNL1       -0.0488
     17 C           3.9411   -1.1315   22.1754 C.ar    1  UNL1        0.1664
     18 N           4.9212   -0.0532   21.8196 N.ar    1  UNL1       -0.2282
     19 C           4.5549    0.4777   20.4654 C.ar    1  UNL1        0.0701
     20 C           5.2697    1.5675   19.7227 C.3     1  UNL1        0.0528
     21 C           1.2932    0.5853   18.6462 C.3     1  UNL1        0.0779
     22 C           2.6448   -0.0646   18.6759 C.2     1  UNL1        0.1807
     23 O           3.2926   -0.5065   17.3974 O.2     1  UNL1       -0.2908
     24 C           0.0257    0.2458   29.0279 C.3     1  UNL1        0.0767
     25 C          -0.9324    0.7340   27.9820 C.3     1  UNL1        0.0096
     26 C          -1.2220   -0.5324   28.7320 C.3     1  UNL1        0.0096
     27 C           6.4581   -1.7038   27.5882 C.3     1  UNL1        0.0738
     28 N           6.9817   -1.1863   26.2812 N.3     1  UNL1       -0.2726
     29 C           7.0886    0.2917   26.0485 C.3     1  UNL1        0.0721
     30 C           7.6123    0.8091   24.7415 C.3     1  UNL1        0.0174
     31 C           8.0290   -0.1514   23.6674 C.3     1  UNL1        0.0031
     32 C           7.9221   -1.6294   23.9002 C.3     1  UNL1        0.0204
     33 C           7.3984   -2.1468   25.2071 C.3     1  UNL1        0.0724
     34 C           8.3388   -2.5899   22.8260 C.3     1  UNL1        0.0277
     35 C           7.5104   -2.7310   21.5835 C.ar    1  UNL1       -0.0220
     36 C           6.4332   -3.7726   21.5145 C.ar    1  UNL1       -0.0020
     37 C           5.6048   -3.9137   20.2719 C.ar    1  UNL1        0.0293
     38 C           5.8537   -3.0131   19.0984 C.ar    1  UNL1        0.1401
     39 F           5.0253   -3.1542   17.8559 F       1  UNL1       -0.2042
     40 C           6.9308   -1.9716   19.1674 C.ar    1  UNL1        0.0293
     41 C           7.7592   -1.8305   20.4100 C.ar    1  UNL1       -0.0020
@<TRIPOS>BOND
     1    21    22    1
     2    22    23    2
     3    22    15    1
     4    15    16   ar
     5    16    17   ar
     6    17     9    1
     7     9    10   am
     8    10    11    2
     9    10    12   am
    10     1    12    1
    11     1     2    1
    12     2     3    1
    13     3     4   am
    14     4     5    2
    15     4    24    1
    16    24    25    1
    17    25    26    1
    18     3     6    1
    19     6     7    1
    20     7     8    1
    21     8    27    1
    22    27    28    1
    23    28    29    1
    24    29    30    1
    25    30    31    1
    26    31    32    1
    27    32    34    1
    28    34    35    1
    29    35    36   ar
    30    36    37   ar
    31    37    38   ar
    32    38    39    1
    33    38    40   ar
    34    40    41   ar
    35    32    33    1
    36    17    18   ar
    37    18    19   ar
    38    19    20    1
    39    19    15   ar
    40     8     1    1
    41    33    28    1
    42    26    24    1
    43    41    35   ar
    44     9    13    1
    45    12    14    1
@<TRIPOS>MOLECULE
*****
 41 45 0 0 0
SMALL
GASTEIGER

@<TRIPOS>ATOM
      1 C           3.7746   -1.0354   27.2325 C.3     1  UNL1        0.0942
      2 C           2.4961   -0.5704   27.8643 C.3     1  UNL1        0.1129
      3 N           2.5180    0.0595   29.2254 N.am    1  UNL1       -0.2779
      4 C           1.2395    0.5245   29.8573 C.2     1  UNL1        0.2252
      5 O           1.2614    1.1544   31.2185 O.2     1  UNL1       -0.2749
      6 C           3.8184    0.2245   29.9547 C.3     1  UNL1        0.0936
      7 C           5.0969   -0.2405   29.3228 C.3     1  UNL1        0.0246
      8 C           5.0750   -0.8704   27.9617 C.3     1  UNL1        0.0374
      9 N           3.5420   -1.4413   23.2915 N.am    1  UNL1       -0.2485
     10 C           3.5638   -0.8114   24.6526 C.2     1  UNL1        0.3059
     11 O           3.3968    0.6725   24.7951 O.2     1  UNL1       -0.2524
     12 N           3.7527   -1.6653   25.8713 N.am    1  UNL1       -0.2885
     13 H           3.6516   -2.4152   23.1980 H       1  UNL1        0.1583
     14 H           3.8623   -2.6392   25.7778 H       1  UNL1        0.1510
     15 C           2.3186    0.6608   20.2666 C.ar    1  UNL1        0.0803
     16 S           2.0385   -0.1921   21.4683 S.2     1  UNL1       -0.0488
     17 C           3.3531   -0.5874   22.0728 C.ar    1  UNL1        0.1664
     18 N           4.4457    0.0212   21.2447 N.ar    1  UNL1       -0.2282
     19 C           3.8064    0.7926   20.1284 C.ar    1  UNL1        0.0701
     20 C           4.5281    1.5609   19.0612 C.3     1  UNL1        0.0528
     21 C           0.6443    2.5750   19.7350 C.3     1  UNL1        0.0779
     22 C           1.2912    1.2741   19.3619 C.2     1  UNL1        0.1807
     23 O           0.9109    0.5866   18.0843 O.2     1  UNL1       -0.2908
     24 C          -0.0609    0.3595   29.1281 C.3     1  UNL1        0.0767
     25 C          -1.1445    0.9272   28.2601 C.3     1  UNL1        0.0096
     26 C          -1.2294   -0.4938   28.7330 C.3     1  UNL1        0.0096
     27 C           6.3535   -1.3354   27.3298 C.3     1  UNL1        0.0738
     28 N           6.5393   -2.7851   26.9923 N.3     1  UNL1       -0.2726
     29 C           6.1978   -3.8401   28.0025 C.3     1  UNL1        0.0721
     30 C           6.3837   -5.2897   27.6650 C.3     1  UNL1        0.0174
     31 C           6.9111   -5.6844   26.3173 C.3     1  UNL1        0.0031
     32 C           7.2525   -4.6294   25.3072 C.3     1  UNL1        0.0204
     33 C           7.0667   -3.1798   25.6447 C.3     1  UNL1        0.0724
     34 C           7.7799   -5.0241   23.9595 C.3     1  UNL1        0.0277
     35 C           7.3142   -4.3009   22.7307 C.ar    1  UNL1       -0.0220
     36 C           8.3101   -3.6254   21.8352 C.ar    1  UNL1       -0.0020
     37 C           7.8444   -2.9022   20.6064 C.ar    1  UNL1        0.0293
     38 C           6.3826   -2.8544   20.2730 C.ar    1  UNL1        0.1401
     39 F           5.9168   -2.1312   19.0442 F       1  UNL1       -0.2042
     40 C           5.3867   -3.5299   21.1685 C.ar    1  UNL1        0.0293
     41 C           5.8525   -4.2531   22.3973 C.ar    1  UNL1       -0.0020
@<TRIPOS>BOND
     1    21    22    1
     2    22    23    2
     3    22    15    1
     4    15    16   ar
     5    16    17   ar
     6    17     9    1
     7     9    10   am
     8    10    11    2
     9    10    12   am
    10     1    12    1
    11     1     2    1
    12     2     3    1
    13     3     4   am
    14     4     5    2
    15     4    24    1
    16    24    25    1
    17    25    26    1
    18     3     6    1
    19     6     7    1
    20     7     8    1
    21     8    27    1
    22    27    28    1
    23    28    29    1
    24    29    30    1
    25    30    31    1
    26    31    32    1
    27    32    34    1
    28    34    35    1
    29    35    36   ar
    30    36    37   ar
    31    37    38   ar
    32    38    39    1
    33    38    40   ar
    34    40    41   ar
    35    32    33    1
    36    17    18   ar
    37    18    19   ar
    38    19    20    1
    39    19    15   ar
    40     8     1    1
    41    33    28    1
    42    26    24    1
    43    41    35   ar
    44     9    13    1
    45    12    14    1
@<TRIPOS>MOLECULE
*****
 41 45 0 0 0
SMALL
GASTEIGER

@<TRIPOS>ATOM
      1 C           7.1902   -2.3208   25.0693 C.3     1  UNL1        0.0942
      2 C           7.3122   -3.8110   25.1892 C.3     1  UNL1        0.1129
      3 N           7.8154   -4.6180   24.0292 N.am    1  UNL1       -0.2779
      4 C           7.9374   -6.1083   24.1490 C.2     1  UNL1        0.2252
      5 O           8.4406   -6.9152   22.9890 O.2     1  UNL1       -0.2749
      6 C           8.1966   -3.9347   22.7494 C.3     1  UNL1        0.0936
      7 C           8.0747   -2.4445   22.6296 C.3     1  UNL1        0.0246
      8 C           7.5714   -1.6376   23.7896 C.3     1  UNL1        0.0374
      9 N           4.7372   -0.3159   27.4596 N.am    1  UNL1       -0.2485
     10 C           5.2405   -1.1229   26.2997 C.2     1  UNL1        0.3059
     11 O           4.2973   -1.5391   25.2101 O.2     1  UNL1       -0.2524
     12 N           6.6870   -1.5138   26.2293 N.am    1  UNL1       -0.2885
     13 H           5.3563   -0.0428   28.1748 H       1  UNL1        0.1583
     14 H           7.3060   -1.2407   26.9445 H       1  UNL1        0.1510
     15 C           1.0071    0.3425   28.3073 C.ar    1  UNL1        0.0803
     16 S           2.3472   -0.2357   28.6539 S.2     1  UNL1       -0.0488
     17 C           3.2908    0.0750   27.5300 C.ar    1  UNL1        0.1664
     18 N           2.5339    0.8451   26.4888 N.ar    1  UNL1       -0.2282
     19 C           1.1226    1.0105   26.9692 C.ar    1  UNL1        0.0701
     20 C           0.0202    1.7194   26.2396 C.3     1  UNL1        0.0528
     21 C          -1.3693   -0.6170   28.7335 C.3     1  UNL1        0.0779
     22 C          -0.2309    0.2661   29.1507 C.2     1  UNL1        0.1807
     23 O          -0.3305    1.0727   30.4114 O.2     1  UNL1       -0.2908
     24 C           7.5562   -6.7915   25.4287 C.3     1  UNL1        0.0767
     25 C           7.4424   -8.0415   26.2500 C.3     1  UNL1        0.0096
     26 C           7.0097   -6.7249   26.8240 C.3     1  UNL1        0.0096
     27 C           7.4494   -0.1473   23.6698 C.3     1  UNL1        0.0738
     28 N           6.2084    0.4589   23.0846 N.3     1  UNL1       -0.2726
     29 C           5.4941    1.5573   23.8151 C.3     1  UNL1        0.0721
     30 C           4.2531    2.1635   23.2299 C.3     1  UNL1        0.0174
     31 C           3.7265    1.6715   21.9143 C.3     1  UNL1        0.0031
     32 C           4.4409    0.5732   21.1840 C.3     1  UNL1        0.0204
     33 C           5.6818   -0.0330   21.7691 C.3     1  UNL1        0.0724
     34 C           3.9143    0.0812   19.8684 C.3     1  UNL1        0.0277
     35 C           4.1459   -1.3413   19.4526 C.ar    1  UNL1       -0.0220
     36 C           3.1669   -2.4070   19.8476 C.ar    1  UNL1       -0.0020
     37 C           3.3985   -3.8295   19.4318 C.ar    1  UNL1        0.0293
     38 C           4.6090   -4.1863   18.6210 C.ar    1  UNL1        0.1401
     39 F           4.8406   -5.6088   18.2052 F       1  UNL1       -0.2042
     40 C           5.5879   -3.1206   18.2260 C.ar    1  UNL1        0.0293
     41 C           5.3563   -1.6981   18.6418 C.ar    1  UNL1       -0.0020
@<TRIPOS>BOND
     1    21    22    1
     2    22    23    2
     3    22    15    1
     4    15    16   ar
     5    16    17   ar
     6    17     9    1
     7     9    10   am
     8    10    11    2
     9    10    12   am
    10     1    12    1
    11     1     2    1
    12     2     3    1
    13     3     4   am
    14     4     5    2
    15     4    24    1
    16    24    25    1
    17    25    26    1
    18     3     6    1
    19     6     7    1
    20     7     8    1
    21     8    27    1
    22    27    28    1
    23    28    29    1
    24    29    30    1
    25    30    31    1
    26    31    32    1
    27    32    34    1
    28    34    35    1
    29    35    36   ar
    30    36    37   ar
    31    37    38   ar
    32    38    39    1
    33    38    40   ar
    34    40    41   ar
    35    32    33    1
    36    17    18   ar
    37    18    19   ar
    38    19    20    1
    39    19    15   ar
    40     8     1    1
    41    33    28    1
    42    26    24    1
    43    41    35   ar
    44     9    13    1
    45    12    14    1
@<TRIPOS>MOLECULE
*****
 41 45 0 0 0
SMALL
GASTEIGER

@<TRIPOS>ATOM
      1 C          -2.2452    4.4292   19.1847 C.3     1  UNL1        0.0942
      2 C          -3.6409    4.3853   19.7322 C.3     1  UNL1        0.1129
      3 N          -4.7937    4.0774   18.8233 N.am    1  UNL1       -0.2779
      4 C          -6.1896    4.0334   19.3708 C.2     1  UNL1        0.2252
      5 O          -7.3424    3.7255   18.4619 O.2     1  UNL1       -0.2749
      6 C          -4.5508    3.8134   17.3668 C.3     1  UNL1        0.0936
      7 C          -3.1550    3.8574   16.8193 C.3     1  UNL1        0.0246
      8 C          -2.0022    4.1653   17.7282 C.3     1  UNL1        0.0374
      9 N           0.4796    4.0515   22.0454 N.am    1  UNL1       -0.2485
     10 C          -0.6733    3.7437   21.1365 C.2     1  UNL1        0.3059
     11 O          -1.4072    2.4423   21.2703 O.2     1  UNL1       -0.2524
     12 N          -1.0923    4.7372   20.0936 N.am    1  UNL1       -0.2885
     13 H           0.9612    4.9057   21.9575 H       1  UNL1        0.1583
     14 H          -0.6106    5.5913   20.0058 H       1  UNL1        0.1510
     15 C           1.1361    1.8954   25.2054 C.ar    1  UNL1        0.0803
     16 S           0.4859    3.0665   24.5303 S.2     1  UNL1       -0.0488
     17 C           0.8985    3.0581   23.0882 C.ar    1  UNL1        0.1664
     18 N           1.8037    1.8817   22.8720 N.ar    1  UNL1       -0.2282
     19 C           1.9505    1.1631   24.1805 C.ar    1  UNL1        0.0701
     20 C           2.7683   -0.0711   24.4217 C.3     1  UNL1        0.0528
     21 C          -0.3374    1.0977   27.1909 C.3     1  UNL1        0.0779
     22 C           0.9963    1.5221   26.6514 C.2     1  UNL1        0.1807
     23 O           2.1902    1.5733   27.5580 O.2     1  UNL1       -0.2908
     24 C          -6.4326    4.2974   20.8273 C.3     1  UNL1        0.0767
     25 C          -7.0867    5.1037   21.9099 C.3     1  UNL1        0.0096
     26 C          -6.1993    3.9483   22.2673 C.3     1  UNL1        0.0096
     27 C          -0.6063    4.2092   17.1807 C.3     1  UNL1        0.0738
     28 N           0.5082    3.5218   17.9123 N.3     1  UNL1       -0.2726
     29 C           1.7457    4.2849   18.2818 C.3     1  UNL1        0.0721
     30 C           2.8603    3.5975   19.0134 C.3     1  UNL1        0.0174
     31 C           2.7374    2.1470   19.3755 C.3     1  UNL1        0.0031
     32 C           1.4999    1.3840   19.0060 C.3     1  UNL1        0.0204
     33 C           0.3854    2.0714   18.2744 C.3     1  UNL1        0.0724
     34 C           1.3771   -0.0665   19.3680 C.3     1  UNL1        0.0277
     35 C           2.6096   -0.8845   19.6166 C.ar    1  UNL1       -0.0220
     36 C           2.9528   -1.3190   21.0108 C.ar    1  UNL1       -0.0020
     37 C           4.1853   -2.1369   21.2594 C.ar    1  UNL1        0.0293
     38 C           5.0746   -2.5204   20.1138 C.ar    1  UNL1        0.1401
     39 F           6.3072   -3.3384   20.3624 F       1  UNL1       -0.2042
     40 C           4.7314   -2.0859   18.7198 C.ar    1  UNL1        0.0293
     41 C           3.4989   -1.2679   18.4712 C.ar    1  UNL1       -0.0020
@<TRIPOS>BOND
     1    21    22    1
     2    22    23    2
     3    22    15    1
     4    15    16   ar
     5    16    17   ar
     6    17     9    1
     7     9    10   am
     8    10    11    2
     9    10    12   am
    10     1    12    1
    11     1     2    1
    12     2     3    1
    13     3     4   am
    14     4     5    2
    15     4    24    1
    16    24    25    1
    17    25    26    1
    18     3     6    1
    19     6     7    1
    20     7     8    1
    21     8    27    1
    22    27    28    1
    23    28    29    1
    24    29    30    1
    25    30    31    1
    26    31    32    1
    27    32    34    1
    28    34    35    1
    29    35    36   ar
    30    36    37   ar
    31    37    38   ar
    32    38    39    1
    33    38    40   ar
    34    40    41   ar
    35    32    33    1
    36    17    18   ar
    37    18    19   ar
    38    19    20    1
    39    19    15   ar
    40     8     1    1
    41    33    28    1
    42    26    24    1
    43    41    35   ar
    44     9    13    1
    45    12    14    1
@<TRIPOS>MOLECULE
*****
 41 45 0 0 0
SMALL
GASTEIGER

@<TRIPOS>ATOM
      1 C           6.9417   -2.5130   25.1544 C.3     1  UNL1        0.0942
      2 C           7.0973   -3.6662   26.1010 C.3     1  UNL1        0.1129
      3 N           7.5353   -5.0052   25.5861 N.am    1  UNL1       -0.2779
      4 C           7.6910   -6.1584   26.5326 C.2     1  UNL1        0.2252
      5 O           8.1289   -7.4975   26.0177 O.2     1  UNL1       -0.2749
      6 C           7.8177   -5.1910   24.1247 C.3     1  UNL1        0.0936
      7 C           7.6620   -4.0379   23.1781 C.3     1  UNL1        0.0246
      8 C           7.2241   -2.6989   23.6930 C.3     1  UNL1        0.0374
      9 N           4.6207    0.4097   26.5038 N.am    1  UNL1       -0.2485
     10 C           5.0587   -0.9293   25.9889 C.2     1  UNL1        0.3059
     11 O           4.0517   -2.0239   25.7937 O.2     1  UNL1       -0.2524
     12 N           6.5037   -1.1739   25.6693 N.am    1  UNL1       -0.2885
     13 H           5.2816    1.1280   26.6319 H       1  UNL1        0.1583
     14 H           7.1646   -0.4556   25.7974 H       1  UNL1        0.1510
     15 C           1.0381    0.6802   27.9728 C.ar    1  UNL1        0.0803
     16 S           2.4656    0.2310   28.0751 S.2     1  UNL1       -0.0488
     17 C           3.1757    0.6543   26.8234 C.ar    1  UNL1        0.1664
     18 N           2.1869    1.3650   25.9475 N.ar    1  UNL1       -0.2282
     19 C           0.8659    1.3810   26.6578 C.ar    1  UNL1        0.0701
     20 C          -0.4044    1.9909   26.1435 C.3     1  UNL1        0.0528
     21 C          -1.1615   -0.4784   28.7272 C.3     1  UNL1        0.0779
     22 C          -0.0296    0.4661   29.0043 C.2     1  UNL1        0.1807
     23 O           0.0345    1.1964   30.3128 O.2     1  UNL1       -0.2908
     24 C           7.4086   -5.9726   27.9940 C.3     1  UNL1        0.0767
     25 C           7.7862   -6.1949   29.4286 C.3     1  UNL1        0.0096
     26 C           6.5419   -5.4284   29.0907 C.3     1  UNL1        0.0096
     27 C           7.0684   -1.5456   22.7465 C.3     1  UNL1        0.0738
     28 N           6.5187   -1.7743   21.3697 N.3     1  UNL1       -0.2726
     29 C           7.4525   -1.9557   20.2099 C.3     1  UNL1        0.0721
     30 C           6.9028   -2.1844   18.8331 C.3     1  UNL1        0.0174
     31 C           5.4192   -2.2317   18.6162 C.3     1  UNL1        0.0031
     32 C           4.4855   -2.0503   19.7760 C.3     1  UNL1        0.0204
     33 C           5.0352   -1.8217   21.1528 C.3     1  UNL1        0.0724
     34 C           3.0020   -2.0977   19.5591 C.3     1  UNL1        0.0277
     35 C           2.2135   -0.8237   19.4871 C.ar    1  UNL1       -0.0220
     36 C           2.6306    0.2641   18.5421 C.ar    1  UNL1       -0.0020
     37 C           1.8422    1.5381   18.4700 C.ar    1  UNL1        0.0293
     38 C           0.6366    1.7244   19.3430 C.ar    1  UNL1        0.1401
     39 F          -0.1518    2.9985   19.2710 F       1  UNL1       -0.2042
     40 C           0.2196    0.6367   20.2880 C.ar    1  UNL1        0.0293
     41 C           1.0081   -0.6373   20.3600 C.ar    1  UNL1       -0.0020
@<TRIPOS>BOND
     1    21    22    1
     2    22    23    2
     3    22    15    1
     4    15    16   ar
     5    16    17   ar
     6    17     9    1
     7     9    10   am
     8    10    11    2
     9    10    12   am
    10     1    12    1
    11     1     2    1
    12     2     3    1
    13     3     4   am
    14     4     5    2
    15     4    24    1
    16    24    25    1
    17    25    26    1
    18     3     6    1
    19     6     7    1
    20     7     8    1
    21     8    27    1
    22    27    28    1
    23    28    29    1
    24    29    30    1
    25    30    31    1
    26    31    32    1
    27    32    34    1
    28    34    35    1
    29    35    36   ar
    30    36    37   ar
    31    37    38   ar
    32    38    39    1
    33    38    40   ar
    34    40    41   ar
    35    32    33    1
    36    17    18   ar
    37    18    19   ar
    38    19    20    1
    39    19    15   ar
    40     8     1    1
    41    33    28    1
    42    26    24    1
    43    41    35   ar
    44     9    13    1
    45    12    14    1
@<TRIPOS>MOLECULE
*****
 41 45 0 0 0
SMALL
GASTEIGER

@<TRIPOS>ATOM
      1 C           6.5615   -2.7190   26.8167 C.3     1  UNL1        0.0942
      2 C           6.9551   -3.7004   27.8805 C.3     1  UNL1        0.1129
      3 N           7.2857   -5.1158   27.5098 N.am    1  UNL1       -0.2779
      4 C           7.6794   -6.0974   28.5737 C.2     1  UNL1        0.2252
      5 O           8.0099   -7.5127   28.2030 O.2     1  UNL1       -0.2749
      6 C           7.2226   -5.5497   26.0753 C.3     1  UNL1        0.0936
      7 C           6.8290   -4.5682   25.0115 C.3     1  UNL1        0.0246
      8 C           6.4985   -3.1529   25.3822 C.3     1  UNL1        0.0374
      9 N           4.5289    0.4550   28.0594 N.am    1  UNL1       -0.2485
     10 C           4.8595   -0.9603   27.6888 C.2     1  UNL1        0.3059
     11 O           3.8187   -2.0326   27.8195 O.2     1  UNL1       -0.2524
     12 N           6.2309   -1.3035   27.1874 N.am    1  UNL1       -0.2885
     13 H           5.2120    1.1587   27.9736 H       1  UNL1        0.1583
     14 H           6.9141   -0.5998   27.1015 H       1  UNL1        0.1510
     15 C           0.7499    1.0764   28.6907 C.ar    1  UNL1        0.0803
     16 S           1.8706    0.5955   27.8173 S.2     1  UNL1       -0.0488
     17 C           3.1575    0.7982   28.5608 C.ar    1  UNL1        0.1664
     18 N           2.8321    1.4043   29.8938 N.ar    1  UNL1       -0.2282
     19 C           1.3442    1.5763   29.9741 C.ar    1  UNL1        0.0701
     20 C           0.5840    2.1477   31.1341 C.3     1  UNL1        0.0528
     21 C          -1.6058    0.0041   28.9168 C.3     1  UNL1        0.0779
     22 C          -0.7089    1.0602   28.3420 C.2     1  UNL1        0.1807
     23 O          -1.2709    2.1000   27.4186 O.2     1  UNL1       -0.2908
     24 C           7.7424   -5.6635   30.0081 C.3     1  UNL1        0.0767
     25 C           8.5442   -5.2417   31.2036 C.3     1  UNL1        0.0096
     26 C           7.0499   -5.3338   31.2972 C.3     1  UNL1        0.0096
     27 C           6.1048   -2.1713   24.3184 C.3     1  UNL1        0.0738
     28 N           6.1347   -2.5778   22.8748 N.3     1  UNL1       -0.2726
     29 C           7.4270   -3.0006   22.2413 C.3     1  UNL1        0.0721
     30 C           7.4568   -3.4071   20.7977 C.3     1  UNL1        0.0174
     31 C           6.1944   -3.3907   19.9877 C.3     1  UNL1        0.0031
     32 C           4.9022   -2.9678   20.6212 C.3     1  UNL1        0.0204
     33 C           4.8724   -2.5614   22.0648 C.3     1  UNL1        0.0724
     34 C           3.6398   -2.9515   19.8111 C.3     1  UNL1        0.0277
     35 C           3.0061   -1.6446   19.4364 C.ar    1  UNL1       -0.0220
     36 C           1.8288   -1.1322   20.2122 C.ar    1  UNL1       -0.0020
     37 C           1.1951    0.1747   19.8375 C.ar    1  UNL1        0.0293
     38 C           1.7385    0.9692   18.6870 C.ar    1  UNL1        0.1401
     39 F           1.1048    2.2761   18.3124 F       1  UNL1       -0.2042
     40 C           2.9157    0.4568   17.9114 C.ar    1  UNL1        0.0293
     41 C           3.5494   -0.8501   18.2860 C.ar    1  UNL1       -0.0020
@<TRIPOS>BOND
     1    21    22    1
     2    22    23    2
     3    22    15    1
     4    15    16   ar
     5    16    17   ar
     6    17     9    1
     7     9    10   am
     8    10    11    2
     9    10    12   am
    10     1    12    1
    11     1     2    1
    12     2     3    1
    13     3     4   am
    14     4     5    2
    15     4    24    1
    16    24    25    1
    17    25    26    1
    18     3     6    1
    19     6     7    1
    20     7     8    1
    21     8    27    1
    22    27    28    1
    23    28    29    1
    24    29    30    1
    25    30    31    1
    26    31    32    1
    27    32    34    1
    28    34    35    1
    29    35    36   ar
    30    36    37   ar
    31    37    38   ar
    32    38    39    1
    33    38    40   ar
    34    40    41   ar
    35    32    33    1
    36    17    18   ar
    37    18    19   ar
    38    19    20    1
    39    19    15   ar
    40     8     1    1
    41    33    28    1
    42    26    24    1
    43    41    35   ar
    44     9    13    1
    45    12    14    1
@<TRIPOS>MOLECULE
*****
 41 45 0 0 0
SMALL
GASTEIGER

@<TRIPOS>ATOM
      1 C           3.2581   -0.5372   22.8183 C.3     1  UNL1        0.0942
      2 C           3.4895   -1.3892   21.6057 C.3     1  UNL1        0.1129
      3 N           3.7079   -0.7465   20.2681 N.am    1  UNL1       -0.2779
      4 C           3.9393   -1.5986   19.0554 C.2     1  UNL1        0.2252
      5 O           4.1577   -0.9559   17.7178 O.2     1  UNL1       -0.2749
      6 C           3.6949    0.7482   20.1431 C.3     1  UNL1        0.0936
      7 C           3.4635    1.6002   21.3556 C.3     1  UNL1        0.0246
      8 C           3.2451    0.9576   22.6932 C.3     1  UNL1        0.0374
      9 N           3.9675   -1.9728   26.4495 N.am    1  UNL1       -0.2485
     10 C           4.1858   -1.3301   25.1119 C.2     1  UNL1        0.3059
     11 O           5.5504   -0.8378   24.7301 O.2     1  UNL1       -0.2524
     12 N           3.0397   -1.1798   24.1560 N.am    1  UNL1       -0.2885
     13 H           3.0719   -2.2959   26.7001 H       1  UNL1        0.1583
     14 H           2.1441   -1.5029   24.4065 H       1  UNL1        0.1510
     15 C           6.6162   -1.7788   29.2801 C.ar    1  UNL1        0.0803
     16 S           5.3647   -1.2801   28.6204 S.2     1  UNL1       -0.0488
     17 C           5.1136   -2.1231   27.4054 C.ar    1  UNL1        0.1664
     18 N           6.2099   -3.1428   27.3142 N.ar    1  UNL1       -0.2282
     19 C           7.1385   -2.9301   28.4728 C.ar    1  UNL1        0.0701
     20 C           8.3728   -3.7284   28.7716 C.3     1  UNL1        0.0528
     21 C           6.6697   -1.5810   31.8700 C.3     1  UNL1        0.0779
     22 C           7.2364   -1.2237   30.5280 C.2     1  UNL1        0.1807
     23 O           8.4232   -0.3114   30.4338 O.2     1  UNL1       -0.2908
     24 C           3.9523   -3.0933   19.1804 C.3     1  UNL1        0.0767
     25 C           3.2139   -4.3961   19.2668 C.3     1  UNL1        0.0096
     26 C           4.7132   -4.3794   19.3105 C.3     1  UNL1        0.0096
     27 C           3.0137    1.8096   23.9059 C.3     1  UNL1        0.0738
     28 N           1.6211    2.0130   24.4250 N.3     1  UNL1       -0.2726
     29 C           0.6458    2.8477   23.6490 C.3     1  UNL1        0.0721
     30 C          -0.7467    3.0510   24.1681 C.3     1  UNL1        0.0174
     31 C          -1.1640    2.4196   25.4632 C.3     1  UNL1        0.0031
     32 C          -0.1887    1.5849   26.2392 C.3     1  UNL1        0.0204
     33 C           1.2038    1.3816   25.7201 C.3     1  UNL1        0.0724
     34 C          -0.6060    0.9535   27.5343 C.3     1  UNL1        0.0277
     35 C           0.3450    0.9218   28.6939 C.ar    1  UNL1       -0.0220
     36 C           0.4863    2.1231   29.5811 C.ar    1  UNL1       -0.0020
     37 C           1.4373    2.0913   30.7406 C.ar    1  UNL1        0.0293
     38 C           2.2470    0.8583   31.0130 C.ar    1  UNL1        0.1401
     39 F           3.1980    0.8266   32.1726 F       1  UNL1       -0.2042
     40 C           2.1057   -0.3429   30.1258 C.ar    1  UNL1        0.0293
     41 C           1.1547   -0.3112   28.9663 C.ar    1  UNL1       -0.0020
@<TRIPOS>BOND
     1    21    22    1
     2    22    23    2
     3    22    15    1
     4    15    16   ar
     5    16    17   ar
     6    17     9    1
     7     9    10   am
     8    10    11    2
     9    10    12   am
    10     1    12    1
    11     1     2    1
    12     2     3    1
    13     3     4   am
    14     4     5    2
    15     4    24    1
    16    24    25    1
    17    25    26    1
    18     3     6    1
    19     6     7    1
    20     7     8    1
    21     8    27    1
    22    27    28    1
    23    28    29    1
    24    29    30    1
    25    30    31    1
    26    31    32    1
    27    32    34    1
    28    34    35    1
    29    35    36   ar
    30    36    37   ar
    31    37    38   ar
    32    38    39    1
    33    38    40   ar
    34    40    41   ar
    35    32    33    1
    36    17    18   ar
    37    18    19   ar
    38    19    20    1
    39    19    15   ar
    40     8     1    1
    41    33    28    1
    42    26    24    1
    43    41    35   ar
    44     9    13    1
    45    12    14    1
@<TRIPOS>MOLECULE
*****
 41 45 0 0 0
SMALL
GASTEIGER

@<TRIPOS>ATOM
      1 C          -0.4020    3.9197   21.7854 C.3     1  UNL1        0.0942
      2 C          -1.8831    3.7771   21.9747 C.3     1  UNL1        0.1129
      3 N          -2.7767    3.5894   20.7847 N.am    1  UNL1       -0.2779
      4 C          -4.2579    3.4468   20.9739 C.2     1  UNL1        0.2252
      5 O          -5.1514    3.2591   19.7838 O.2     1  UNL1       -0.2749
      6 C          -2.1891    3.5444   19.4053 C.3     1  UNL1        0.0936
      7 C          -0.7080    3.6871   19.2160 C.3     1  UNL1        0.0246
      8 C           0.1856    3.8747   20.4060 C.3     1  UNL1        0.0374
      9 N           1.6674    3.1407   25.0810 N.am    1  UNL1       -0.2485
     10 C           0.7739    2.9531   23.8909 C.2     1  UNL1        0.3059
     11 O           0.1625    1.6111   23.6161 O.2     1  UNL1       -0.2524
     12 N           0.4916    4.1074   22.9755 N.am    1  UNL1       -0.2885
     13 H           2.0687    4.0215   25.2613 H       1  UNL1        0.1583
     14 H           0.8928    4.9882   23.1558 H       1  UNL1        0.1510
     15 C           1.8788    0.4733   27.8927 C.ar    1  UNL1        0.0803
     16 S           1.2980    1.7338   27.3235 S.2     1  UNL1       -0.0488
     17 C           1.9497    1.9864   25.9963 C.ar    1  UNL1        0.1664
     18 N           2.9332    0.8820   25.7452 N.ar    1  UNL1       -0.2282
     19 C           2.8894   -0.0531   26.9172 C.ar    1  UNL1        0.0701
     20 C           3.7118   -1.2964   27.0844 C.3     1  UNL1        0.0528
     21 C           2.5825   -0.4692   30.2092 C.3     1  UNL1        0.0779
     22 C           1.5131   -0.1511   29.2066 C.2     1  UNL1        0.1807
     23 O           0.0782   -0.4574   29.5179 O.2     1  UNL1       -0.2908
     24 C          -4.8455    3.4918   22.3533 C.3     1  UNL1        0.0767
     25 C          -4.8078    3.0807   23.7954 C.3     1  UNL1        0.0096
     26 C          -5.9009    3.9808   23.3004 C.3     1  UNL1        0.0096
     27 C           1.6668    4.0174   20.2168 C.3     1  UNL1        0.0738
     28 N           2.4663    2.8733   19.6675 N.3     1  UNL1       -0.2726
     29 C           3.6127    3.1378   18.7370 C.3     1  UNL1        0.0721
     30 C           4.4122    1.9937   18.1877 C.3     1  UNL1        0.0174
     31 C           4.0653    0.5850   18.5689 C.3     1  UNL1        0.0031
     32 C           2.9190    0.3205   19.4994 C.3     1  UNL1        0.0204
     33 C           2.1195    1.4646   20.0487 C.3     1  UNL1        0.0724
     34 C           2.5721   -1.0882   19.8807 C.3     1  UNL1        0.0277
     35 C           3.3411   -1.7827   20.9653 C.ar    1  UNL1       -0.0220
     36 C           3.3512   -1.2199   22.3557 C.ar    1  UNL1       -0.0020
     37 C           4.1202   -1.9143   23.4403 C.ar    1  UNL1        0.0293
     38 C           4.8791   -3.1715   23.1345 C.ar    1  UNL1        0.1401
     39 F           5.6481   -3.8659   24.2191 F       1  UNL1       -0.2042
     40 C           4.8690   -3.7343   21.7442 C.ar    1  UNL1        0.0293
     41 C           4.1000   -3.0398   20.6595 C.ar    1  UNL1       -0.0020
@<TRIPOS>BOND
     1    21    22    1
     2    22    23    2
     3    22    15    1
     4    15    16   ar
     5    16    17   ar
     6    17     9    1
     7     9    10   am
     8    10    11    2
     9    10    12   am
    10     1    12    1
    11     1     2    1
    12     2     3    1
    13     3     4   am
    14     4     5    2
    15     4    24    1
    16    24    25    1
    17    25    26    1
    18     3     6    1
    19     6     7    1
    20     7     8    1
    21     8    27    1
    22    27    28    1
    23    28    29    1
    24    29    30    1
    25    30    31    1
    26    31    32    1
    27    32    34    1
    28    34    35    1
    29    35    36   ar
    30    36    37   ar
    31    37    38   ar
    32    38    39    1
    33    38    40   ar
    34    40    41   ar
    35    32    33    1
    36    17    18   ar
    37    18    19   ar
    38    19    20    1
    39    19    15   ar
    40     8     1    1
    41    33    28    1
    42    26    24    1
    43    41    35   ar
    44     9    13    1
    45    12    14    1
@<TRIPOS>MOLECULE
*****
 41 45 0 0 0
SMALL
GASTEIGER

@<TRIPOS>ATOM
      1 C           1.0776    2.4488   21.4832 C.3     1  UNL1        0.0942
      2 C           2.0019    1.2719   21.3802 C.3     1  UNL1        0.1129
      3 N           2.1535    0.5493   20.0745 N.am    1  UNL1       -0.2779
      4 C           3.0779   -0.6276   19.9715 C.2     1  UNL1        0.2252
      5 O           3.2294   -1.3501   18.6658 O.2     1  UNL1       -0.2749
      6 C           1.3807    1.0036   18.8718 C.3     1  UNL1        0.0936
      7 C           0.4564    2.1804   18.9748 C.3     1  UNL1        0.0246
      8 C           0.3049    2.9030   20.2805 C.3     1  UNL1        0.0374
      9 N           0.5451    3.1192   25.3584 N.am    1  UNL1       -0.2485
     10 C           0.6967    2.3966   24.0527 C.2     1  UNL1        0.3059
     11 O           0.6190    0.8991   24.0107 O.2     1  UNL1       -0.2524
     12 N           0.9260    3.1714   22.7889 N.am    1  UNL1       -0.2885
     13 H           0.5961    4.1020   25.3859 H       1  UNL1        0.1583
     14 H           0.9770    4.1542   22.8165 H       1  UNL1        0.1510
     15 C           0.6564    1.3218   28.7968 C.ar    1  UNL1        0.0803
     16 S           1.3030    2.1636   27.7370 S.2     1  UNL1       -0.0488
     17 C           0.3158    2.3444   26.6222 C.ar    1  UNL1        0.1664
     18 N          -0.9409    1.6143   26.9930 N.ar    1  UNL1       -0.2282
     19 C          -0.7305    0.9823   28.3370 C.ar    1  UNL1        0.0701
     20 C          -1.7312    0.1559   29.0891 C.3     1  UNL1        0.0528
     21 C           1.3508    1.8500   31.2440 C.3     1  UNL1        0.0779
     22 C           1.2860    0.8946   30.0895 C.2     1  UNL1        0.1807
     23 O           1.8508   -0.4881   30.2276 O.2     1  UNL1       -0.2908
     24 C           3.8506   -1.0818   21.1742 C.3     1  UNL1        0.0767
     25 C           3.9038   -1.8065   22.4864 C.3     1  UNL1        0.0096
     26 C           5.1359   -1.1439   21.9450 C.3     1  UNL1        0.0096
     27 C          -0.6195    4.0799   20.3835 C.3     1  UNL1        0.0738
     28 N          -2.1013    3.8643   20.4712 N.3     1  UNL1       -0.2726
     29 C          -2.9607    4.0592   19.2572 C.3     1  UNL1        0.0721
     30 C          -4.4425    3.8436   19.3448 C.3     1  UNL1        0.0174
     31 C          -5.0650    3.4330   20.6464 C.3     1  UNL1        0.0031
     32 C          -4.2057    3.2381   21.8602 C.3     1  UNL1        0.0204
     33 C          -2.7238    3.4537   21.7726 C.3     1  UNL1        0.0724
     34 C          -4.8282    2.8275   23.1618 C.3     1  UNL1        0.0277
     35 C          -4.7344    3.7306   24.3559 C.ar    1  UNL1       -0.0220
     36 C          -3.5722    3.6115   25.2968 C.ar    1  UNL1       -0.0020
     37 C          -3.4784    4.5145   26.4909 C.ar    1  UNL1        0.0293
     38 C          -4.5468    5.5366   26.7440 C.ar    1  UNL1        0.1401
     39 F          -4.4530    6.4397   27.9380 F       1  UNL1       -0.2042
     40 C          -5.7089    5.6557   25.8030 C.ar    1  UNL1        0.0293
     41 C          -5.8026    4.7527   24.6090 C.ar    1  UNL1       -0.0020
@<TRIPOS>BOND
     1    21    22    1
     2    22    23    2
     3    22    15    1
     4    15    16   ar
     5    16    17   ar
     6    17     9    1
     7     9    10   am
     8    10    11    2
     9    10    12   am
    10     1    12    1
    11     1     2    1
    12     2     3    1
    13     3     4   am
    14     4     5    2
    15     4    24    1
    16    24    25    1
    17    25    26    1
    18     3     6    1
    19     6     7    1
    20     7     8    1
    21     8    27    1
    22    27    28    1
    23    28    29    1
    24    29    30    1
    25    30    31    1
    26    31    32    1
    27    32    34    1
    28    34    35    1
    29    35    36   ar
    30    36    37   ar
    31    37    38   ar
    32    38    39    1
    33    38    40   ar
    34    40    41   ar
    35    32    33    1
    36    17    18   ar
    37    18    19   ar
    38    19    20    1
    39    19    15   ar
    40     8     1    1
    41    33    28    1
    42    26    24    1
    43    41    35   ar
    44     9    13    1
    45    12    14    1
