@<TRIPOS>MOLECULE
*****
 34 38 0 0 0
SMALL
GASTEIGER

@<TRIPOS>ATOM
      1 C           7.9320   -1.7599   23.3362 C.2     1  UNL1        0.2488
      2 O           9.1627   -1.7708   24.1935 O.2     1  UNL1       -0.2728
      3 N           7.8790   -0.8960   22.1111 N.am    1  UNL1       -0.2779
      4 C           9.0568   -0.0430   21.7433 C.3     1  UNL1        0.0935
      5 C           9.0038    0.8209   20.5182 C.3     1  UNL1        0.0219
      6 C           7.7730    0.8318   19.6609 C.3     1  UNL1        0.0078
      7 C           6.5952   -0.0211   20.0286 C.3     1  UNL1        0.0419
      8 C           6.6482   -0.8851   21.2537 C.3     1  UNL1        0.0953
      9 C           5.3645   -0.0102   19.1712 C.ar    1  UNL1       -0.0209
     10 C           5.3519   -0.7521   17.8677 C.ar    1  UNL1       -0.0042
     11 C           4.1211   -0.7412   17.0103 C.ar    1  UNL1       -0.0003
     12 C           2.9029    0.0117   17.4565 C.ar    1  UNL1       -0.0000
     13 C           2.9154    0.7536   18.7602 C.ar    1  UNL1       -0.0003
     14 C           4.1462    0.7427   19.6175 C.ar    1  UNL1       -0.0042
     15 C           6.7541   -2.6129   23.7040 C.3     1  UNL1        0.1943
     16 C           8.3160   -8.5268   26.8401 C.3     1  UNL1        0.0307
     17 C           7.8771   -7.1580   26.4114 C.ar    1  UNL1       -0.0242
     18 C           7.2447   -6.2281   27.4039 C.ar    1  UNL1        0.0160
     19 C           6.8058   -4.8593   26.9751 C.ar    1  UNL1        0.0970
     20 N           6.1733   -3.9293   27.9677 N.ar    1  UNL1       -0.2374
     21 C           5.7345   -2.5605   27.5390 C.ar    1  UNL1        0.1595
     22 C           5.9281   -2.1217   26.1177 C.ar    1  UNL1        0.2806
     23 O           5.4892   -0.7529   25.6890 O.2     1  UNL1       -0.2652
     24 N           6.5605   -3.0517   25.1252 N.ar    1  UNL1       -0.2839
     25 C           6.9994   -4.4205   25.5539 C.ar    1  UNL1        0.0803
     26 C           7.6319   -5.3504   24.5614 C.ar    1  UNL1        0.0142
     27 C           8.0707   -6.7192   24.9902 C.ar    1  UNL1       -0.0243
     28 C           8.7032   -7.6492   23.9976 C.3     1  UNL1        0.0307
     29 C           5.4704   -1.7380   21.6215 C.3     1  UNL1        0.0924
     30 N           4.9507   -2.7575   20.6516 N.3     1  UNL1       -0.2713
     31 C           3.5318   -2.8850   20.1823 C.3     1  UNL1        0.0722
     32 C           3.4628   -4.0348   19.2215 C.3     1  UNL1        0.0188
     33 C           4.8392   -4.6180   19.0970 C.3     1  UNL1        0.0188
     34 C           5.7588   -3.8286   19.9809 C.3     1  UNL1        0.0722
@<TRIPOS>BOND
     1    16    17    1
     2    17    18   ar
     3    18    19   ar
     4    19    20   ar
     5    20    21   ar
     6    21    22   ar
     7    22    23    2
     8    22    24   ar
     9    24    15    1
    10    15     1    1
    11     1     2    2
    12     1     3   am
    13     3     4    1
    14     4     5    1
    15     5     6    1
    16     6     7    1
    17     7     9    1
    18     9    10   ar
    19    10    11   ar
    20    11    12   ar
    21    12    13   ar
    22    13    14   ar
    23     7     8    1
    24     8    29    1
    25    29    30    1
    26    30    31    1
    27    31    32    1
    28    32    33    1
    29    33    34    1
    30    24    25   ar
    31    25    26   ar
    32    26    27   ar
    33    27    28    1
    34    27    17   ar
    35    25    19   ar
    36     8     3    1
    37    34    30    1
    38    14     9   ar
@<TRIPOS>MOLECULE
*****
 34 38 0 0 0
SMALL
GASTEIGER

@<TRIPOS>ATOM
      1 C           7.0899   -1.6976   23.6914 C.2     1  UNL1        0.2488
      2 O           7.2572   -0.5683   22.7183 O.2     1  UNL1       -0.2728
      3 N           7.8493   -1.6918   24.9848 N.am    1  UNL1       -0.2779
      4 C           8.7762   -0.5568   25.3054 C.3     1  UNL1        0.0935
      5 C           9.5357   -0.5510   26.5988 C.3     1  UNL1        0.0219
      6 C           9.3683   -1.6803   27.5719 C.3     1  UNL1        0.0078
      7 C           8.4415   -2.8153   27.2514 C.3     1  UNL1        0.0419
      8 C           7.6820   -2.8211   25.9579 C.3     1  UNL1        0.0953
      9 C           8.2742   -3.9445   28.2244 C.ar    1  UNL1       -0.0209
     10 C           7.0340   -4.0341   29.0634 C.ar    1  UNL1       -0.0042
     11 C           6.8666   -5.1634   30.0364 C.ar    1  UNL1       -0.0003
     12 C           7.9395   -6.2031   30.1705 C.ar    1  UNL1       -0.0000
     13 C           9.1797   -6.1135   29.3315 C.ar    1  UNL1       -0.0003
     14 C           9.3471   -4.9843   28.3585 C.ar    1  UNL1       -0.0042
     15 C           6.1630   -2.8326   23.3709 C.3     1  UNL1        0.1943
     16 C           0.6981    0.3121   20.6330 C.3     1  UNL1        0.0307
     17 C           1.9113   -0.5006   20.9761 C.ar    1  UNL1       -0.0242
     18 C           2.5125   -1.4191   19.9539 C.ar    1  UNL1        0.0160
     19 C           3.7257   -2.2317   20.2971 C.ar    1  UNL1        0.0970
     20 N           4.3269   -3.1502   19.2748 N.ar    1  UNL1       -0.2374
     21 C           5.5401   -3.9629   19.6179 C.ar    1  UNL1        0.1595
     22 C           6.1521   -3.8570   20.9834 C.ar    1  UNL1        0.2806
     23 O           7.3653   -4.6696   21.3265 O.2     1  UNL1       -0.2652
     24 N           5.5509   -2.9385   22.0055 N.ar    1  UNL1       -0.2839
     25 C           4.3377   -2.1258   21.6624 C.ar    1  UNL1        0.0803
     26 C           3.7366   -1.2074   22.6846 C.ar    1  UNL1        0.0142
     27 C           2.5233   -0.3947   22.3414 C.ar    1  UNL1       -0.0243
     28 C           1.9222    0.5238   23.3637 C.3     1  UNL1        0.0307
     29 C           6.7552   -3.9561   25.6374 C.3     1  UNL1        0.0924
     30 N           7.2984   -5.3447   25.4739 N.3     1  UNL1       -0.2713
     31 C           6.8604   -6.5585   26.2386 C.3     1  UNL1        0.0722
     32 C           7.6662   -7.7273   25.7542 C.3     1  UNL1        0.0188
     33 C           8.6023   -7.2358   24.6902 C.3     1  UNL1        0.0188
     34 C           8.3750   -5.7633   24.5170 C.3     1  UNL1        0.0722
@<TRIPOS>BOND
     1    16    17    1
     2    17    18   ar
     3    18    19   ar
     4    19    20   ar
     5    20    21   ar
     6    21    22   ar
     7    22    23    2
     8    22    24   ar
     9    24    15    1
    10    15     1    1
    11     1     2    2
    12     1     3   am
    13     3     4    1
    14     4     5    1
    15     5     6    1
    16     6     7    1
    17     7     9    1
    18     9    10   ar
    19    10    11   ar
    20    11    12   ar
    21    12    13   ar
    22    13    14   ar
    23     7     8    1
    24     8    29    1
    25    29    30    1
    26    30    31    1
    27    31    32    1
    28    32    33    1
    29    33    34    1
    30    24    25   ar
    31    25    26   ar
    32    26    27   ar
    33    27    28    1
    34    27    17   ar
    35    25    19   ar
    36     8     3    1
    37    34    30    1
    38    14     9   ar
@<TRIPOS>MOLECULE
*****
 34 38 0 0 0
SMALL
GASTEIGER

@<TRIPOS>ATOM
      1 C           7.2832   -1.6062   23.1291 C.2     1  UNL1        0.2488
      2 O           8.6411   -1.5406   23.7631 O.2     1  UNL1       -0.2728
      3 N           6.6317   -0.3546   22.6203 N.am    1  UNL1       -0.2779
      4 C           7.3381    0.9628   22.7455 C.3     1  UNL1        0.0935
      5 C           6.6867    2.2145   22.2368 C.3     1  UNL1        0.0219
      6 C           5.3288    2.1488   21.6028 C.3     1  UNL1        0.0078
      7 C           4.6224    0.8315   21.4776 C.3     1  UNL1        0.0419
      8 C           5.2739   -0.4202   21.9864 C.3     1  UNL1        0.0953
      9 C           3.2646    0.7659   20.8436 C.ar    1  UNL1       -0.0209
     10 C           2.0425    0.6218   21.7014 C.ar    1  UNL1       -0.0042
     11 C           0.6847    0.5562   21.0674 C.ar    1  UNL1       -0.0003
     12 C           0.5488    0.6346   19.5757 C.ar    1  UNL1       -0.0000
     13 C           1.7709    0.7787   18.7178 C.ar    1  UNL1       -0.0003
     14 C           3.1288    0.8443   19.3518 C.ar    1  UNL1       -0.0042
     15 C           6.5768   -2.9236   23.0039 C.3     1  UNL1        0.1943
     16 C           7.9228   -8.2374   27.1515 C.3     1  UNL1        0.0307
     17 C           7.7833   -7.2225   26.0558 C.ar    1  UNL1       -0.0242
     18 C           8.4322   -7.4619   24.7248 C.ar    1  UNL1        0.0160
     19 C           8.2927   -6.4470   23.6291 C.ar    1  UNL1        0.0970
     20 N           8.9416   -6.6865   22.2980 N.ar    1  UNL1       -0.2374
     21 C           8.8022   -5.6716   21.2023 C.ar    1  UNL1        0.1595
     22 C           8.0139   -4.4173   21.4376 C.ar    1  UNL1        0.2806
     23 O           7.8745   -3.4024   20.3419 O.2     1  UNL1       -0.2652
     24 N           7.3651   -4.1779   22.7686 N.ar    1  UNL1       -0.2839
     25 C           7.5045   -5.1928   23.8644 C.ar    1  UNL1        0.0803
     26 C           6.8557   -4.9533   25.1954 C.ar    1  UNL1        0.0142
     27 C           6.9951   -5.9682   26.2911 C.ar    1  UNL1       -0.0243
     28 C           6.3462   -5.7287   27.6222 C.3     1  UNL1        0.0307
     29 C           4.5675   -1.7375   21.8612 C.3     1  UNL1        0.0924
     30 N           4.6442   -2.5107   20.5781 N.3     1  UNL1       -0.2713
     31 C           4.1946   -3.9271   20.3740 C.3     1  UNL1        0.0722
     32 C           4.4565   -4.2951   18.9437 C.3     1  UNL1        0.0188
     33 C           5.0681   -3.1061   18.2637 C.3     1  UNL1        0.0188
     34 C           5.1841   -2.0033   19.2739 C.3     1  UNL1        0.0722
@<TRIPOS>BOND
     1    16    17    1
     2    17    18   ar
     3    18    19   ar
     4    19    20   ar
     5    20    21   ar
     6    21    22   ar
     7    22    23    2
     8    22    24   ar
     9    24    15    1
    10    15     1    1
    11     1     2    2
    12     1     3   am
    13     3     4    1
    14     4     5    1
    15     5     6    1
    16     6     7    1
    17     7     9    1
    18     9    10   ar
    19    10    11   ar
    20    11    12   ar
    21    12    13   ar
    22    13    14   ar
    23     7     8    1
    24     8    29    1
    25    29    30    1
    26    30    31    1
    27    31    32    1
    28    32    33    1
    29    33    34    1
    30    24    25   ar
    31    25    26   ar
    32    26    27   ar
    33    27    28    1
    34    27    17   ar
    35    25    19   ar
    36     8     3    1
    37    34    30    1
    38    14     9   ar
@<TRIPOS>MOLECULE
*****
 34 38 0 0 0
SMALL
GASTEIGER

@<TRIPOS>ATOM
      1 C           4.4388    1.3390   25.0922 C.2     1  UNL1        0.2488
      2 O           5.1795    1.6700   23.8306 O.2     1  UNL1       -0.2728
      3 N           4.3468    2.3512   26.1954 N.am    1  UNL1       -0.2779
      4 C           4.9956    3.6944   26.0369 C.3     1  UNL1        0.0935
      5 C           4.9036    4.7066   27.1401 C.3     1  UNL1        0.0219
      6 C           4.1629    4.3756   28.4018 C.3     1  UNL1        0.0078
      7 C           3.5142    3.0325   28.5603 C.3     1  UNL1        0.0419
      8 C           3.6061    2.0203   27.4571 C.3     1  UNL1        0.0953
      9 C           2.7735    2.7016   29.8220 C.ar    1  UNL1       -0.0209
     10 C           3.3947    1.7913   30.8395 C.ar    1  UNL1       -0.0042
     11 C           2.6540    1.4603   32.1012 C.ar    1  UNL1       -0.0003
     12 C           1.2921    2.0397   32.3453 C.ar    1  UNL1       -0.0000
     13 C           0.6708    2.9500   31.3277 C.ar    1  UNL1       -0.0003
     14 C           1.4115    3.2810   30.0661 C.ar    1  UNL1       -0.0042
     15 C           3.7901   -0.0041   25.2507 C.3     1  UNL1        0.1943
     16 C           3.6451   -3.4868   19.3262 C.3     1  UNL1        0.0307
     17 C           3.8633   -2.9261   20.7002 C.ar    1  UNL1       -0.0242
     18 C           4.8093   -3.6049   21.6459 C.ar    1  UNL1        0.0160
     19 C           5.0275   -3.0442   23.0199 C.ar    1  UNL1        0.0970
     20 N           5.9735   -3.7231   23.9655 N.ar    1  UNL1       -0.2374
     21 C           6.1917   -3.1624   25.3395 C.ar    1  UNL1        0.1595
     22 C           5.4638   -1.9227   25.7679 C.ar    1  UNL1        0.2806
     23 O           5.6820   -1.3619   27.1420 O.2     1  UNL1       -0.2652
     24 N           4.5179   -1.2438   24.8223 N.ar    1  UNL1       -0.2839
     25 C           4.2997   -1.8045   23.4483 C.ar    1  UNL1        0.0803
     26 C           3.3537   -1.1257   22.5027 C.ar    1  UNL1        0.0142
     27 C           3.1355   -1.6864   21.1287 C.ar    1  UNL1       -0.0243
     28 C           2.1895   -1.0075   20.1830 C.3     1  UNL1        0.0307
     29 C           2.9574    0.6772   27.6156 C.3     1  UNL1        0.0924
     30 N           1.4875    0.5830   27.8995 N.3     1  UNL1       -0.2713
     31 C           0.4007    1.3210   27.1755 C.3     1  UNL1        0.0722
     32 C          -0.9122    0.9284   27.7857 C.3     1  UNL1        0.0188
     33 C          -0.6367   -0.0522   28.8868 C.3     1  UNL1        0.0188
     34 C           0.8464   -0.2657   28.9571 C.3     1  UNL1        0.0722
@<TRIPOS>BOND
     1    16    17    1
     2    17    18   ar
     3    18    19   ar
     4    19    20   ar
     5    20    21   ar
     6    21    22   ar
     7    22    23    2
     8    22    24   ar
     9    24    15    1
    10    15     1    1
    11     1     2    2
    12     1     3   am
    13     3     4    1
    14     4     5    1
    15     5     6    1
    16     6     7    1
    17     7     9    1
    18     9    10   ar
    19    10    11   ar
    20    11    12   ar
    21    12    13   ar
    22    13    14   ar
    23     7     8    1
    24     8    29    1
    25    29    30    1
    26    30    31    1
    27    31    32    1
    28    32    33    1
    29    33    34    1
    30    24    25   ar
    31    25    26   ar
    32    26    27   ar
    33    27    28    1
    34    27    17   ar
    35    25    19   ar
    36     8     3    1
    37    34    30    1
    38    14     9   ar
@<TRIPOS>MOLECULE
*****
 34 38 0 0 0
SMALL
GASTEIGER

@<TRIPOS>ATOM
      1 C           0.4578    3.4997   20.6291 C.2     1  UNL1        0.2488
      2 O           1.9488    3.6475   20.5574 O.2     1  UNL1       -0.2728
      3 N          -0.4224    4.3433   19.7553 N.am    1  UNL1       -0.2779
      4 C           0.1883    5.3348   18.8098 C.3     1  UNL1        0.0935
      5 C          -0.6919    6.1784   17.9361 C.3     1  UNL1        0.0219
      6 C          -2.1829    6.0306   18.0078 C.3     1  UNL1        0.0078
      7 C          -2.7936    5.0391   18.9532 C.3     1  UNL1        0.0419
      8 C          -1.9134    4.1954   19.8270 C.3     1  UNL1        0.0953
      9 C          -4.2846    4.8913   19.0249 C.ar    1  UNL1       -0.0209
     10 C          -5.1133    5.9566   19.6793 C.ar    1  UNL1       -0.0042
     11 C          -6.6043    5.8088   19.7510 C.ar    1  UNL1       -0.0003
     12 C          -7.2665    4.5956   19.1683 C.ar    1  UNL1       -0.0000
     13 C          -6.4378    3.5302   18.5139 C.ar    1  UNL1       -0.0003
     14 C          -4.9468    3.6780   18.4422 C.ar    1  UNL1       -0.0042
     15 C          -0.1530    2.5081   21.5746 C.3     1  UNL1        0.1943
     16 C           4.3539   -2.6252   22.3410 C.3     1  UNL1        0.0307
     17 C           3.4193   -1.4570   22.4502 C.ar    1  UNL1       -0.0242
     18 C           3.2530   -0.7496   23.7623 C.ar    1  UNL1        0.0160
     19 C           2.3184    0.4185   23.8715 C.ar    1  UNL1        0.0970
     20 N           2.1522    1.1260   25.1838 N.ar    1  UNL1       -0.2374
     21 C           1.2175    2.2941   25.2929 C.ar    1  UNL1        0.1595
     22 C           0.4491    2.7548   24.0898 C.ar    1  UNL1        0.2806
     23 O          -0.4855    3.9230   24.1990 O.2     1  UNL1       -0.2652
     24 N           0.6154    2.0474   22.7776 N.ar    1  UNL1       -0.2839
     25 C           1.5500    0.8793   22.6685 C.ar    1  UNL1        0.0803
     26 C           1.7163    0.1718   21.3563 C.ar    1  UNL1        0.0142
     27 C           2.6509   -0.9963   21.2471 C.ar    1  UNL1       -0.0243
     28 C           2.8171   -1.7037   19.9349 C.3     1  UNL1        0.0307
     29 C          -2.5242    3.2040   20.7725 C.3     1  UNL1        0.0924
     30 N          -3.5184    3.6604   21.7987 N.3     1  UNL1       -0.2713
     31 C          -3.3723    4.8508   22.6996 C.3     1  UNL1        0.0722
     32 C          -4.5969    4.9326   23.5619 C.3     1  UNL1        0.0188
     33 C          -5.5000    3.7928   23.1939 C.3     1  UNL1        0.0188
     34 C          -4.8334    3.0066   22.1042 C.3     1  UNL1        0.0722
@<TRIPOS>BOND
     1    16    17    1
     2    17    18   ar
     3    18    19   ar
     4    19    20   ar
     5    20    21   ar
     6    21    22   ar
     7    22    23    2
     8    22    24   ar
     9    24    15    1
    10    15     1    1
    11     1     2    2
    12     1     3   am
    13     3     4    1
    14     4     5    1
    15     5     6    1
    16     6     7    1
    17     7     9    1
    18     9    10   ar
    19    10    11   ar
    20    11    12   ar
    21    12    13   ar
    22    13    14   ar
    23     7     8    1
    24     8    29    1
    25    29    30    1
    26    30    31    1
    27    31    32    1
    28    32    33    1
    29    33    34    1
    30    24    25   ar
    31    25    26   ar
    32    26    27   ar
    33    27    28    1
    34    27    17   ar
    35    25    19   ar
    36     8     3    1
    37    34    30    1
    38    14     9   ar
@<TRIPOS>MOLECULE
*****
 34 38 0 0 0
SMALL
GASTEIGER

@<TRIPOS>ATOM
      1 C           1.4274    1.3215   23.0910 C.2     1  UNL1        0.2488
      2 O           0.1928    1.4630   22.2509 O.2     1  UNL1       -0.2728
      3 N           1.3120    1.2245   24.5834 N.am    1  UNL1       -0.2779
      4 C          -0.0380    1.2690   25.2358 C.3     1  UNL1        0.0935
      5 C          -0.1534    1.1720   26.7281 C.3     1  UNL1        0.0219
      6 C           1.0812    1.0305   27.5682 C.3     1  UNL1        0.0078
      7 C           2.4312    0.9860   26.9159 C.3     1  UNL1        0.0419
      8 C           2.5466    1.0830   25.4235 C.3     1  UNL1        0.0953
      9 C           3.6658    0.8445   27.7560 C.ar    1  UNL1       -0.0209
     10 C           4.5544    2.0302   27.9889 C.ar    1  UNL1       -0.0042
     11 C           5.7890    1.8887   28.8290 C.ar    1  UNL1       -0.0003
     12 C           6.1350    0.5614   29.4362 C.ar    1  UNL1       -0.0000
     13 C           5.2463   -0.6244   29.2033 C.ar    1  UNL1       -0.0003
     14 C           4.0117   -0.4829   28.3632 C.ar    1  UNL1       -0.0042
     15 C           2.7774    1.2770   22.4386 C.3     1  UNL1        0.1943
     16 C           4.6217   -4.3499   18.9478 C.3     1  UNL1        0.0307
     17 C           4.1887   -3.0051   19.4517 C.ar    1  UNL1       -0.0242
     18 C           3.8681   -1.9078   18.4805 C.ar    1  UNL1        0.0160
     19 C           3.4351   -0.5630   18.9845 C.ar    1  UNL1        0.0970
     20 N           3.1145    0.5343   18.0132 N.ar    1  UNL1       -0.2374
     21 C           2.6815    1.8791   18.5171 C.ar    1  UNL1        0.1595
     22 C           2.5692    2.1267   19.9924 C.ar    1  UNL1        0.2806
     23 O           2.1362    3.4715   20.4963 O.2     1  UNL1       -0.2652
     24 N           2.8898    1.0294   20.9635 N.ar    1  UNL1       -0.2839
     25 C           3.3227   -0.3154   20.4596 C.ar    1  UNL1        0.0803
     26 C           3.6434   -1.4127   21.4308 C.ar    1  UNL1        0.0142
     27 C           4.0763   -2.7575   20.9268 C.ar    1  UNL1       -0.0243
     28 C           4.3970   -3.8548   21.8981 C.3     1  UNL1        0.0307
     29 C           3.8966    1.0385   24.7712 C.3     1  UNL1        0.0924
     30 N           4.7980   -0.1399   24.9924 N.3     1  UNL1       -0.2713
     31 C           6.2552   -0.0817   25.3431 C.3     1  UNL1        0.0722
     32 C           6.7583   -1.4892   25.4692 C.3     1  UNL1        0.0188
     33 C           5.6119   -2.4173   25.1965 C.3     1  UNL1        0.0188
     34 C           4.4004   -1.5834   24.9018 C.3     1  UNL1        0.0722
@<TRIPOS>BOND
     1    16    17    1
     2    17    18   ar
     3    18    19   ar
     4    19    20   ar
     5    20    21   ar
     6    21    22   ar
     7    22    23    2
     8    22    24   ar
     9    24    15    1
    10    15     1    1
    11     1     2    2
    12     1     3   am
    13     3     4    1
    14     4     5    1
    15     5     6    1
    16     6     7    1
    17     7     9    1
    18     9    10   ar
    19    10    11   ar
    20    11    12   ar
    21    12    13   ar
    22    13    14   ar
    23     7     8    1
    24     8    29    1
    25    29    30    1
    26    30    31    1
    27    31    32    1
    28    32    33    1
    29    33    34    1
    30    24    25   ar
    31    25    26   ar
    32    26    27   ar
    33    27    28    1
    34    27    17   ar
    35    25    19   ar
    36     8     3    1
    37    34    30    1
    38    14     9   ar
@<TRIPOS>MOLECULE
*****
 34 38 0 0 0
SMALL
GASTEIGER

@<TRIPOS>ATOM
      1 C           8.0887   -4.5385   24.9195 C.2     1  UNL1        0.2488
      2 O           9.2939   -5.0339   25.6626 O.2     1  UNL1       -0.2728
      3 N           8.1688   -4.2876   23.4429 N.am    1  UNL1       -0.2779
      4 C           9.4541   -4.5323   22.7092 C.3     1  UNL1        0.0935
      5 C           9.5342   -4.2814   21.2325 C.3     1  UNL1        0.0219
      6 C           8.3290   -3.7860   20.4894 C.3     1  UNL1        0.0078
      7 C           7.0437   -3.5414   21.2231 C.3     1  UNL1        0.0419
      8 C           6.9636   -3.7922   22.6998 C.3     1  UNL1        0.0953
      9 C           5.8386   -3.0460   20.4800 C.ar    1  UNL1       -0.0209
     10 C           5.7218   -1.5936   20.1237 C.ar    1  UNL1       -0.0042
     11 C           4.5167   -1.0982   19.3806 C.ar    1  UNL1       -0.0003
     12 C           3.4282   -2.0551   18.9939 C.ar    1  UNL1       -0.0000
     13 C           3.5449   -3.5075   19.3503 C.ar    1  UNL1       -0.0003
     14 C           4.7501   -4.0030   20.0933 C.ar    1  UNL1       -0.0042
     15 C           6.8034   -4.2939   25.6533 C.3     1  UNL1        0.1943
     16 C           6.0498    0.7480   30.2643 C.3     1  UNL1        0.0307
     17 C           6.2317   -0.5215   29.4863 C.ar    1  UNL1       -0.0242
     18 C           6.3871   -1.8274   30.2077 C.ar    1  UNL1        0.0160
     19 C           6.5689   -3.0970   29.4298 C.ar    1  UNL1        0.0970
     20 N           6.7244   -4.4029   30.1512 N.ar    1  UNL1       -0.2374
     21 C           6.9062   -5.6725   29.3733 C.ar    1  UNL1        0.1595
     22 C           6.9325   -5.6361   27.8739 C.ar    1  UNL1        0.2806
     23 O           7.1143   -6.9057   27.0960 O.2     1  UNL1       -0.2652
     24 N           6.7771   -4.3302   27.1526 N.ar    1  UNL1       -0.2839
     25 C           6.5953   -3.0607   27.9305 C.ar    1  UNL1        0.0803
     26 C           6.4398   -1.7548   27.2091 C.ar    1  UNL1        0.0142
     27 C           6.2580   -0.4852   27.9871 C.ar    1  UNL1       -0.0243
     28 C           6.1025    0.8207   27.2656 C.3     1  UNL1        0.0307
     29 C           5.6784   -3.5476   23.4335 C.3     1  UNL1        0.0924
     30 N           5.0916   -2.1679   23.4789 N.3     1  UNL1       -0.2713
     31 C           5.8283   -0.9073   23.8224 C.3     1  UNL1        0.0722
     32 C           4.8570    0.2332   23.7446 C.3     1  UNL1        0.0188
     33 C           3.5200   -0.3226   23.3529 C.3     1  UNL1        0.0188
     34 C           3.6649   -1.8065   23.1887 C.3     1  UNL1        0.0722
@<TRIPOS>BOND
     1    16    17    1
     2    17    18   ar
     3    18    19   ar
     4    19    20   ar
     5    20    21   ar
     6    21    22   ar
     7    22    23    2
     8    22    24   ar
     9    24    15    1
    10    15     1    1
    11     1     2    2
    12     1     3   am
    13     3     4    1
    14     4     5    1
    15     5     6    1
    16     6     7    1
    17     7     9    1
    18     9    10   ar
    19    10    11   ar
    20    11    12   ar
    21    12    13   ar
    22    13    14   ar
    23     7     8    1
    24     8    29    1
    25    29    30    1
    26    30    31    1
    27    31    32    1
    28    32    33    1
    29    33    34    1
    30    24    25   ar
    31    25    26   ar
    32    26    27   ar
    33    27    28    1
    34    27    17   ar
    35    25    19   ar
    36     8     3    1
    37    34    30    1
    38    14     9   ar
@<TRIPOS>MOLECULE
*****
 34 38 0 0 0
SMALL
GASTEIGER

@<TRIPOS>ATOM
      1 C           4.7579    1.0307   24.9985 C.2     1  UNL1        0.2488
      2 O           5.3047    1.6753   26.2377 O.2     1  UNL1       -0.2728
      3 N           5.4489    1.2297   23.6822 N.am    1  UNL1       -0.2779
      4 C           6.6867    2.0734   23.6049 C.3     1  UNL1        0.0935
      5 C           7.3777    2.2725   22.2885 C.3     1  UNL1        0.0219
      6 C           6.8309    1.6279   21.0494 C.3     1  UNL1        0.0078
      7 C           5.5931    0.7842   21.1266 C.3     1  UNL1        0.0419
      8 C           4.9020    0.5851   22.4430 C.3     1  UNL1        0.0953
      9 C           5.0463    0.1396   19.8875 C.ar    1  UNL1       -0.0209
     10 C           4.2532    0.9518   18.9071 C.ar    1  UNL1       -0.0042
     11 C           3.7063    0.3072   17.6679 C.ar    1  UNL1       -0.0003
     12 C           3.9526   -1.1496   17.4092 C.ar    1  UNL1       -0.0000
     13 C           4.7458   -1.9619   18.3896 C.ar    1  UNL1       -0.0003
     14 C           5.2926   -1.3173   19.6288 C.ar    1  UNL1       -0.0042
     15 C           3.5200    0.1870   25.0758 C.3     1  UNL1        0.1943
     16 C          -2.4178    3.3420   26.5032 C.3     1  UNL1        0.0307
     17 C          -1.1420    2.5545   26.4580 C.ar    1  UNL1       -0.0242
     18 C          -0.7006    1.7721   27.6592 C.ar    1  UNL1        0.0160
     19 C           0.5753    0.9845   27.6139 C.ar    1  UNL1        0.0970
     20 N           1.0166    0.2020   28.8152 N.ar    1  UNL1       -0.2374
     21 C           2.2925   -0.5855   28.7699 C.ar    1  UNL1        0.1595
     22 C           3.1269   -0.5905   27.5234 C.ar    1  UNL1        0.2806
     23 O           4.4028   -1.3780   27.4782 O.2     1  UNL1       -0.2652
     24 N           2.6856    0.1920   26.3222 N.ar    1  UNL1       -0.2839
     25 C           1.4097    0.9795   26.3675 C.ar    1  UNL1        0.0803
     26 C           0.9683    1.7620   25.1663 C.ar    1  UNL1        0.0142
     27 C          -0.3075    2.5495   25.2116 C.ar    1  UNL1       -0.0243
     28 C          -0.7489    3.3320   24.0103 C.3     1  UNL1        0.0307
     29 C           3.6642   -0.2586   22.5203 C.3     1  UNL1        0.0924
     30 N           2.4439    0.1268   21.7378 N.3     1  UNL1       -0.2713
     31 C           1.7743    1.4690   21.7529 C.3     1  UNL1        0.0722
     32 C           0.5954    1.4094   20.8273 C.3     1  UNL1        0.0188
     33 C           0.5364    0.0304   20.2401 C.3     1  UNL1        0.0188
     34 C           1.6788   -0.7623   20.8028 C.3     1  UNL1        0.0722
@<TRIPOS>BOND
     1    16    17    1
     2    17    18   ar
     3    18    19   ar
     4    19    20   ar
     5    20    21   ar
     6    21    22   ar
     7    22    23    2
     8    22    24   ar
     9    24    15    1
    10    15     1    1
    11     1     2    2
    12     1     3   am
    13     3     4    1
    14     4     5    1
    15     5     6    1
    16     6     7    1
    17     7     9    1
    18     9    10   ar
    19    10    11   ar
    20    11    12   ar
    21    12    13   ar
    22    13    14   ar
    23     7     8    1
    24     8    29    1
    25    29    30    1
    26    30    31    1
    27    31    32    1
    28    32    33    1
    29    33    34    1
    30    24    25   ar
    31    25    26   ar
    32    26    27   ar
    33    27    28    1
    34    27    17   ar
    35    25    19   ar
    36     8     3    1
    37    34    30    1
    38    14     9   ar
@<TRIPOS>MOLECULE
*****
 34 38 0 0 0
SMALL
GASTEIGER

@<TRIPOS>ATOM
      1 C           0.2968    3.5872   19.5103 C.2     1  UNL1        0.2488
      2 O           1.7687    3.7541   19.2750 O.2     1  UNL1       -0.2728
      3 N          -0.6550    4.6748   19.1090 N.am    1  UNL1       -0.2779
      4 C          -0.1349    5.9294   18.4721 C.3     1  UNL1        0.0935
      5 C          -1.0867    7.0170   18.0708 C.3     1  UNL1        0.0219
      6 C          -2.5587    6.8501   18.3061 C.3     1  UNL1        0.0078
      7 C          -3.0788    5.5955   18.9429 C.3     1  UNL1        0.0419
      8 C          -2.1270    4.5079   19.3443 C.3     1  UNL1        0.0953
      9 C          -4.5508    5.4286   19.1783 C.ar    1  UNL1       -0.0209
     10 C          -5.3549    4.5268   18.2895 C.ar    1  UNL1       -0.0042
     11 C          -6.8269    4.3598   18.5248 C.ar    1  UNL1       -0.0003
     12 C          -7.4948    5.0947   19.6490 C.ar    1  UNL1       -0.0000
     13 C          -6.6907    5.9966   20.5379 C.ar    1  UNL1       -0.0003
     14 C          -5.2187    6.1636   20.3025 C.ar    1  UNL1       -0.0042
     15 C          -0.2234    2.3326   20.1471 C.3     1  UNL1        0.1943
     16 C           2.3065    0.7753   26.3459 C.3     1  UNL1        0.0307
     17 C           1.9126    0.8960   24.9036 C.ar    1  UNL1       -0.0242
     18 C           2.4732   -0.0578   23.8907 C.ar    1  UNL1        0.0160
     19 C           2.0794    0.0629   22.4483 C.ar    1  UNL1        0.0970
     20 N           2.6400   -0.8909   21.4354 N.ar    1  UNL1       -0.2374
     21 C           2.2462   -0.7702   19.9931 C.ar    1  UNL1        0.1595
     22 C           1.2917    0.3044   19.5637 C.ar    1  UNL1        0.2806
     23 O           0.8978    0.4251   18.1214 O.2     1  UNL1       -0.2652
     24 N           0.7311    1.2581   20.5766 N.ar    1  UNL1       -0.2839
     25 C           1.1249    1.1374   22.0189 C.ar    1  UNL1        0.0803
     26 C           0.5643    2.0912   23.0318 C.ar    1  UNL1        0.0142
     27 C           0.9582    1.9705   24.4741 C.ar    1  UNL1       -0.0243
     28 C           0.3975    2.9243   25.4870 C.3     1  UNL1        0.0307
     29 C          -2.6472    3.2533   19.9811 C.3     1  UNL1        0.0924
     30 N          -3.3062    3.3131   21.3273 N.3     1  UNL1       -0.2713
     31 C          -2.6814    3.8205   22.5930 C.3     1  UNL1        0.0722
     32 C          -3.6947    3.6970   23.6921 C.3     1  UNL1        0.0188
     33 C          -4.9458    3.1132   23.1056 C.3     1  UNL1        0.0188
     34 C          -4.7057    2.8760   21.6440 C.3     1  UNL1        0.0722
@<TRIPOS>BOND
     1    16    17    1
     2    17    18   ar
     3    18    19   ar
     4    19    20   ar
     5    20    21   ar
     6    21    22   ar
     7    22    23    2
     8    22    24   ar
     9    24    15    1
    10    15     1    1
    11     1     2    2
    12     1     3   am
    13     3     4    1
    14     4     5    1
    15     5     6    1
    16     6     7    1
    17     7     9    1
    18     9    10   ar
    19    10    11   ar
    20    11    12   ar
    21    12    13   ar
    22    13    14   ar
    23     7     8    1
    24     8    29    1
    25    29    30    1
    26    30    31    1
    27    31    32    1
    28    32    33    1
    29    33    34    1
    30    24    25   ar
    31    25    26   ar
    32    26    27   ar
    33    27    28    1
    34    27    17   ar
    35    25    19   ar
    36     8     3    1
    37    34    30    1
    38    14     9   ar
