@<TRIPOS>MOLECULE
*****
 23 26 0 0 0
SMALL
GASTEIGER

@<TRIPOS>ATOM
      1 C          -8.9570  -18.9213   21.5297 C.3     1  UNL1        0.0926
      2 C          -9.6271  -19.5012   20.3195 C.3     1  UNL1        0.0889
      3 N         -10.6750  -18.7121   19.5920 N.3     1  UNL1       -0.2947
      4 C         -11.0528  -17.3431   20.0747 C.3     1  UNL1        0.0903
      5 C         -10.3826  -16.7632   21.2850 C.3     1  UNL1        0.1076
      6 N          -9.3348  -17.5522   22.0124 N.pl3   1  UNL1       -0.3090
      7 H         -11.5265  -19.2735   19.6026 H       1  UNL1        0.1233
      8 C          -8.6646  -16.9723   23.2227 C.2     1  UNL1        0.0295
      9 C          -9.3500  -17.0225   24.5559 C.2     1  UNL1        0.0120
     10 C          -8.6799  -16.4426   25.7661 C.2     1  UNL1        0.0216
     11 C          -7.3242  -15.8125   25.6430 C.2     1  UNL1        0.1008
     12 N          -6.4237  -15.1637   26.6520 N.2     1  UNL1       -0.1482
     13 N          -5.1816  -14.7125   25.9423 N.2     1  UNL1       -0.1467
     14 C          -5.3145  -15.0825   24.4947 C.2     1  UNL1        0.1198
     15 C          -6.6387  -15.7624   24.3098 C.2     1  UNL1        0.0238
     16 C          -7.3089  -16.3423   23.0996 C.3     1  UNL1        0.0705
     17 C          -7.9091  -19.7104   22.2572 C.3     1  UNL1        0.0475
     18 C          -3.7186  -19.9224   20.6309 C.ar    1  UNL1       -0.0000
     19 C          -4.0257  -19.0330   21.7990 C.ar    1  UNL1       -0.0003
     20 C          -5.4225  -18.9623   22.3412 C.ar    1  UNL1       -0.0042
     21 C          -6.5122  -19.7811   21.7151 C.ar    1  UNL1       -0.0205
     22 C          -6.2052  -20.6706   20.5469 C.ar    1  UNL1       -0.0042
     23 C          -4.8084  -20.7412   20.0048 C.ar    1  UNL1       -0.0003
@<TRIPOS>BOND
     1    18    19   ar
     2    19    20   ar
     3    20    21   ar
     4    21    17    1
     5    17     1    1
     6     1     2    1
     7     2     3    1
     8     3     4    1
     9     4     5    1
    10     5     6    1
    11     6     8    1
    12     8     9    2
    13     9    10    1
    14    10    11    2
    15    11    12    1
    16    12    13    2
    17    13    14    1
    18    14    15    2
    19    15    16    1
    20    21    22   ar
    21    22    23   ar
    22    23    18   ar
    23     6     1    1
    24    16     8    1
    25    15    11    1
    26     3     7    1
@<TRIPOS>MOLECULE
*****
 23 26 0 0 0
SMALL
GASTEIGER

@<TRIPOS>ATOM
      1 C          -9.1708  -18.5450   21.6202 C.3     1  UNL1        0.0926
      2 C          -9.9860  -19.0942   20.4871 C.3     1  UNL1        0.0889
      3 N         -10.9825  -18.2186   19.7869 N.3     1  UNL1       -0.2947
      4 C         -11.1638  -16.7939   20.2197 C.3     1  UNL1        0.0903
      5 C         -10.3486  -16.2448   21.3528 C.3     1  UNL1        0.1076
      6 N          -9.3521  -17.1203   22.0530 N.pl3   1  UNL1       -0.3090
      7 H         -11.8909  -18.6729   19.8809 H       1  UNL1        0.1233
      8 C          -8.5369  -16.5712   23.1862 C.2     1  UNL1        0.0295
      9 C          -7.3018  -15.7692   22.9018 C.2     1  UNL1        0.0120
     10 C          -6.4865  -15.2201   24.0349 C.2     1  UNL1        0.0216
     11 C          -6.9066  -15.4731   25.4525 C.2     1  UNL1        0.1008
     12 N          -6.3079  -15.0627   26.7652 N.2     1  UNL1       -0.1482
     13 N          -7.1731  -15.6111   27.8609 N.2     1  UNL1       -0.1467
     14 C          -8.3066  -16.3605   27.2254 C.2     1  UNL1        0.1198
     15 C          -8.1418  -16.2752   25.7369 C.2     1  UNL1        0.0238
     16 C          -8.9570  -16.8242   24.6038 C.3     1  UNL1        0.0705
     17 C          -8.1743  -19.4206   22.3205 C.3     1  UNL1        0.0475
     18 C          -4.0139  -19.8652   20.6642 C.ar    1  UNL1       -0.0000
     19 C          -5.1444  -20.6552   20.0743 C.ar    1  UNL1       -0.0003
     20 C          -6.5312  -20.5070   20.6264 C.ar    1  UNL1       -0.0042
     21 C          -6.7875  -19.5689   21.7683 C.ar    1  UNL1       -0.0205
     22 C          -5.6570  -18.7788   22.3583 C.ar    1  UNL1       -0.0042
     23 C          -4.2702  -18.9270   21.8062 C.ar    1  UNL1       -0.0003
@<TRIPOS>BOND
     1    18    19   ar
     2    19    20   ar
     3    20    21   ar
     4    21    17    1
     5    17     1    1
     6     1     2    1
     7     2     3    1
     8     3     4    1
     9     4     5    1
    10     5     6    1
    11     6     8    1
    12     8     9    2
    13     9    10    1
    14    10    11    2
    15    11    12    1
    16    12    13    2
    17    13    14    1
    18    14    15    2
    19    15    16    1
    20    21    22   ar
    21    22    23   ar
    22    23    18   ar
    23     6     1    1
    24    16     8    1
    25    15    11    1
    26     3     7    1
@<TRIPOS>MOLECULE
*****
 23 26 0 0 0
SMALL
GASTEIGER

@<TRIPOS>ATOM
      1 C          -9.3180  -16.8333   22.5850 C.3     1  UNL1        0.0926
      2 C         -10.7035  -16.4245   22.9892 C.3     1  UNL1        0.0889
      3 N         -11.8609  -17.3444   22.7359 N.3     1  UNL1       -0.2947
      4 C         -11.6328  -18.6732   22.0784 C.3     1  UNL1        0.0903
      5 C         -10.2472  -19.0820   21.6743 C.3     1  UNL1        0.1076
      6 N          -9.0900  -18.1621   21.9276 N.pl3   1  UNL1       -0.3090
      7 H         -12.5194  -16.8340   22.1475 H       1  UNL1        0.1233
      8 C          -7.7044  -18.5709   21.5235 C.2     1  UNL1        0.0295
      9 C          -7.4470  -19.0788   20.1358 C.2     1  UNL1        0.0120
     10 C          -6.0614  -19.4876   19.7317 C.2     1  UNL1        0.0216
     11 C          -4.9334  -19.3885   20.7154 C.2     1  UNL1        0.1008
     12 N          -3.4737  -19.7155   20.6047 N.2     1  UNL1       -0.1482
     13 N          -2.8290  -19.4097   21.9242 N.2     1  UNL1       -0.1467
     14 C          -3.8902  -18.8938   22.8502 C.2     1  UNL1        0.1198
     15 C          -5.1909  -18.8806   22.1031 C.2     1  UNL1        0.0238
     16 C          -6.5764  -18.4719   22.5071 C.3     1  UNL1        0.0705
     17 C          -8.1607  -15.9133   22.8384 C.3     1  UNL1        0.0475
     18 C          -6.5817  -15.3817   27.0185 C.ar    1  UNL1       -0.0000
     19 C          -8.0257  -15.7241   26.8001 C.ar    1  UNL1       -0.0003
     20 C          -8.5520  -15.9013   25.4068 C.ar    1  UNL1       -0.0042
     21 C          -7.6344  -15.7361   24.2318 C.ar    1  UNL1       -0.0205
     22 C          -6.1903  -15.3937   24.4501 C.ar    1  UNL1       -0.0042
     23 C          -5.6640  -15.2165   25.8435 C.ar    1  UNL1       -0.0003
@<TRIPOS>BOND
     1    18    19   ar
     2    19    20   ar
     3    20    21   ar
     4    21    17    1
     5    17     1    1
     6     1     2    1
     7     2     3    1
     8     3     4    1
     9     4     5    1
    10     5     6    1
    11     6     8    1
    12     8     9    2
    13     9    10    1
    14    10    11    2
    15    11    12    1
    16    12    13    2
    17    13    14    1
    18    14    15    2
    19    15    16    1
    20    21    22   ar
    21    22    23   ar
    22    23    18   ar
    23     6     1    1
    24    16     8    1
    25    15    11    1
    26     3     7    1
@<TRIPOS>MOLECULE
*****
 23 26 0 0 0
SMALL
GASTEIGER

@<TRIPOS>ATOM
      1 C          -6.7934  -17.6120   22.7203 C.3     1  UNL1        0.0926
      2 C          -5.3134  -17.8559   22.7142 C.3     1  UNL1        0.0889
      3 N          -4.7729  -19.1768   22.2524 N.3     1  UNL1       -0.2947
      4 C          -5.7123  -20.2537   21.7969 C.3     1  UNL1        0.0903
      5 C          -7.1924  -20.0097   21.8031 C.3     1  UNL1        0.1076
      6 N          -7.7329  -18.6889   22.2647 N.pl3   1  UNL1       -0.3090
      7 H          -4.2365  -19.5632   23.0292 H       1  UNL1        0.1233
      8 C          -9.2130  -18.4450   22.2709 C.2     1  UNL1        0.0295
      9 C          -9.9010  -17.9760   21.0233 C.2     1  UNL1        0.0120
     10 C         -11.3811  -17.7320   21.0295 C.2     1  UNL1        0.0216
     11 C         -12.1730  -17.9571   22.2834 C.2     1  UNL1        0.1008
     12 N         -13.6331  -17.8017   22.5897 N.2     1  UNL1       -0.1482
     13 N         -13.8475  -18.1747   24.0267 N.2     1  UNL1       -0.1467
     14 C         -12.5198  -18.5606   24.6084 C.2     1  UNL1        0.1198
     15 C         -11.4849  -18.4260   23.5310 C.2     1  UNL1        0.0238
     16 C         -10.0049  -18.6700   23.5248 C.3     1  UNL1        0.0705
     17 C          -7.3339  -16.2911   23.1820 C.3     1  UNL1        0.0475
     18 C          -7.0510  -15.1371   27.5223 C.ar    1  UNL1       -0.0000
     19 C          -8.3714  -15.5451   26.9392 C.ar    1  UNL1       -0.0003
     20 C          -8.4658  -15.9297   25.4925 C.ar    1  UNL1       -0.0042
     21 C          -7.2396  -15.9064   24.6288 C.ar    1  UNL1       -0.0205
     22 C          -5.9191  -15.4985   25.2118 C.ar    1  UNL1       -0.0042
     23 C          -5.8248  -15.1138   26.6586 C.ar    1  UNL1       -0.0003
@<TRIPOS>BOND
     1    18    19   ar
     2    19    20   ar
     3    20    21   ar
     4    21    17    1
     5    17     1    1
     6     1     2    1
     7     2     3    1
     8     3     4    1
     9     4     5    1
    10     5     6    1
    11     6     8    1
    12     8     9    2
    13     9    10    1
    14    10    11    2
    15    11    12    1
    16    12    13    2
    17    13    14    1
    18    14    15    2
    19    15    16    1
    20    21    22   ar
    21    22    23   ar
    22    23    18   ar
    23     6     1    1
    24    16     8    1
    25    15    11    1
    26     3     7    1
@<TRIPOS>MOLECULE
*****
 23 26 0 0 0
SMALL
GASTEIGER

@<TRIPOS>ATOM
      1 C          -6.8311  -16.6100   23.4942 C.3     1  UNL1        0.0926
      2 C          -7.8494  -15.8864   24.3245 C.3     1  UNL1        0.0889
      3 N          -7.4214  -15.1376   25.5518 N.3     1  UNL1       -0.2947
      4 C          -5.9751  -15.1125   25.9487 C.3     1  UNL1        0.0903
      5 C          -4.9568  -15.8361   25.1183 C.3     1  UNL1        0.1076
      6 N          -5.3848  -16.5848   23.8911 N.pl3   1  UNL1       -0.3090
      7 H          -7.9350  -15.5396   26.3360 H       1  UNL1        0.1233
      8 C          -4.3665  -17.3085   23.0607 C.2     1  UNL1        0.0295
      9 C          -4.4610  -18.7951   22.8855 C.2     1  UNL1        0.0120
     10 C          -3.4427  -19.5188   22.0551 C.2     1  UNL1        0.0216
     11 C          -2.3300  -18.7556   21.3999 C.2     1  UNL1        0.1008
     12 N          -1.1891  -19.1933   20.5300 N.2     1  UNL1       -0.1482
     13 N          -0.3895  -17.9771   20.1675 N.2     1  UNL1       -0.1467
     14 C          -1.0362  -16.7877   20.8134 C.2     1  UNL1        0.1198
     15 C          -2.2355  -17.2689   21.5750 C.2     1  UNL1        0.0238
     16 C          -3.2538  -16.5453   22.4055 C.3     1  UNL1        0.0705
     17 C          -7.2592  -17.3587   22.2669 C.3     1  UNL1        0.0475
     18 C         -11.1020  -19.7001   22.2855 C.ar    1  UNL1       -0.0000
     19 C         -10.9820  -18.4622   21.4469 C.ar    1  UNL1       -0.0003
     20 C          -9.7011  -17.6817   21.4406 C.ar    1  UNL1       -0.0042
     21 C          -8.5402  -18.1392   22.2731 C.ar    1  UNL1       -0.0205
     22 C          -8.6601  -19.3771   23.1117 C.ar    1  UNL1       -0.0042
     23 C          -9.9410  -20.1575   23.1179 C.ar    1  UNL1       -0.0003
@<TRIPOS>BOND
     1    18    19   ar
     2    19    20   ar
     3    20    21   ar
     4    21    17    1
     5    17     1    1
     6     1     2    1
     7     2     3    1
     8     3     4    1
     9     4     5    1
    10     5     6    1
    11     6     8    1
    12     8     9    2
    13     9    10    1
    14    10    11    2
    15    11    12    1
    16    12    13    2
    17    13    14    1
    18    14    15    2
    19    15    16    1
    20    21    22   ar
    21    22    23   ar
    22    23    18   ar
    23     6     1    1
    24    16     8    1
    25    15    11    1
    26     3     7    1
@<TRIPOS>MOLECULE
*****
 23 26 0 0 0
SMALL
GASTEIGER

@<TRIPOS>ATOM
      1 C          -6.0579  -17.4181   22.9220 C.3     1  UNL1        0.0926
      2 C          -4.5670  -17.5623   23.0031 C.3     1  UNL1        0.0889
      3 N          -3.9157  -18.8537   22.6056 N.3     1  UNL1       -0.2947
      4 C          -4.7551  -20.0009   22.1269 C.3     1  UNL1        0.0903
      5 C          -6.2460  -19.8567   22.0457 C.3     1  UNL1        0.1076
      6 N          -6.8973  -18.5654   22.4432 N.pl3   1  UNL1       -0.3090
      7 H          -3.3997  -19.1862   23.4202 H       1  UNL1        0.1233
      8 C          -8.3882  -18.4211   22.3621 C.2     1  UNL1        0.0295
      9 C          -9.2650  -19.1251   23.3548 C.2     1  UNL1        0.0120
     10 C         -10.7559  -18.9809   23.2736 C.2     1  UNL1        0.0216
     11 C         -11.3699  -18.1326   22.1997 C.2     1  UNL1        0.1008
     12 N         -12.7966  -17.8051   21.8722 N.2     1  UNL1       -0.1482
     13 N         -12.8015  -16.8987   20.6771 N.2     1  UNL1       -0.1467
     14 C         -11.3779  -16.6659   20.2659 C.2     1  UNL1        0.1198
     15 C         -10.4930  -17.4285   21.2070 C.2     1  UNL1        0.0238
     16 C          -9.0022  -17.5728   21.2882 C.3     1  UNL1        0.0705
     17 C          -6.7092  -16.1267   23.3195 C.3     1  UNL1        0.0475
     18 C          -7.7087  -15.3462   27.6371 C.ar    1  UNL1       -0.0000
     19 C          -6.2963  -15.1953   27.1551 C.ar    1  UNL1       -0.0003
     20 C          -5.9631  -15.4554   25.7159 C.ar    1  UNL1       -0.0042
     21 C          -7.0423  -15.8665   24.7587 C.ar    1  UNL1       -0.0205
     22 C          -8.4548  -16.0175   25.2407 C.ar    1  UNL1       -0.0042
     23 C          -8.7880  -15.7574   26.6799 C.ar    1  UNL1       -0.0003
@<TRIPOS>BOND
     1    18    19   ar
     2    19    20   ar
     3    20    21   ar
     4    21    17    1
     5    17     1    1
     6     1     2    1
     7     2     3    1
     8     3     4    1
     9     4     5    1
    10     5     6    1
    11     6     8    1
    12     8     9    2
    13     9    10    1
    14    10    11    2
    15    11    12    1
    16    12    13    2
    17    13    14    1
    18    14    15    2
    19    15    16    1
    20    21    22   ar
    21    22    23   ar
    22    23    18   ar
    23     6     1    1
    24    16     8    1
    25    15    11    1
    26     3     7    1
@<TRIPOS>MOLECULE
*****
 23 26 0 0 0
SMALL
GASTEIGER

@<TRIPOS>ATOM
      1 C          -8.2216  -17.1952   22.1738 C.3     1  UNL1        0.0926
      2 C          -9.7149  -17.0597   22.2172 C.3     1  UNL1        0.0889
      3 N         -10.5838  -18.1694   21.7038 N.3     1  UNL1       -0.2947
      4 C          -9.9596  -19.4144   21.1470 C.3     1  UNL1        0.0903
      5 C          -8.4663  -19.5498   21.1036 C.3     1  UNL1        0.1076
      6 N          -7.5974  -18.4402   21.6170 N.pl3   1  UNL1       -0.3090
      7 H         -11.1610  -17.7724   20.9624 H       1  UNL1        0.1233
      8 C          -6.1041  -18.5756   21.5736 C.2     1  UNL1        0.0295
      9 C          -5.3193  -18.6389   22.8503 C.2     1  UNL1        0.0120
     10 C          -3.8260  -18.7743   22.8069 C.2     1  UNL1        0.0216
     11 C          -3.1176  -18.8463   21.4867 C.2     1  UNL1        0.1008
     12 N          -1.6661  -18.9798   21.1325 N.2     1  UNL1       -0.1482
     13 N          -1.5539  -18.9990   19.6368 N.2     1  UNL1       -0.1467
     14 C          -2.9360  -18.8773   19.0667 C.2     1  UNL1        0.1198
     15 C          -3.9024  -18.7830   20.2100 C.2     1  UNL1        0.0238
     16 C          -5.3957  -18.6476   20.2534 C.3     1  UNL1        0.0705
     17 C          -7.3527  -16.0854   22.6873 C.3     1  UNL1        0.0475
     18 C          -6.8474  -15.4899   27.1189 C.ar    1  UNL1       -0.0000
     19 C          -5.6642  -15.3646   26.2056 C.ar    1  UNL1       -0.0003
     20 C          -5.8325  -15.5631   24.7284 C.ar    1  UNL1       -0.0042
     21 C          -7.1843  -15.8869   24.1645 C.ar    1  UNL1       -0.0205
     22 C          -8.3676  -16.0122   25.0778 C.ar    1  UNL1       -0.0042
     23 C          -8.1992  -15.8137   26.5550 C.ar    1  UNL1       -0.0003
@<TRIPOS>BOND
     1    18    19   ar
     2    19    20   ar
     3    20    21   ar
     4    21    17    1
     5    17     1    1
     6     1     2    1
     7     2     3    1
     8     3     4    1
     9     4     5    1
    10     5     6    1
    11     6     8    1
    12     8     9    2
    13     9    10    1
    14    10    11    2
    15    11    12    1
    16    12    13    2
    17    13    14    1
    18    14    15    2
    19    15    16    1
    20    21    22   ar
    21    22    23   ar
    22    23    18   ar
    23     6     1    1
    24    16     8    1
    25    15    11    1
    26     3     7    1
@<TRIPOS>MOLECULE
*****
 23 26 0 0 0
SMALL
GASTEIGER

@<TRIPOS>ATOM
      1 C         -10.6683  -17.5905   22.6669 C.3     1  UNL1        0.0926
      2 C         -11.9422  -16.8508   22.9500 C.3     1  UNL1        0.0889
      3 N         -12.7225  -16.2423   21.8227 N.3     1  UNL1       -0.2947
      4 C         -12.2289  -16.3734   20.4123 C.3     1  UNL1        0.0903
      5 C         -10.9550  -17.1131   20.1293 C.3     1  UNL1        0.1076
      6 N         -10.1748  -17.7216   21.2565 N.pl3   1  UNL1       -0.3090
      7 H         -12.7926  -15.2437   22.0184 H       1  UNL1        0.1233
      8 C          -8.9008  -18.4614   20.9735 C.2     1  UNL1        0.0295
      9 C          -8.8601  -19.4974   19.8897 C.2     1  UNL1        0.0120
     10 C          -7.5861  -20.2371   19.6067 C.2     1  UNL1        0.0216
     11 C          -6.3530  -19.9407   20.4076 C.2     1  UNL1        0.1008
     12 N          -4.9638  -20.5042   20.3570 N.2     1  UNL1       -0.1482
     13 N          -4.1460  -19.8164   21.4097 N.2     1  UNL1       -0.1467
     14 C          -5.0298  -18.8277   22.1108 C.2     1  UNL1        0.1198
     15 C          -6.3938  -18.9045   21.4915 C.2     1  UNL1        0.0238
     16 C          -7.6677  -18.1649   21.7744 C.3     1  UNL1        0.0705
     17 C          -9.8881  -18.1990   23.7943 C.3     1  UNL1        0.0475
     18 C          -7.9462  -15.5529   26.8727 C.ar    1  UNL1       -0.0000
     19 C          -7.9358  -15.1539   25.4268 C.ar    1  UNL1       -0.0003
     20 C          -8.5831  -16.0359   24.4006 C.ar    1  UNL1       -0.0042
     21 C          -9.2408  -17.3170   24.8204 C.ar    1  UNL1       -0.0205
     22 C          -9.2512  -17.7161   26.2664 C.ar    1  UNL1       -0.0042
     23 C          -8.6039  -16.8340   27.2925 C.ar    1  UNL1       -0.0003
@<TRIPOS>BOND
     1    18    19   ar
     2    19    20   ar
     3    20    21   ar
     4    21    17    1
     5    17     1    1
     6     1     2    1
     7     2     3    1
     8     3     4    1
     9     4     5    1
    10     5     6    1
    11     6     8    1
    12     8     9    2
    13     9    10    1
    14    10    11    2
    15    11    12    1
    16    12    13    2
    17    13    14    1
    18    14    15    2
    19    15    16    1
    20    21    22   ar
    21    22    23   ar
    22    23    18   ar
    23     6     1    1
    24    16     8    1
    25    15    11    1
    26     3     7    1
@<TRIPOS>MOLECULE
*****
 23 26 0 0 0
SMALL
GASTEIGER

@<TRIPOS>ATOM
      1 C          -8.5461  -18.0695   21.1442 C.3     1  UNL1        0.0926
      2 C         -10.0063  -18.0210   20.8044 C.3     1  UNL1        0.0889
      3 N         -10.5787  -18.9919   19.8146 N.3     1  UNL1       -0.2947
      4 C          -9.6909  -20.0115   19.1647 C.3     1  UNL1        0.0903
      5 C          -8.2306  -20.0599   19.5047 C.3     1  UNL1        0.1076
      6 N          -7.6583  -19.0890   20.4943 N.pl3   1  UNL1       -0.3090
      7 H         -10.9904  -18.4383   19.0633 H       1  UNL1        0.1233
      8 C          -6.1981  -19.1375   20.8343 C.2     1  UNL1        0.0295
      9 C          -5.7635  -19.4812   22.2281 C.2     1  UNL1        0.0120
     10 C          -4.3033  -19.5297   22.5681 C.2     1  UNL1        0.0216
     11 C          -3.2777  -19.2344   21.5140 C.2     1  UNL1        0.1008
     12 N          -1.7785  -19.2052   21.5526 N.2     1  UNL1       -0.1482
     13 N          -1.2866  -18.8434   20.1825 N.2     1  UNL1       -0.1467
     14 C          -2.4817  -18.6491   19.2972 C.2     1  UNL1        0.1198
     15 C          -3.7124  -18.8908   20.1201 C.2     1  UNL1        0.0238
     16 C          -5.1725  -18.8423   19.7802 C.3     1  UNL1        0.0705
     17 C          -7.9738  -17.0985   22.1340 C.3     1  UNL1        0.0475
     18 C          -9.1960  -17.3110   26.4596 C.ar    1  UNL1       -0.0000
     19 C          -9.6538  -18.3674   25.4981 C.ar    1  UNL1       -0.0003
     20 C          -9.2464  -18.2966   24.0562 C.ar    1  UNL1       -0.0042
     21 C          -8.3813  -17.1693   23.5759 C.ar    1  UNL1       -0.0205
     22 C          -7.9235  -16.1128   24.5373 C.ar    1  UNL1       -0.0042
     23 C          -8.3309  -16.1837   25.9792 C.ar    1  UNL1       -0.0003
@<TRIPOS>BOND
     1    18    19   ar
     2    19    20   ar
     3    20    21   ar
     4    21    17    1
     5    17     1    1
     6     1     2    1
     7     2     3    1
     8     3     4    1
     9     4     5    1
    10     5     6    1
    11     6     8    1
    12     8     9    2
    13     9    10    1
    14    10    11    2
    15    11    12    1
    16    12    13    2
    17    13    14    1
    18    14    15    2
    19    15    16    1
    20    21    22   ar
    21    22    23   ar
    22    23    18   ar
    23     6     1    1
    24    16     8    1
    25    15    11    1
    26     3     7    1
