@<TRIPOS>MOLECULE
*****
 39 42 0 0 0
SMALL
GASTEIGER

@<TRIPOS>ATOM
      1 N          -8.5037  -18.4469   21.5794 N.am    1  UNL1       -0.2781
      2 C          -8.0296  -18.9513   20.2487 C.2     1  UNL1        0.2686
      3 O          -8.9480  -18.9177   19.0633 O.2     1  UNL1       -0.2681
      4 H          -7.9009  -18.4689   22.3575 H       1  UNL1        0.1553
      5 C          -6.6369  -19.4891   20.1034 C.ar    1  UNL1        0.1507
      6 N          -5.4581  -18.5903   20.3322 N.ar    1  UNL1       -0.2206
      7 C          -4.0654  -19.1282   20.1869 C.ar    1  UNL1        0.1668
      8 N          -3.8515  -20.5649   19.8129 N.ar    1  UNL1       -0.2236
      9 C          -5.0304  -21.4639   19.5841 C.ar    1  UNL1        0.1163
     10 C          -6.4230  -20.9260   19.7293 C.ar    1  UNL1        0.0834
     11 N          -7.6019  -21.8248   19.5006 N.pl3   1  UNL1       -0.3545
     12 H          -7.4615  -22.7679   19.2551 H       1  UNL1        0.1424
     13 H          -8.5159  -21.4718   19.5959 H       1  UNL1        0.1424
     14 C          -2.8866  -18.2293   20.4157 C.ar    1  UNL1        0.0906
     15 C          -1.8468  -18.0691   19.3464 C.ar    1  UNL1        0.1452
     16 F          -1.9860  -18.8078   18.0483 F       1  UNL1       -0.2040
     17 C          -0.6680  -17.1702   19.5752 C.ar    1  UNL1        0.0299
     18 C          -0.5288  -16.4316   20.8732 C.ar    1  UNL1        0.0046
     19 C          -1.5685  -16.5917   21.9425 C.ar    1  UNL1        0.0299
     20 C          -2.7474  -17.4906   21.7138 C.ar    1  UNL1        0.1452
     21 F          -3.7870  -17.6508   22.7830 F       1  UNL1       -0.2040
     22 C         -10.1915  -16.8599   22.7554 C.ar    1  UNL1       -0.0059
     23 C         -11.5842  -16.3220   22.9006 C.ar    1  UNL1        0.0176
     24 C         -12.6818  -16.8332   22.0152 C.ar    1  UNL1        0.0987
     25 N         -12.3867  -17.8823   20.9845 N.ar    1  UNL1       -0.2410
     26 C         -10.9940  -18.4202   20.8392 C.ar    1  UNL1        0.1132
     27 C          -9.8964  -17.9090   21.7247 C.ar    1  UNL1        0.0660
     28 C          -8.3353  -15.8712   27.5069 C.3     1  UNL1        0.0025
     29 C          -8.1659  -15.8544   26.0166 C.3     1  UNL1        0.0273
     30 C          -9.2634  -16.3655   25.1311 C.3     1  UNL1        0.0069
     31 C          -9.0939  -16.3487   23.6408 C.3     1  UNL1        0.0262
     32 C          -7.8270  -15.8206   23.0360 C.3     1  UNL1        0.0360
     33 C          -6.7294  -15.3094   23.9215 C.3     1  UNL1        0.1352
     34 O          -5.4624  -14.7814   23.3166 O.3     1  UNL1       -0.3821
     35 C          -6.8989  -15.3263   25.4118 C.3     1  UNL1        0.1128
     36 C          -5.5250  -14.7325   25.3125 C.3     1  UNL1        0.0318
     37 O          -6.5912  -15.1369   26.8676 O.3     1  UNL1       -0.3844
     38 H          -4.8626  -14.4935   24.0226 H       1  UNL1        0.2104
     39 H          -5.7074  -14.7488   26.9634 H       1  UNL1        0.2103
@<TRIPOS>BOND
     1    29    28    1
     2    29    30    1
     3    30    31    1
     4    31    22    1
     5    22    23   ar
     6    23    24   ar
     7    24    25   ar
     8    25    26   ar
     9    26    27   ar
    10    27     1    1
    11     1     2   am
    12     2     3    2
    13     2     5    1
    14     5     6   ar
    15     6     7   ar
    16     7    14    1
    17    14    15   ar
    18    15    16    1
    19    15    17   ar
    20    17    18   ar
    21    18    19   ar
    22    19    20   ar
    23    20    21    1
    24     7     8   ar
    25     8     9   ar
    26     9    10   ar
    27    10    11    1
    28    31    32    1
    29    32    33    1
    30    33    34    1
    31    33    35    1
    32    35    36    1
    33    35    37    1
    34    35    29    1
    35    27    22   ar
    36    10     5   ar
    37    20    14   ar
    38     1     4    1
    39    11    12    1
    40    11    13    1
    41    34    38    1
    42    37    39    1
@<TRIPOS>MOLECULE
*****
 39 42 0 0 0
SMALL
GASTEIGER

@<TRIPOS>ATOM
      1 N          -5.9880  -19.5516   21.7057 N.am    1  UNL1       -0.2781
      2 C          -6.7419  -19.0196   20.5230 C.2     1  UNL1        0.2686
      3 O          -6.0231  -18.2331   19.4673 O.2     1  UNL1       -0.2681
      4 H          -6.4598  -20.0678   22.3987 H       1  UNL1        0.1553
      5 C          -8.2147  -19.2742   20.3962 C.ar    1  UNL1        0.1507
      6 N          -9.1341  -18.9414   21.5337 N.ar    1  UNL1       -0.2206
      7 C         -10.6068  -19.1960   21.4068 C.ar    1  UNL1        0.1668
      8 N         -11.1603  -19.7833   20.1424 N.ar    1  UNL1       -0.2236
      9 C         -10.2409  -20.1160   19.0048 C.ar    1  UNL1        0.1163
     10 C          -8.7681  -19.8615   19.1317 C.ar    1  UNL1        0.0834
     11 N          -7.8488  -20.1942   17.9941 N.pl3   1  UNL1       -0.3545
     12 H          -8.2120  -20.5796   17.1642 H       1  UNL1        0.1424
     13 H          -6.8822  -20.0271   18.0774 H       1  UNL1        0.1424
     14 C         -11.5262  -18.8633   22.5444 C.ar    1  UNL1        0.0906
     15 C         -12.7148  -17.9777   22.3138 C.ar    1  UNL1        0.1452
     16 F         -12.9840  -17.4249   20.9456 F       1  UNL1       -0.2040
     17 C         -13.6341  -17.6450   23.4513 C.ar    1  UNL1        0.0299
     18 C         -13.3650  -18.1978   24.8195 C.ar    1  UNL1        0.0046
     19 C         -12.1765  -19.0833   25.0502 C.ar    1  UNL1        0.0299
     20 C         -11.2570  -19.4161   23.9126 C.ar    1  UNL1        0.1452
     21 F         -10.0685  -20.3016   24.1433 F       1  UNL1       -0.2040
     22 C          -4.0197  -18.1734   22.6939 C.ar    1  UNL1       -0.0059
     23 C          -2.5470  -17.9188   22.8208 C.ar    1  UNL1        0.0176
     24 C          -1.5696  -18.7879   22.0863 C.ar    1  UNL1        0.0987
     25 N          -2.0651  -19.9116   21.2249 N.ar    1  UNL1       -0.2410
     26 C          -3.5379  -20.1662   21.0981 C.ar    1  UNL1        0.1132
     27 C          -4.5152  -19.2970   21.8326 C.ar    1  UNL1        0.0660
     28 C          -5.0520  -14.7667   26.4793 C.3     1  UNL1        0.0025
     29 C          -5.5132  -15.6009   25.3211 C.3     1  UNL1        0.0273
     30 C          -4.5359  -16.4700   24.5866 C.3     1  UNL1        0.0069
     31 C          -4.9971  -17.3042   23.4284 C.3     1  UNL1        0.0262
     32 C          -6.4356  -17.2693   23.0047 C.3     1  UNL1        0.0360
     33 C          -7.4128  -16.4002   23.7392 C.3     1  UNL1        0.1352
     34 O          -8.8514  -16.3652   23.3155 O.3     1  UNL1       -0.3821
     35 C          -6.9516  -15.5660   24.8974 C.3     1  UNL1        0.1128
     36 C          -8.4053  -15.1968   24.8730 C.3     1  UNL1        0.0318
     37 O          -6.9953  -14.6035   26.0471 O.3     1  UNL1       -0.3844
     38 H          -9.3431  -15.7581   23.8904 H       1  UNL1        0.2104
     39 H          -7.9000  -14.2710   26.1562 H       1  UNL1        0.2103
@<TRIPOS>BOND
     1    29    28    1
     2    29    30    1
     3    30    31    1
     4    31    22    1
     5    22    23   ar
     6    23    24   ar
     7    24    25   ar
     8    25    26   ar
     9    26    27   ar
    10    27     1    1
    11     1     2   am
    12     2     3    2
    13     2     5    1
    14     5     6   ar
    15     6     7   ar
    16     7    14    1
    17    14    15   ar
    18    15    16    1
    19    15    17   ar
    20    17    18   ar
    21    18    19   ar
    22    19    20   ar
    23    20    21    1
    24     7     8   ar
    25     8     9   ar
    26     9    10   ar
    27    10    11    1
    28    31    32    1
    29    32    33    1
    30    33    34    1
    31    33    35    1
    32    35    36    1
    33    35    37    1
    34    35    29    1
    35    27    22   ar
    36    10     5   ar
    37    20    14   ar
    38     1     4    1
    39    11    12    1
    40    11    13    1
    41    34    38    1
    42    37    39    1
@<TRIPOS>MOLECULE
*****
 39 42 0 0 0
SMALL
GASTEIGER

@<TRIPOS>ATOM
      1 N          -8.3300  -18.1767   21.4465 N.am    1  UNL1       -0.2781
      2 C          -7.9337  -18.9354   20.2147 C.2     1  UNL1        0.2686
      3 O          -8.9316  -19.1573   19.1170 O.2     1  UNL1       -0.2681
      4 H          -7.6751  -18.0311   22.1670 H       1  UNL1        0.1553
      5 C          -6.5395  -19.4723   20.0806 C.ar    1  UNL1        0.1507
      6 N          -5.3632  -18.5671   20.2972 N.ar    1  UNL1       -0.2206
      7 C          -3.9690  -19.1040   20.1632 C.ar    1  UNL1        0.1668
      8 N          -3.7511  -20.5460   19.8125 N.ar    1  UNL1       -0.2236
      9 C          -4.9274  -21.4513   19.5959 C.ar    1  UNL1        0.1163
     10 C          -6.3216  -20.9144   19.7299 C.ar    1  UNL1        0.0834
     11 N          -7.4979  -21.8196   19.5133 N.pl3   1  UNL1       -0.3545
     12 H          -7.3549  -22.7660   19.2831 H       1  UNL1        0.1424
     13 H          -8.4130  -21.4672   19.6013 H       1  UNL1        0.1424
     14 C          -2.7927  -18.1988   20.3798 C.ar    1  UNL1        0.0906
     15 C          -2.6324  -17.4766   21.6847 C.ar    1  UNL1        0.1452
     16 F          -3.6484  -17.6596   22.7730 F       1  UNL1       -0.2040
     17 C          -1.4561  -16.5714   21.9014 C.ar    1  UNL1        0.0299
     18 C          -0.4401  -16.3884   20.8131 C.ar    1  UNL1        0.0046
     19 C          -0.6004  -17.1105   19.5082 C.ar    1  UNL1        0.0299
     20 C          -1.7768  -18.0158   19.2916 C.ar    1  UNL1        0.1452
     21 F          -1.9371  -18.7379   17.9867 F       1  UNL1       -0.2040
     22 C         -10.0607  -16.6969   22.6975 C.ar    1  UNL1       -0.0059
     23 C         -11.4549  -16.1601   22.8316 C.ar    1  UNL1        0.0176
     24 C         -12.5127  -16.5661   21.8487 C.ar    1  UNL1        0.0987
     25 N         -12.1763  -17.5091   20.7316 N.ar    1  UNL1       -0.2410
     26 C         -10.7820  -18.0460   20.5976 C.ar    1  UNL1        0.1132
     27 C          -9.7242  -17.6398   21.5806 C.ar    1  UNL1        0.0660
     28 C          -5.2539  -14.9887   23.6862 C.3     1  UNL1        0.0025
     29 C          -6.5995  -15.4367   24.1748 C.3     1  UNL1        0.0273
     30 C          -7.6573  -15.8428   23.1919 C.3     1  UNL1        0.0069
     31 C          -9.0029  -16.2908   23.6805 C.3     1  UNL1        0.0262
     32 C          -9.2907  -16.3327   25.1520 C.3     1  UNL1        0.0360
     33 C          -8.2329  -15.9266   26.1349 C.3     1  UNL1        0.1352
     34 O          -8.5206  -15.9684   27.6065 O.3     1  UNL1       -0.3821
     35 C          -6.8873  -15.4786   25.6463 C.3     1  UNL1        0.1128
     36 C          -6.6832  -15.3493   27.1267 C.3     1  UNL1        0.0318
     37 O          -5.4708  -14.9857   25.6719 O.3     1  UNL1       -0.3844
     38 H          -7.7367  -15.6768   28.0977 H       1  UNL1        0.2104
     39 H          -5.1915  -14.8524   26.5912 H       1  UNL1        0.2103
@<TRIPOS>BOND
     1    29    28    1
     2    29    30    1
     3    30    31    1
     4    31    22    1
     5    22    23   ar
     6    23    24   ar
     7    24    25   ar
     8    25    26   ar
     9    26    27   ar
    10    27     1    1
    11     1     2   am
    12     2     3    2
    13     2     5    1
    14     5     6   ar
    15     6     7   ar
    16     7    14    1
    17    14    15   ar
    18    15    16    1
    19    15    17   ar
    20    17    18   ar
    21    18    19   ar
    22    19    20   ar
    23    20    21    1
    24     7     8   ar
    25     8     9   ar
    26     9    10   ar
    27    10    11    1
    28    31    32    1
    29    32    33    1
    30    33    34    1
    31    33    35    1
    32    35    36    1
    33    35    37    1
    34    35    29    1
    35    27    22   ar
    36    10     5   ar
    37    20    14   ar
    38     1     4    1
    39    11    12    1
    40    11    13    1
    41    34    38    1
    42    37    39    1
@<TRIPOS>MOLECULE
*****
 39 42 0 0 0
SMALL
GASTEIGER

@<TRIPOS>ATOM
      1 N          -6.0003  -19.5405   21.7140 N.am    1  UNL1       -0.2781
      2 C          -6.7478  -19.0209   20.5217 C.2     1  UNL1        0.2686
      3 O          -6.0223  -18.2492   19.4596 O.2     1  UNL1       -0.2681
      4 H          -6.4765  -20.0470   22.4111 H       1  UNL1        0.1553
      5 C          -8.2207  -19.2730   20.3916 C.ar    1  UNL1        0.1507
      6 N          -9.1422  -18.9376   21.5266 N.ar    1  UNL1       -0.2206
      7 C         -10.6151  -19.1898   21.3965 C.ar    1  UNL1        0.1668
      8 N         -11.1665  -19.7774   20.1314 N.ar    1  UNL1       -0.2236
      9 C         -10.2450  -20.1128   18.9963 C.ar    1  UNL1        0.1163
     10 C          -8.7721  -19.8607   19.1264 C.ar    1  UNL1        0.0834
     11 N          -7.8506  -20.1960   17.9914 N.pl3   1  UNL1       -0.3545
     12 H          -8.2125  -20.5817   17.1610 H       1  UNL1        0.1424
     13 H          -6.8839  -20.0305   18.0768 H       1  UNL1        0.1424
     14 C         -11.5366  -18.8544   22.5316 C.ar    1  UNL1        0.0906
     15 C         -11.2737  -19.4095   23.9001 C.ar    1  UNL1        0.1452
     16 F         -10.0894  -20.2999   24.1336 F       1  UNL1       -0.2040
     17 C         -12.1952  -19.0741   25.0352 C.ar    1  UNL1        0.0299
     18 C         -13.3795  -18.1836   24.8017 C.ar    1  UNL1        0.0046
     19 C         -13.6424  -17.6286   23.4332 C.ar    1  UNL1        0.0299
     20 C         -12.7209  -17.9640   22.2981 C.ar    1  UNL1        0.1452
     21 F         -12.9837  -17.4089   20.9296 F       1  UNL1       -0.2040
     22 C          -4.0319  -18.1682   22.7101 C.ar    1  UNL1       -0.0059
     23 C          -2.5590  -17.9161   22.8402 C.ar    1  UNL1        0.0176
     24 C          -1.5816  -18.7839   22.1044 C.ar    1  UNL1        0.0987
     25 N          -2.0771  -19.9041   21.2384 N.ar    1  UNL1       -0.2410
     26 C          -3.5500  -20.1562   21.1083 C.ar    1  UNL1        0.1132
     27 C          -4.5274  -19.2883   21.8441 C.ar    1  UNL1        0.0660
     28 C          -5.0617  -14.7579   26.4928 C.3     1  UNL1        0.0025
     29 C          -5.5242  -15.5951   25.3373 C.3     1  UNL1        0.0273
     30 C          -4.5468  -16.4631   24.6014 C.3     1  UNL1        0.0069
     31 C          -5.0093  -17.3003   23.4459 C.3     1  UNL1        0.0262
     32 C          -6.4490  -17.2696   23.0263 C.3     1  UNL1        0.0360
     33 C          -7.4263  -16.4017   23.7622 C.3     1  UNL1        0.1352
     34 O          -8.8662  -16.3710   23.3425 O.3     1  UNL1       -0.3821
     35 C          -6.9639  -15.5645   24.9177 C.3     1  UNL1        0.1128
     36 C          -8.4185  -15.1989   24.8968 C.3     1  UNL1        0.0318
     37 O          -7.0067  -14.6003   26.0659 O.3     1  UNL1       -0.3844
     38 H          -9.3577  -15.7641   23.9179 H       1  UNL1        0.2104
     39 H          -7.9119  -14.2698   26.1770 H       1  UNL1        0.2103
@<TRIPOS>BOND
     1    29    28    1
     2    29    30    1
     3    30    31    1
     4    31    22    1
     5    22    23   ar
     6    23    24   ar
     7    24    25   ar
     8    25    26   ar
     9    26    27   ar
    10    27     1    1
    11     1     2   am
    12     2     3    2
    13     2     5    1
    14     5     6   ar
    15     6     7   ar
    16     7    14    1
    17    14    15   ar
    18    15    16    1
    19    15    17   ar
    20    17    18   ar
    21    18    19   ar
    22    19    20   ar
    23    20    21    1
    24     7     8   ar
    25     8     9   ar
    26     9    10   ar
    27    10    11    1
    28    31    32    1
    29    32    33    1
    30    33    34    1
    31    33    35    1
    32    35    36    1
    33    35    37    1
    34    35    29    1
    35    27    22   ar
    36    10     5   ar
    37    20    14   ar
    38     1     4    1
    39    11    12    1
    40    11    13    1
    41    34    38    1
    42    37    39    1
@<TRIPOS>MOLECULE
*****
 39 42 0 0 0
SMALL
GASTEIGER

@<TRIPOS>ATOM
      1 N          -6.0036  -19.4589   21.7332 N.am    1  UNL1       -0.2781
      2 C          -6.7287  -19.0548   20.4837 C.2     1  UNL1        0.2686
      3 O          -5.9761  -18.4211   19.3515 O.2     1  UNL1       -0.2681
      4 H          -6.4976  -19.8748   22.4763 H       1  UNL1        0.1553
      5 C          -8.2064  -19.2845   20.3666 C.ar    1  UNL1        0.1507
      6 N          -9.1089  -18.9651   21.5213 N.ar    1  UNL1       -0.2206
      7 C         -10.5866  -19.1948   21.4041 C.ar    1  UNL1        0.1668
      8 N         -11.1617  -19.7439   20.1322 N.ar    1  UNL1       -0.2236
      9 C         -10.2592  -20.0633   18.9774 C.ar    1  UNL1        0.1163
     10 C          -8.7815  -19.8336   19.0946 C.ar    1  UNL1        0.0834
     11 N          -7.8790  -20.1530   17.9399 N.pl3   1  UNL1       -0.3545
     12 H          -8.2565  -20.5134   17.1051 H       1  UNL1        0.1424
     13 H          -6.9091  -20.0022   18.0168 H       1  UNL1        0.1424
     14 C         -11.4891  -18.8754   22.5588 C.ar    1  UNL1        0.0906
     15 C         -11.1751  -19.4075   23.9257 C.ar    1  UNL1        0.1452
     16 F          -9.9586  -20.2590   24.1378 F       1  UNL1       -0.2040
     17 C         -12.0776  -19.0881   25.0804 C.ar    1  UNL1        0.0299
     18 C         -13.2942  -18.2366   24.8683 C.ar    1  UNL1        0.0046
     19 C         -13.6082  -17.7045   23.5015 C.ar    1  UNL1        0.0299
     20 C         -12.7056  -18.0239   22.3467 C.ar    1  UNL1        0.1452
     21 F         -13.0197  -17.4918   20.9799 F       1  UNL1       -0.2040
     22 C          -4.0054  -18.1249   22.7217 C.ar    1  UNL1       -0.0059
     23 C          -2.5277  -17.8952   22.8389 C.ar    1  UNL1        0.0176
     24 C          -1.5706  -18.7699   22.0846 C.ar    1  UNL1        0.0987
     25 N          -2.0912  -19.8743   21.2132 N.ar    1  UNL1       -0.2410
     26 C          -3.5689  -20.1040   21.0960 C.ar    1  UNL1        0.1132
     27 C          -4.5260  -19.2292   21.8503 C.ar    1  UNL1        0.0660
     28 C          -8.8359  -16.3876   23.5268 C.3     1  UNL1        0.0025
     29 C          -7.3777  -16.3815   23.8785 C.3     1  UNL1        0.0273
     30 C          -6.4206  -17.2562   23.1243 C.3     1  UNL1        0.0069
     31 C          -4.9625  -17.2502   23.4760 C.3     1  UNL1        0.0262
     32 C          -4.4614  -16.3694   24.5820 C.3     1  UNL1        0.0360
     33 C          -5.4184  -15.4948   25.3362 C.3     1  UNL1        0.1352
     34 O          -4.9174  -14.6140   26.4422 O.3     1  UNL1       -0.3821
     35 C          -6.8766  -15.5008   24.9845 C.3     1  UNL1        0.1128
     36 C          -6.8827  -14.5017   26.1032 C.3     1  UNL1        0.0318
     37 O          -8.3369  -15.1598   25.0213 O.3     1  UNL1       -0.3844
     38 H          -5.6596  -14.1184   26.8223 H       1  UNL1        0.2104
     39 H          -8.4983  -14.5044   25.7180 H       1  UNL1        0.2103
@<TRIPOS>BOND
     1    29    28    1
     2    29    30    1
     3    30    31    1
     4    31    22    1
     5    22    23   ar
     6    23    24   ar
     7    24    25   ar
     8    25    26   ar
     9    26    27   ar
    10    27     1    1
    11     1     2   am
    12     2     3    2
    13     2     5    1
    14     5     6   ar
    15     6     7   ar
    16     7    14    1
    17    14    15   ar
    18    15    16    1
    19    15    17   ar
    20    17    18   ar
    21    18    19   ar
    22    19    20   ar
    23    20    21    1
    24     7     8   ar
    25     8     9   ar
    26     9    10   ar
    27    10    11    1
    28    31    32    1
    29    32    33    1
    30    33    34    1
    31    33    35    1
    32    35    36    1
    33    35    37    1
    34    35    29    1
    35    27    22   ar
    36    10     5   ar
    37    20    14   ar
    38     1     4    1
    39    11    12    1
    40    11    13    1
    41    34    38    1
    42    37    39    1
@<TRIPOS>MOLECULE
*****
 39 42 0 0 0
SMALL
GASTEIGER

@<TRIPOS>ATOM
      1 N           4.9535   -2.9507   24.0187 N.am    1  UNL1       -0.2781
      2 C           5.0731   -1.4561   23.9730 C.2     1  UNL1        0.2686
      3 O           6.4226   -0.8085   24.0701 O.2     1  UNL1       -0.2681
      4 H           4.0678   -3.3758   23.9550 H       1  UNL1        0.1553
      5 C           3.8433   -0.6093   23.8304 C.ar    1  UNL1        0.1507
      6 N           3.4301   -0.1087   22.4781 N.ar    1  UNL1       -0.2206
      7 C           2.2003    0.7381   22.3354 C.ar    1  UNL1        0.1668
      8 N           1.3836    1.0844   23.5450 N.ar    1  UNL1       -0.2236
      9 C           1.7968    0.5838   24.8974 C.ar    1  UNL1        0.1163
     10 C           3.0266   -0.2630   25.0400 C.ar    1  UNL1        0.0834
     11 N           3.4398   -0.7636   26.3923 N.pl3   1  UNL1       -0.3545
     12 H           2.9038   -0.5363   27.1862 H       1  UNL1        0.1424
     13 H           4.2470   -1.3194   26.4859 H       1  UNL1        0.1424
     14 C           1.7871    1.2387   20.9832 C.ar    1  UNL1        0.0906
     15 C           1.4076    0.2653   19.9068 C.ar    1  UNL1        0.1452
     16 F           1.4412   -1.2087   20.1828 F       1  UNL1       -0.2040
     17 C           0.9944    0.7658   18.5546 C.ar    1  UNL1        0.0299
     18 C           0.9607    2.2398   18.2785 C.ar    1  UNL1        0.0046
     19 C           1.3402    3.2133   19.3548 C.ar    1  UNL1        0.0299
     20 C           1.7534    2.7127   20.7071 C.ar    1  UNL1        0.1452
     21 F           2.1329    3.6861   21.7834 F       1  UNL1       -0.2040
     22 C           6.9754   -4.1803   22.9465 C.ar    1  UNL1       -0.0059
     23 C           8.2052   -5.0272   23.0892 C.ar    1  UNL1        0.0176
     24 C           8.6430   -5.4912   24.4467 C.ar    1  UNL1        0.0987
     25 N           7.8509   -5.1084   25.6617 N.ar    1  UNL1       -0.2410
     26 C           6.6210   -4.2615   25.5190 C.ar    1  UNL1        0.1132
     27 C           6.1833   -3.7975   24.1613 C.ar    1  UNL1        0.0660
     28 C           3.4860   -4.1900   19.0963 C.3     1  UNL1        0.0025
     29 C           4.7929   -3.7212   19.6638 C.3     1  UNL1        0.0273
     30 C           5.2307   -4.1851   21.0213 C.3     1  UNL1        0.0069
     31 C           6.5377   -3.7163   21.5888 C.3     1  UNL1        0.0262
     32 C           7.4069   -2.7836   20.7987 C.3     1  UNL1        0.0360
     33 C           6.9692   -2.3196   19.4411 C.3     1  UNL1        0.1352
     34 O           7.8384   -1.3868   18.6509 O.3     1  UNL1       -0.3821
     35 C           5.6622   -2.7884   18.8737 C.3     1  UNL1        0.1128
     36 C           6.1345   -1.9128   17.7511 C.3     1  UNL1        0.0318
     37 O           4.5193   -2.9531   17.9163 O.3     1  UNL1       -0.3844
     38 H           7.4116   -1.1874   17.8030 H       1  UNL1        0.2104
     39 H           4.6882   -2.4288   17.1178 H       1  UNL1        0.2103
@<TRIPOS>BOND
     1    29    28    1
     2    29    30    1
     3    30    31    1
     4    31    22    1
     5    22    23   ar
     6    23    24   ar
     7    24    25   ar
     8    25    26   ar
     9    26    27   ar
    10    27     1    1
    11     1     2   am
    12     2     3    2
    13     2     5    1
    14     5     6   ar
    15     6     7   ar
    16     7    14    1
    17    14    15   ar
    18    15    16    1
    19    15    17   ar
    20    17    18   ar
    21    18    19   ar
    22    19    20   ar
    23    20    21    1
    24     7     8   ar
    25     8     9   ar
    26     9    10   ar
    27    10    11    1
    28    31    32    1
    29    32    33    1
    30    33    34    1
    31    33    35    1
    32    35    36    1
    33    35    37    1
    34    35    29    1
    35    27    22   ar
    36    10     5   ar
    37    20    14   ar
    38     1     4    1
    39    11    12    1
    40    11    13    1
    41    34    38    1
    42    37    39    1
@<TRIPOS>MOLECULE
*****
 39 42 0 0 0
SMALL
GASTEIGER

@<TRIPOS>ATOM
      1 N           3.6466   -1.4321   22.6108 N.am    1  UNL1       -0.2781
      2 C           4.7585   -0.8931   23.4613 C.2     1  UNL1        0.2686
      3 O           6.1748   -1.3103   23.1968 O.2     1  UNL1       -0.2681
      4 H           2.7170   -1.1583   22.7844 H       1  UNL1        0.1553
      5 C           4.4540    0.0631   24.5761 C.ar    1  UNL1        0.1507
      6 N           3.1562   -0.0419   25.3208 N.ar    1  UNL1       -0.2206
      7 C           2.8518    0.9143   26.4357 C.ar    1  UNL1        0.1668
      8 N           3.8451    1.9755   26.8059 N.ar    1  UNL1       -0.2236
      9 C           5.1430    2.0805   26.0612 C.ar    1  UNL1        0.1163
     10 C           5.4475    1.1243   24.9463 C.ar    1  UNL1        0.0834
     11 N           6.7453    1.2293   24.2016 N.pl3   1  UNL1       -0.3545
     12 H           7.3973    1.9258   24.4446 H       1  UNL1        0.1424
     13 H           6.9451    0.6017   23.4699 H       1  UNL1        0.1424
     14 C           1.5539    0.8093   27.1804 C.ar    1  UNL1        0.0906
     15 C           1.4414   -0.1021   28.3666 C.ar    1  UNL1        0.1452
     16 F           2.6268   -0.9084   28.8079 F       1  UNL1       -0.2040
     17 C           0.1436   -0.2071   29.1113 C.ar    1  UNL1        0.0299
     18 C          -1.0417    0.5992   28.6699 C.ar    1  UNL1        0.0046
     19 C          -0.9293    1.5106   27.4838 C.ar    1  UNL1        0.0299
     20 C           0.3686    1.6156   26.7391 C.ar    1  UNL1        0.1452
     21 F           0.4811    2.5269   25.5530 F       1  UNL1       -0.2040
     22 C           3.5363   -2.0603   20.0922 C.ar    1  UNL1       -0.0059
     23 C           3.8408   -3.0165   18.9774 C.ar    1  UNL1        0.0176
     24 C           4.5600   -4.3007   19.2661 C.ar    1  UNL1        0.0987
     25 N           4.9747   -4.6288   20.6699 N.ar    1  UNL1       -0.2410
     26 C           4.6703   -3.6726   21.7848 C.ar    1  UNL1        0.1132
     27 C           3.9510   -2.3883   21.4959 C.ar    1  UNL1        0.0660
     28 C           3.5818    2.8199   18.3083 C.3     1  UNL1        0.0025
     29 C           2.8399    1.6641   18.9114 C.3     1  UNL1        0.0273
     30 C           3.5590    0.3798   19.2003 C.3     1  UNL1        0.0069
     31 C           2.8171   -0.7760   19.8034 C.3     1  UNL1        0.0262
     32 C           1.3561   -0.6475   20.1177 C.3     1  UNL1        0.0360
     33 C           0.6369    0.6367   19.8288 C.3     1  UNL1        0.1352
     34 O          -0.8242    0.7653   20.1431 O.3     1  UNL1       -0.3821
     35 C           1.3788    1.7925   19.2257 C.3     1  UNL1        0.1128
     36 C           0.0104    2.3951   19.3449 C.3     1  UNL1        0.0318
     37 O           1.6454    3.1576   18.6640 O.3     1  UNL1       -0.3844
     38 H          -1.1311    1.6519   19.8968 H       1  UNL1        0.2104
     39 H           0.8270    3.6781   18.6771 H       1  UNL1        0.2103
@<TRIPOS>BOND
     1    29    28    1
     2    29    30    1
     3    30    31    1
     4    31    22    1
     5    22    23   ar
     6    23    24   ar
     7    24    25   ar
     8    25    26   ar
     9    26    27   ar
    10    27     1    1
    11     1     2   am
    12     2     3    2
    13     2     5    1
    14     5     6   ar
    15     6     7   ar
    16     7    14    1
    17    14    15   ar
    18    15    16    1
    19    15    17   ar
    20    17    18   ar
    21    18    19   ar
    22    19    20   ar
    23    20    21    1
    24     7     8   ar
    25     8     9   ar
    26     9    10   ar
    27    10    11    1
    28    31    32    1
    29    32    33    1
    30    33    34    1
    31    33    35    1
    32    35    36    1
    33    35    37    1
    34    35    29    1
    35    27    22   ar
    36    10     5   ar
    37    20    14   ar
    38     1     4    1
    39    11    12    1
    40    11    13    1
    41    34    38    1
    42    37    39    1
@<TRIPOS>MOLECULE
*****
 39 42 0 0 0
SMALL
GASTEIGER

@<TRIPOS>ATOM
      1 N           3.6159   -2.0161   23.4081 N.am    1  UNL1       -0.2781
      2 C           4.3910   -1.3141   24.4836 C.2     1  UNL1        0.2686
      3 O           5.8744   -1.1389   24.3462 O.2     1  UNL1       -0.2681
      4 H           2.6423   -2.1310   23.4983 H       1  UNL1        0.1553
      5 C           3.6827   -0.7874   25.6964 C.ar    1  UNL1        0.1507
      6 N           2.6715    0.3115   25.5562 N.ar    1  UNL1       -0.2206
      7 C           1.9632    0.8382   26.7690 C.ar    1  UNL1        0.1668
      8 N           2.2662    0.2660   28.1220 N.ar    1  UNL1       -0.2236
      9 C           3.2774   -0.8330   28.2623 C.ar    1  UNL1        0.1163
     10 C           3.9857   -1.3597   27.0495 C.ar    1  UNL1        0.0834
     11 N           4.9969   -2.4587   27.1897 N.pl3   1  UNL1       -0.3545
     12 H           5.1958   -2.8343   28.0777 H       1  UNL1        0.1424
     13 H           5.4618   -2.8044   26.3937 H       1  UNL1        0.1424
     14 C           0.9520    1.9372   26.6288 C.ar    1  UNL1        0.0906
     15 C          -0.4780    1.6937   27.0106 C.ar    1  UNL1        0.1452
     16 F          -0.8968    0.3513   27.5326 F       1  UNL1       -0.2040
     17 C          -1.4892    2.7927   26.8704 C.ar    1  UNL1        0.0299
     18 C          -1.0705    4.1351   26.3484 C.ar    1  UNL1        0.0046
     19 C           0.3595    4.3786   25.9666 C.ar    1  UNL1        0.0299
     20 C           1.3708    3.2796   26.1068 C.ar    1  UNL1        0.1452
     21 F           2.8008    3.5231   25.7250 F       1  UNL1       -0.2040
     22 C           4.1478   -1.8634   20.8697 C.ar    1  UNL1       -0.0059
     23 C           4.8561   -2.3901   19.6569 C.ar    1  UNL1        0.0176
     24 C           5.7408   -3.5962   19.7697 C.ar    1  UNL1        0.0987
     25 N           5.9172   -4.2756   21.0954 N.ar    1  UNL1       -0.2410
     26 C           5.2089   -3.7489   22.3082 C.ar    1  UNL1        0.1132
     27 C           4.3242   -2.5428   22.1953 C.ar    1  UNL1        0.0660
     28 C           3.5653    3.2995   20.8001 C.3     1  UNL1        0.0025
     29 C           2.9719    1.9241   20.7220 C.3     1  UNL1        0.0273
     30 C           3.8565    0.7181   20.8349 C.3     1  UNL1        0.0069
     31 C           3.2631   -0.6573   20.7568 C.3     1  UNL1        0.0262
     32 C           1.7850   -0.8267   20.5659 C.3     1  UNL1        0.0360
     33 C           0.9003    0.3794   20.4530 C.3     1  UNL1        0.1352
     34 O          -0.5779    0.2101   20.2621 O.3     1  UNL1       -0.3821
     35 C           1.4938    1.7548   20.5311 C.3     1  UNL1        0.1128
     36 C           0.0473    2.1054   20.3448 C.3     1  UNL1        0.0318
     37 O           1.5848    3.2520   20.5445 O.3     1  UNL1       -0.3844
     38 H          -0.9990    1.0823   20.2087 H       1  UNL1        0.2104
     39 H           0.6991    3.6308   20.4306 H       1  UNL1        0.2103
@<TRIPOS>BOND
     1    29    28    1
     2    29    30    1
     3    30    31    1
     4    31    22    1
     5    22    23   ar
     6    23    24   ar
     7    24    25   ar
     8    25    26   ar
     9    26    27   ar
    10    27     1    1
    11     1     2   am
    12     2     3    2
    13     2     5    1
    14     5     6   ar
    15     6     7   ar
    16     7    14    1
    17    14    15   ar
    18    15    16    1
    19    15    17   ar
    20    17    18   ar
    21    18    19   ar
    22    19    20   ar
    23    20    21    1
    24     7     8   ar
    25     8     9   ar
    26     9    10   ar
    27    10    11    1
    28    31    32    1
    29    32    33    1
    30    33    34    1
    31    33    35    1
    32    35    36    1
    33    35    37    1
    34    35    29    1
    35    27    22   ar
    36    10     5   ar
    37    20    14   ar
    38     1     4    1
    39    11    12    1
    40    11    13    1
    41    34    38    1
    42    37    39    1
@<TRIPOS>MOLECULE
*****
 39 42 0 0 0
SMALL
GASTEIGER

@<TRIPOS>ATOM
      1 N           3.4623   -1.1321   24.3653 N.am    1  UNL1       -0.2781
      2 C           4.7411   -0.6657   24.9957 C.2     1  UNL1        0.2686
      3 O           5.1228    0.7836   24.9337 O.2     1  UNL1       -0.2681
      4 H           3.2118   -2.0834   24.4060 H       1  UNL1        0.1553
      5 C           5.6382   -1.6486   25.6879 C.ar    1  UNL1        0.1507
      6 N           6.1975   -2.8162   24.9304 N.ar    1  UNL1       -0.2206
      7 C           7.0946   -3.7991   25.6226 C.ar    1  UNL1        0.1668
      8 N           7.4323   -3.6144   27.0724 N.ar    1  UNL1       -0.2236
      9 C           6.8730   -2.4468   27.8299 C.ar    1  UNL1        0.1163
     10 C           5.9759   -1.4639   27.1377 C.ar    1  UNL1        0.0834
     11 N           5.4166   -0.2963   27.8952 N.pl3   1  UNL1       -0.3545
     12 H           5.6382   -0.1751   28.8468 H       1  UNL1        0.1424
     13 H           4.8278    0.3488   27.4409 H       1  UNL1        0.1424
     14 C           7.6539   -4.9666   24.8651 C.ar    1  UNL1        0.0906
     15 C           7.5155   -6.3546   25.4170 C.ar    1  UNL1        0.1452
     16 F           6.8177   -6.5749   26.7264 F       1  UNL1       -0.2040
     17 C           8.0749   -7.5222   24.6595 C.ar    1  UNL1        0.0299
     18 C           8.7726   -7.3019   23.3501 C.ar    1  UNL1        0.0046
     19 C           8.9111   -5.9140   22.7982 C.ar    1  UNL1        0.0299
     20 C           8.3517   -4.7464   23.5557 C.ar    1  UNL1        0.1452
     21 F           8.4902   -3.3585   23.0038 F       1  UNL1       -0.2040
     22 C           2.6117   -0.0139   22.1800 C.ar    1  UNL1       -0.0059
     23 C           1.7147    0.9691   21.4878 C.ar    1  UNL1        0.0176
     24 C           0.7712    1.8166   22.2887 C.ar    1  UNL1        0.0987
     25 N           0.7247    1.6812   23.7819 N.ar    1  UNL1       -0.2410
     26 C           1.6217    0.6983   24.4741 C.ar    1  UNL1        0.1132
     27 C           2.5653   -0.1492   23.6731 C.ar    1  UNL1        0.0660
     28 C           3.4743   -4.1154   19.1086 C.3     1  UNL1        0.0025
     29 C           3.9865   -2.9122   19.8433 C.3     1  UNL1        0.0273
     30 C           3.0430   -2.0646   20.6443 C.3     1  UNL1        0.0069
     31 C           3.5553   -0.8614   21.3790 C.3     1  UNL1        0.0262
     32 C           5.0109   -0.5057   21.3128 C.3     1  UNL1        0.0360
     33 C           5.9544   -1.3532   20.5119 C.3     1  UNL1        0.1352
     34 O           7.4102   -0.9975   20.4456 O.3     1  UNL1       -0.3821
     35 C           5.4422   -2.5564   19.7771 C.3     1  UNL1        0.1128
     36 C           6.8952   -2.6271   19.4117 C.3     1  UNL1        0.0318
     37 O           5.4347   -3.7842   18.9155 O.3     1  UNL1       -0.3844
     38 H           7.8757   -1.6427   19.8908 H       1  UNL1        0.2104
     39 H           6.3334   -3.9606   18.5961 H       1  UNL1        0.2103
@<TRIPOS>BOND
     1    29    28    1
     2    29    30    1
     3    30    31    1
     4    31    22    1
     5    22    23   ar
     6    23    24   ar
     7    24    25   ar
     8    25    26   ar
     9    26    27   ar
    10    27     1    1
    11     1     2   am
    12     2     3    2
    13     2     5    1
    14     5     6   ar
    15     6     7   ar
    16     7    14    1
    17    14    15   ar
    18    15    16    1
    19    15    17   ar
    20    17    18   ar
    21    18    19   ar
    22    19    20   ar
    23    20    21    1
    24     7     8   ar
    25     8     9   ar
    26     9    10   ar
    27    10    11    1
    28    31    32    1
    29    32    33    1
    30    33    34    1
    31    33    35    1
    32    35    36    1
    33    35    37    1
    34    35    29    1
    35    27    22   ar
    36    10     5   ar
    37    20    14   ar
    38     1     4    1
    39    11    12    1
    40    11    13    1
    41    34    38    1
    42    37    39    1
