@<TRIPOS>MOLECULE
*****
 25 25 0 0 0
SMALL
GASTEIGER

@<TRIPOS>ATOM
      1 C          -4.7396  -15.3908   23.6584 C.3     1  UNL1        0.0737
      2 N          -6.1684  -14.9557   23.5187 N.3     1  UNL1       -0.2895
      3 H          -6.2077  -14.3276   22.7160 H       1  UNL1        0.1237
      4 C          -7.2479  -15.9783   23.3216 C.3     1  UNL1        0.1552
      5 C          -8.3032  -15.7631   22.2776 C.2     1  UNL1        0.2418
      6 O          -8.0827  -14.7607   21.1837 O.2     1  UNL1       -0.2734
      7 N          -9.5792  -16.5503   22.3275 N.am    1  UNL1       -0.2784
      8 C         -10.6345  -16.3351   21.2836 C.3     1  UNL1        0.0934
      9 C         -12.0848  -16.4539   21.6476 C.3     1  UNL1        0.0215
     10 C         -12.8177  -17.7389   21.3988 C.3     1  UNL1        0.0018
     11 C          -9.7997  -17.5527   23.4214 C.3     1  UNL1        0.0934
     12 C          -9.4178  -18.9880   23.2117 C.3     1  UNL1        0.0215
     13 C         -10.4767  -20.0501   23.1882 C.3     1  UNL1        0.0018
     14 C          -4.4209  -16.7923   24.0874 C.3     1  UNL1        0.0435
     15 C          -4.3508  -19.6752   21.3608 C.ar    1  UNL1        0.1382
     16 C          -2.8794  -19.7687   21.0850 C.ar    1  UNL1        0.0369
     17 C          -1.9218  -18.8702   21.8100 C.ar    1  UNL1        0.0028
     18 C          -2.4356  -17.8780   22.8108 C.ar    1  UNL1       -0.0040
     19 C          -3.9070  -17.7845   23.0866 C.ar    1  UNL1       -0.0178
     20 C          -4.8646  -18.6830   22.3616 C.ar    1  UNL1        0.0327
     21 O          -5.3084  -20.5737   20.6358 O.3     1  UNL1       -0.4755
     22 C          -6.7870  -20.3852   20.8034 C.3     1  UNL1        0.2054
     23 C          -7.5109  -19.3626   19.9787 C.3     1  UNL1        0.0473
     24 C         -10.0537  -19.5116   19.4669 C.3     1  UNL1        0.0001
     25 C          -8.6317  -19.7844   19.0753 C.3     1  UNL1        0.0038
@<TRIPOS>BOND
     1    24    25    1
     2    25    23    1
     3    23    22    1
     4    22    21    1
     5    21    15    1
     6    15    16   ar
     7    16    17   ar
     8    17    18   ar
     9    18    19   ar
    10    19    14    1
    11    14     1    1
    12     1     2    1
    13     2     4    1
    14     4     5    1
    15     5     6    2
    16     5     7   am
    17     7     8    1
    18     8     9    1
    19     9    10    1
    20     7    11    1
    21    11    12    1
    22    12    13    1
    23    19    20   ar
    24    20    15   ar
    25     2     3    1
@<TRIPOS>MOLECULE
*****
 25 25 0 0 0
SMALL
GASTEIGER

@<TRIPOS>ATOM
      1 C          -7.6013  -19.3936   20.3489 C.3     1  UNL1        0.0737
      2 N          -8.5362  -19.3968   19.1758 N.3     1  UNL1       -0.2895
      3 H          -8.3372  -20.2435   18.6431 H       1  UNL1        0.1237
      4 C         -10.0191  -19.3638   19.3985 C.3     1  UNL1        0.1552
      5 C         -10.6262  -18.2863   20.2473 C.2     1  UNL1        0.2418
      6 O         -10.8438  -16.9159   19.6774 O.2     1  UNL1       -0.2734
      7 N         -11.0157  -18.5791   21.6660 N.am    1  UNL1       -0.2784
      8 C         -11.6228  -17.5017   22.5147 C.3     1  UNL1        0.0934
      9 C         -13.1043  -17.4762   22.7481 C.3     1  UNL1        0.0215
     10 C         -13.6742  -18.0467   24.0129 C.3     1  UNL1        0.0018
     11 C         -10.7981  -19.9495   22.2358 C.3     1  UNL1        0.0934
     12 C          -9.7383  -20.1704   23.2740 C.3     1  UNL1        0.0215
     13 C         -10.0780  -20.0497   24.7301 C.3     1  UNL1        0.0018
     14 C          -6.3647  -20.2422   20.3247 C.3     1  UNL1        0.0435
     15 C          -3.9118  -18.3209   22.7829 C.ar    1  UNL1        0.1382
     16 C          -2.5788  -18.7570   22.2512 C.ar    1  UNL1        0.0369
     17 C          -2.5076  -19.6881   21.0774 C.ar    1  UNL1        0.0028
     18 C          -3.7696  -20.1832   20.4352 C.ar    1  UNL1       -0.0040
     19 C          -5.1026  -19.7471   20.9669 C.ar    1  UNL1       -0.0178
     20 C          -5.1738  -18.8160   22.1408 C.ar    1  UNL1        0.0327
     21 O          -3.9830  -17.3898   23.9568 O.3     1  UNL1       -0.4755
     22 C          -4.9452  -16.2392   23.9442 C.3     1  UNL1        0.2054
     23 C          -5.2610  -15.5116   25.2173 C.3     1  UNL1        0.0473
     24 C          -6.7810  -15.2148   27.3034 C.3     1  UNL1        0.0001
     25 C          -6.5548  -15.7735   25.9298 C.3     1  UNL1        0.0038
@<TRIPOS>BOND
     1    24    25    1
     2    25    23    1
     3    23    22    1
     4    22    21    1
     5    21    15    1
     6    15    16   ar
     7    16    17   ar
     8    17    18   ar
     9    18    19   ar
    10    19    14    1
    11    14     1    1
    12     1     2    1
    13     2     4    1
    14     4     5    1
    15     5     6    2
    16     5     7   am
    17     7     8    1
    18     8     9    1
    19     9    10    1
    20     7    11    1
    21    11    12    1
    22    12    13    1
    23    19    20   ar
    24    20    15   ar
    25     2     3    1
@<TRIPOS>MOLECULE
*****
 25 25 0 0 0
SMALL
GASTEIGER

@<TRIPOS>ATOM
      1 C          -6.7003  -19.8218   19.7923 C.3     1  UNL1        0.0737
      2 N          -7.6600  -18.7479   20.2118 N.3     1  UNL1       -0.2895
      3 H          -8.1441  -18.4398   19.3686 H       1  UNL1        0.1237
      4 C          -8.7169  -19.0442   21.2341 C.3     1  UNL1        0.1552
      5 C         -10.0704  -18.4080   21.1195 C.2     1  UNL1        0.2418
      6 O         -11.1872  -19.1389   20.4349 O.2     1  UNL1       -0.2734
      7 N         -10.3072  -17.0408   21.6895 N.am    1  UNL1       -0.2784
      8 C         -11.6607  -16.4046   21.5749 C.3     1  UNL1        0.0934
      9 C         -12.6210  -16.4724   22.7251 C.3     1  UNL1        0.0215
     10 C         -13.0930  -17.8035   23.2307 C.3     1  UNL1        0.0018
     11 C          -9.1904  -16.3099   22.3740 C.3     1  UNL1        0.0934
     12 C          -9.0688  -16.3560   23.8683 C.3     1  UNL1        0.0215
     13 C          -9.5106  -17.5769   24.6195 C.3     1  UNL1        0.0018
     14 C          -5.7992  -20.4607   20.8071 C.3     1  UNL1        0.0435
     15 C          -3.9443  -17.8547   23.1560 C.ar    1  UNL1        0.1382
     16 C          -2.5192  -18.0569   22.7339 C.ar    1  UNL1        0.0369
     17 C          -2.1874  -19.0604   21.6695 C.ar    1  UNL1        0.0028
     18 C          -3.2808  -19.8616   21.0272 C.ar    1  UNL1       -0.0040
     19 C          -4.7058  -19.6594   21.4493 C.ar    1  UNL1       -0.0178
     20 C          -5.0376  -18.6559   22.5138 C.ar    1  UNL1        0.0327
     21 O          -4.2760  -16.8512   24.2204 O.3     1  UNL1       -0.4755
     22 C          -5.2405  -15.7400   23.9292 C.3     1  UNL1        0.2054
     23 C          -5.9417  -15.0408   25.0559 C.3     1  UNL1        0.0473
     24 C          -7.1821  -15.4978   27.2926 C.3     1  UNL1        0.0001
     25 C          -5.9726  -15.6623   26.4208 C.3     1  UNL1        0.0038
@<TRIPOS>BOND
     1    24    25    1
     2    25    23    1
     3    23    22    1
     4    22    21    1
     5    21    15    1
     6    15    16   ar
     7    16    17   ar
     8    17    18   ar
     9    18    19   ar
    10    19    14    1
    11    14     1    1
    12     1     2    1
    13     2     4    1
    14     4     5    1
    15     5     6    2
    16     5     7   am
    17     7     8    1
    18     8     9    1
    19     9    10    1
    20     7    11    1
    21    11    12    1
    22    12    13    1
    23    19    20   ar
    24    20    15   ar
    25     2     3    1
@<TRIPOS>MOLECULE
*****
 25 25 0 0 0
SMALL
GASTEIGER

@<TRIPOS>ATOM
      1 C          -7.0850  -15.3874   24.1979 C.3     1  UNL1        0.0737
      2 N          -6.3355  -16.2972   23.2702 N.3     1  UNL1       -0.2895
      3 H          -6.1373  -15.7592   22.4266 H       1  UNL1        0.1237
      4 C          -5.0385  -16.9109   23.7072 C.3     1  UNL1        0.1552
      5 C          -3.9852  -17.2410   22.6916 C.2     1  UNL1        0.2418
      6 O          -2.9324  -16.2297   22.3470 O.2     1  UNL1       -0.2734
      7 N          -3.9847  -18.5826   22.0204 N.am    1  UNL1       -0.2784
      8 C          -2.9314  -18.9127   21.0048 C.3     1  UNL1        0.0934
      9 C          -3.1163  -18.5054   19.5730 C.3     1  UNL1        0.0215
     10 C          -1.9729  -17.9043   18.8106 C.3     1  UNL1        0.0018
     11 C          -5.0375  -19.5939   22.3650 C.3     1  UNL1        0.0934
     12 C          -6.3085  -19.6538   21.5707 C.3     1  UNL1        0.0215
     13 C          -7.6322  -19.5119   22.2618 C.3     1  UNL1        0.0018
     14 C          -8.0826  -15.9565   25.1627 C.3     1  UNL1        0.0435
     15 C         -11.1563  -17.2649   23.0201 C.ar    1  UNL1        0.1382
     16 C         -11.4071  -18.5948   23.6670 C.ar    1  UNL1        0.0369
     17 C         -10.5498  -19.0452   24.8125 C.ar    1  UNL1        0.0028
     18 C          -9.4417  -18.1658   25.3110 C.ar    1  UNL1       -0.0040
     19 C          -9.1908  -16.8360   24.6641 C.ar    1  UNL1       -0.0178
     20 C         -10.0481  -16.3855   23.5187 C.ar    1  UNL1        0.0327
     21 O         -12.0136  -16.8145   21.8746 O.3     1  UNL1       -0.4755
     22 C         -11.8273  -17.4199   20.5150 C.3     1  UNL1        0.2054
     23 C         -10.5127  -18.0395   20.1436 C.3     1  UNL1        0.0473
     24 C          -9.3277  -20.0161   18.9440 C.3     1  UNL1        0.0001
     25 C         -10.4400  -19.4997   19.8077 C.3     1  UNL1        0.0038
@<TRIPOS>BOND
     1    24    25    1
     2    25    23    1
     3    23    22    1
     4    22    21    1
     5    21    15    1
     6    15    16   ar
     7    16    17   ar
     8    17    18   ar
     9    18    19   ar
    10    19    14    1
    11    14     1    1
    12     1     2    1
    13     2     4    1
    14     4     5    1
    15     5     6    2
    16     5     7   am
    17     7     8    1
    18     8     9    1
    19     9    10    1
    20     7    11    1
    21    11    12    1
    22    12    13    1
    23    19    20   ar
    24    20    15   ar
    25     2     3    1
@<TRIPOS>MOLECULE
*****
 25 25 0 0 0
SMALL
GASTEIGER

@<TRIPOS>ATOM
      1 C          -4.2891  -16.3625   23.5656 C.3     1  UNL1        0.0737
      2 N          -5.4491  -15.8601   24.3730 N.3     1  UNL1       -0.2895
      3 H          -5.0649  -15.2415   25.0872 H       1  UNL1        0.1237
      4 C          -6.5606  -15.1089   23.7020 C.3     1  UNL1        0.1552
      5 C          -7.7449  -15.8506   23.1569 C.2     1  UNL1        0.2418
      6 O          -7.7374  -16.3366   21.7378 O.2     1  UNL1       -0.2734
      7 N          -8.9369  -16.1064   24.0309 N.am    1  UNL1       -0.2784
      8 C         -10.1212  -16.8482   23.4859 C.3     1  UNL1        0.0934
      9 C         -11.2026  -16.1045   22.7596 C.3     1  UNL1        0.0215
     10 C         -11.2756  -16.1602   21.2623 C.3     1  UNL1        0.0018
     11 C          -8.9444  -15.6205   25.4500 C.3     1  UNL1        0.0934
     12 C          -8.4369  -16.5064   26.5489 C.3     1  UNL1        0.0215
     13 C          -7.3381  -16.0280   27.4509 C.3     1  UNL1        0.0018
     14 C          -3.8831  -17.8039   23.6525 C.3     1  UNL1        0.0435
     15 C          -5.6238  -19.9060   20.7713 C.ar    1  UNL1        0.1382
     16 C          -4.4272  -20.5127   20.1006 C.ar    1  UNL1        0.0369
     17 C          -3.0492  -20.2165   20.6138 C.ar    1  UNL1        0.0028
     18 C          -2.8678  -19.3136   21.7977 C.ar    1  UNL1       -0.0040
     19 C          -4.0644  -18.7069   22.4685 C.ar    1  UNL1       -0.0178
     20 C          -5.4424  -19.0030   21.9553 C.ar    1  UNL1        0.0327
     21 O          -7.0018  -20.2021   20.2581 O.3     1  UNL1       -0.4755
     22 C          -8.1791  -19.4368   20.7855 C.3     1  UNL1        0.2054
     23 C          -9.3809  -19.2159   19.9154 C.3     1  UNL1        0.0473
     24 C         -10.9696  -20.0634   21.7882 C.3     1  UNL1        0.0001
     25 C         -10.7237  -19.7260   20.3475 C.3     1  UNL1        0.0038
@<TRIPOS>BOND
     1    24    25    1
     2    25    23    1
     3    23    22    1
     4    22    21    1
     5    21    15    1
     6    15    16   ar
     7    16    17   ar
     8    17    18   ar
     9    18    19   ar
    10    19    14    1
    11    14     1    1
    12     1     2    1
    13     2     4    1
    14     4     5    1
    15     5     6    2
    16     5     7   am
    17     7     8    1
    18     8     9    1
    19     9    10    1
    20     7    11    1
    21    11    12    1
    22    12    13    1
    23    19    20   ar
    24    20    15   ar
    25     2     3    1
@<TRIPOS>MOLECULE
*****
 25 25 0 0 0
SMALL
GASTEIGER

@<TRIPOS>ATOM
      1 C          -6.1510  -15.1454   24.3413 C.3     1  UNL1        0.0737
      2 N          -4.9314  -15.5515   23.5681 N.3     1  UNL1       -0.2895
      3 H          -4.1555  -14.9963   23.9290 H       1  UNL1        0.1237
      4 C          -4.4805  -16.9820   23.5757 C.3     1  UNL1        0.1552
      5 C          -3.4966  -17.4637   22.5510 C.2     1  UNL1        0.2418
      6 O          -2.3414  -16.5935   22.1533 O.2     1  UNL1       -0.2734
      7 N          -3.6680  -18.8155   21.9239 N.am    1  UNL1       -0.2784
      8 C          -2.6841  -19.2972   20.8993 C.3     1  UNL1        0.0934
      9 C          -2.8162  -18.8617   19.4700 C.3     1  UNL1        0.0215
     10 C          -1.8174  -17.9103   18.8805 C.3     1  UNL1        0.0018
     11 C          -4.8232  -19.6857   22.3216 C.3     1  UNL1        0.0934
     12 C          -5.8898  -20.0198   21.3213 C.3     1  UNL1        0.0215
     13 C          -6.3465  -18.9835   20.3375 C.3     1  UNL1        0.0018
     14 C          -7.5106  -15.2798   23.7224 C.3     1  UNL1        0.0435
     15 C          -9.3770  -18.7080   23.0055 C.ar    1  UNL1        0.1382
     16 C          -9.9163  -19.0275   24.3682 C.ar    1  UNL1        0.0369
     17 C          -9.6538  -18.0977   25.5157 C.ar    1  UNL1        0.0028
     18 C          -8.8519  -16.8485   25.3004 C.ar    1  UNL1       -0.0040
     19 C          -8.3126  -16.5291   23.9377 C.ar    1  UNL1       -0.0178
     20 C          -8.5751  -17.4588   22.7902 C.ar    1  UNL1        0.0327
     21 O          -9.6396  -19.6378   21.8581 O.3     1  UNL1       -0.4755
     22 C         -10.9341  -19.5529   21.1051 C.3     1  UNL1        0.2054
     23 C         -11.5301  -18.2137   20.7866 C.3     1  UNL1        0.0473
     24 C         -12.7756  -17.3429   22.8938 C.3     1  UNL1        0.0001
     25 C         -12.7985  -17.7784   21.4586 C.3     1  UNL1        0.0038
@<TRIPOS>BOND
     1    24    25    1
     2    25    23    1
     3    23    22    1
     4    22    21    1
     5    21    15    1
     6    15    16   ar
     7    16    17   ar
     8    17    18   ar
     9    18    19   ar
    10    19    14    1
    11    14     1    1
    12     1     2    1
    13     2     4    1
    14     4     5    1
    15     5     6    2
    16     5     7   am
    17     7     8    1
    18     8     9    1
    19     9    10    1
    20     7    11    1
    21    11    12    1
    22    12    13    1
    23    19    20   ar
    24    20    15   ar
    25     2     3    1
@<TRIPOS>MOLECULE
*****
 25 25 0 0 0
SMALL
GASTEIGER

@<TRIPOS>ATOM
      1 C          -4.1438  -17.0144   23.5842 C.3     1  UNL1        0.0737
      2 N          -4.6477  -17.7887   22.4024 N.3     1  UNL1       -0.2895
      3 H          -3.9209  -18.4619   22.1599 H       1  UNL1        0.1237
      4 C          -5.9330  -18.5557   22.5010 C.3     1  UNL1        0.1552
      5 C          -6.9406  -18.4762   21.3927 C.2     1  UNL1        0.2418
      6 O          -7.7612  -17.2335   21.2127 O.2     1  UNL1       -0.2734
      7 N          -7.1277  -19.6395   20.4643 N.am    1  UNL1       -0.2784
      8 C          -8.1353  -19.5601   19.3560 C.3     1  UNL1        0.0934
      9 C          -9.5829  -19.8343   19.6375 C.3     1  UNL1        0.0215
     10 C         -10.5572  -18.6976   19.7313 C.3     1  UNL1        0.0018
     11 C          -6.3071  -20.8822   20.6443 C.3     1  UNL1        0.0934
     12 C          -5.0721  -21.0915   19.8193 C.3     1  UNL1        0.0215
     13 C          -3.8179  -20.3341   20.1410 C.3     1  UNL1        0.0018
     14 C          -4.7554  -15.6887   23.9284 C.3     1  UNL1        0.0435
     15 C          -8.5438  -15.6498   25.1105 C.ar    1  UNL1        0.1382
     16 C          -8.3763  -15.5055   26.5941 C.ar    1  UNL1        0.0369
     17 C          -7.0019  -15.4223   27.1892 C.ar    1  UNL1        0.0028
     18 C          -5.7950  -15.4834   26.3006 C.ar    1  UNL1       -0.0040
     19 C          -5.9624  -15.6276   24.8170 C.ar    1  UNL1       -0.0178
     20 C          -7.3368  -15.7108   24.2220 C.ar    1  UNL1        0.0327
     21 O          -9.9182  -15.7330   24.5154 O.3     1  UNL1       -0.4755
     22 C         -10.2432  -16.8130   23.5266 C.3     1  UNL1        0.2054
     23 C         -11.5749  -16.8219   22.8364 C.3     1  UNL1        0.0473
     24 C         -13.6865  -17.9470   23.8491 C.3     1  UNL1        0.0001
     25 C         -12.4776  -18.0132   22.9635 C.3     1  UNL1        0.0038
@<TRIPOS>BOND
     1    24    25    1
     2    25    23    1
     3    23    22    1
     4    22    21    1
     5    21    15    1
     6    15    16   ar
     7    16    17   ar
     8    17    18   ar
     9    18    19   ar
    10    19    14    1
    11    14     1    1
    12     1     2    1
    13     2     4    1
    14     4     5    1
    15     5     6    2
    16     5     7   am
    17     7     8    1
    18     8     9    1
    19     9    10    1
    20     7    11    1
    21    11    12    1
    22    12    13    1
    23    19    20   ar
    24    20    15   ar
    25     2     3    1
@<TRIPOS>MOLECULE
*****
 25 25 0 0 0
SMALL
GASTEIGER

@<TRIPOS>ATOM
      1 C          -5.0731  -15.5786   23.8008 C.3     1  UNL1        0.0737
      2 N          -4.9626  -16.9301   23.1593 N.3     1  UNL1       -0.2895
      3 H          -5.2073  -16.8103   22.1763 H       1  UNL1        0.1237
      4 C          -3.6596  -17.6724   23.1938 C.3     1  UNL1        0.1552
      5 C          -2.6137  -17.4003   22.1536 C.2     1  UNL1        0.2418
      6 O          -2.0084  -16.0327   22.0383 O.2     1  UNL1       -0.2734
      7 N          -2.1731  -18.4959   21.2285 N.am    1  UNL1       -0.2784
      8 C          -1.1272  -18.2239   20.1883 C.3     1  UNL1        0.0934
      9 C          -1.5332  -17.9473   18.7711 C.3     1  UNL1        0.0215
     10 C          -2.8118  -17.2164   18.4861 C.3     1  UNL1        0.0018
     11 C          -2.7784  -19.8635   21.3438 C.3     1  UNL1        0.0934
     12 C          -3.7685  -20.3342   20.3200 C.3     1  UNL1        0.0215
     13 C          -5.1776  -19.8208   20.3478 C.3     1  UNL1        0.0018
     14 C          -6.4225  -15.0143   24.1331 C.3     1  UNL1        0.0435
     15 C          -9.3555  -17.4608   25.2112 C.ar    1  UNL1        0.1382
     16 C          -9.2720  -17.3622   26.7056 C.ar    1  UNL1        0.0369
     17 C          -8.2386  -16.4810   27.3425 C.ar    1  UNL1        0.0028
     18 C          -7.2888  -15.6984   26.4851 C.ar    1  UNL1       -0.0040
     19 C          -7.3724  -15.7969   24.9907 C.ar    1  UNL1       -0.0178
     20 C          -8.4057  -16.6781   24.3538 C.ar    1  UNL1        0.0327
     21 O         -10.3889  -18.3419   24.5743 O.3     1  UNL1       -0.4755
     22 C          -9.9813  -19.6396   23.9420 C.3     1  UNL1        0.2054
     23 C         -10.7394  -20.1692   22.7610 C.3     1  UNL1        0.0473
     24 C         -10.6595  -19.5624   20.2360 C.3     1  UNL1        0.0001
     25 C         -11.1077  -19.2512   21.6332 C.3     1  UNL1        0.0038
@<TRIPOS>BOND
     1    24    25    1
     2    25    23    1
     3    23    22    1
     4    22    21    1
     5    21    15    1
     6    15    16   ar
     7    16    17   ar
     8    17    18   ar
     9    18    19   ar
    10    19    14    1
    11    14     1    1
    12     1     2    1
    13     2     4    1
    14     4     5    1
    15     5     6    2
    16     5     7   am
    17     7     8    1
    18     8     9    1
    19     9    10    1
    20     7    11    1
    21    11    12    1
    22    12    13    1
    23    19    20   ar
    24    20    15   ar
    25     2     3    1
@<TRIPOS>MOLECULE
*****
 25 25 0 0 0
SMALL
GASTEIGER

@<TRIPOS>ATOM
      1 C          -8.8358  -19.8515   19.1067 C.3     1  UNL1        0.0737
      2 N          -7.8189  -18.9410   19.7289 N.3     1  UNL1       -0.2895
      3 H          -8.2781  -18.4796   20.5141 H       1  UNL1        0.1237
      4 C          -6.5293  -19.5022   20.2504 C.3     1  UNL1        0.1552
      5 C          -5.8508  -18.8580   21.4228 C.2     1  UNL1        0.2418
      6 O          -6.6281  -17.9595   22.3385 O.2     1  UNL1       -0.2734
      7 N          -4.3949  -19.1123   21.6796 N.am    1  UNL1       -0.2784
      8 C          -3.7164  -18.4681   22.8520 C.3     1  UNL1        0.0934
      9 C          -3.4457  -16.9928   22.8442 C.3     1  UNL1        0.0215
     10 C          -2.2820  -16.4479   22.0702 C.3     1  UNL1        0.0018
     11 C          -3.6176  -20.0108   20.7639 C.3     1  UNL1        0.0934
     12 C          -2.9032  -19.4354   19.5772 C.3     1  UNL1        0.0215
     13 C          -3.2260  -18.0478   19.1077 C.3     1  UNL1        0.0018
     14 C         -10.2949  -19.6522   19.3918 C.3     1  UNL1        0.0435
     15 C         -10.9460  -17.5614   22.7015 C.ar    1  UNL1        0.1382
     16 C         -11.6192  -16.3442   22.1401 C.ar    1  UNL1        0.0369
     17 C         -11.8511  -16.2297   20.6625 C.ar    1  UNL1        0.0028
     18 C         -11.4096  -17.3324   19.7464 C.ar    1  UNL1       -0.0040
     19 C         -10.7364  -18.5495   20.3079 C.ar    1  UNL1       -0.0178
     20 C         -10.5045  -18.6640   21.7854 C.ar    1  UNL1        0.0327
     21 O         -10.7141  -17.6758   24.1791 O.3     1  UNL1       -0.4755
     22 C          -9.3553  -17.3952   24.7490 C.3     1  UNL1        0.2054
     23 C          -8.8931  -15.9790   24.9237 C.3     1  UNL1        0.0473
     24 C          -8.2442  -15.3545   27.3607 C.3     1  UNL1        0.0001
     25 C          -7.8449  -15.6528   25.9459 C.3     1  UNL1        0.0038
@<TRIPOS>BOND
     1    24    25    1
     2    25    23    1
     3    23    22    1
     4    22    21    1
     5    21    15    1
     6    15    16   ar
     7    16    17   ar
     8    17    18   ar
     9    18    19   ar
    10    19    14    1
    11    14     1    1
    12     1     2    1
    13     2     4    1
    14     4     5    1
    15     5     6    2
    16     5     7   am
    17     7     8    1
    18     8     9    1
    19     9    10    1
    20     7    11    1
    21    11    12    1
    22    12    13    1
    23    19    20   ar
    24    20    15   ar
    25     2     3    1
