@<TRIPOS>MOLECULE
*****
 32 36 0 0 0
SMALL
GASTEIGER

@<TRIPOS>ATOM
      1 C          -0.8871  -17.3058   19.8765 C.2     1  UNL1        0.2419
      2 O           0.0673  -16.2005   20.2190 O.2     1  UNL1       -0.2734
      3 N          -2.1652  -17.4587   20.6467 N.am    1  UNL1       -0.2694
      4 C          -3.1196  -18.5639   20.3041 C.3     1  UNL1        0.1184
      5 C          -4.3977  -18.7168   21.0743 C.3     1  UNL1        0.1299
      6 N          -4.7213  -17.7645   22.1871 N.ar    1  UNL1       -0.3005
      7 C          -3.7669  -16.6592   22.5296 C.ar    1  UNL1        0.1416
      8 N          -4.3514  -15.8786   23.6694 N.ar    1  UNL1       -0.2279
      9 C          -5.6670  -16.5014   24.0313 C.ar    1  UNL1        0.1125
     10 C          -5.8957  -17.6670   23.1151 C.ar    1  UNL1        0.1318
     11 C          -2.4888  -16.5063   21.7594 C.3     1  UNL1        0.1578
     12 C          -6.5918  -16.0399   25.1184 C.ar    1  UNL1        0.0204
     13 C          -8.0140  -15.6896   24.7948 C.ar    1  UNL1        0.0016
     14 C          -8.9387  -15.2280   25.8818 C.ar    1  UNL1        0.0000
     15 C          -8.4413  -15.1167   27.2925 C.ar    1  UNL1        0.0000
     16 C          -7.0191  -15.4670   27.6162 C.ar    1  UNL1        0.0000
     17 C          -6.0944  -15.9286   26.5291 C.ar    1  UNL1        0.0016
     18 N          -0.8850  -17.8913   17.3453 N.3     1  UNL1       -0.3135
     19 C          -0.5635  -18.2582   18.7638 C.3     1  UNL1        0.1517
     20 H          -0.5993  -18.6490   16.7250 H       1  UNL1        0.1193
     21 H          -0.3853  -17.0387   17.0930 H       1  UNL1        0.1193
     22 N          -7.0891  -18.5755   23.1253 N.pl3   1  UNL1       -0.2979
     23 H          -7.1306  -19.3266   23.7605 H       1  UNL1        0.1536
     24 C          -8.2194  -18.3399   22.1677 C.ar    1  UNL1        0.0526
     25 C          -8.4076  -19.2507   20.9908 C.ar    1  UNL1        0.0180
     26 C          -9.5378  -19.0151   20.0332 C.ar    1  UNL1        0.0415
     27 C         -10.4799  -17.8686   20.2524 C.ar    1  UNL1        0.1765
     28 C         -10.2917  -16.9577   21.4292 C.ar    1  UNL1        0.1777
     29 C          -9.1614  -17.1934   22.3869 C.ar    1  UNL1        0.0548
     30 O         -11.3715  -15.9173   21.3875 O.3     1  UNL1       -0.4346
     31 C         -12.2269  -16.1852   20.1848 C.3     1  UNL1        0.4294
     32 O         -11.6759  -17.3912   19.4833 O.3     1  UNL1       -0.4346
@<TRIPOS>BOND
     1    18    19    1
     2    19     1    1
     3     1     2    2
     4     1     3   am
     5     3     4    1
     6     4     5    1
     7     5     6    1
     8     6     7   ar
     9     7     8   ar
    10     8     9   ar
    11     9    12    1
    12    12    13   ar
    13    13    14   ar
    14    14    15   ar
    15    15    16   ar
    16    16    17   ar
    17     9    10   ar
    18    10    22    1
    19    22    24    1
    20    24    25   ar
    21    25    26   ar
    22    26    27   ar
    23    27    28   ar
    24    28    29   ar
    25    28    30    1
    26    30    31    1
    27    31    32    1
    28     7    11    1
    29    11     3    1
    30    10     6   ar
    31    29    24   ar
    32    17    12   ar
    33    32    27    1
    34    18    20    1
    35    18    21    1
    36    22    23    1
@<TRIPOS>MOLECULE
*****
 32 36 0 0 0
SMALL
GASTEIGER

@<TRIPOS>ATOM
      1 C          -9.3598  -20.2053   18.4864 C.2     1  UNL1        0.2419
      2 O         -10.7844  -19.7483   18.3790 O.2     1  UNL1       -0.2734
      3 N          -8.4938  -19.7049   19.6043 N.am    1  UNL1       -0.2694
      4 C          -7.0692  -20.1619   19.7117 C.3     1  UNL1        0.1184
      5 C          -6.2033  -19.6614   20.8295 C.3     1  UNL1        0.1299
      6 N          -6.7619  -18.7040   21.8400 N.ar    1  UNL1       -0.3005
      7 C          -8.1865  -18.2470   21.7327 C.ar    1  UNL1        0.1416
      8 N          -8.4581  -17.3052   22.8682 N.ar    1  UNL1       -0.2279
      9 C          -7.2013  -17.1801   23.6773 C.ar    1  UNL1        0.1125
     10 C          -6.1530  -18.0447   23.0419 C.ar    1  UNL1        0.1318
     11 C          -9.0525  -18.7474   20.6148 C.3     1  UNL1        0.1578
     12 C          -7.0238  -16.3384   24.9062 C.ar    1  UNL1        0.0204
     13 C          -8.1461  -16.2051   25.8925 C.ar    1  UNL1        0.0016
     14 C          -7.9687  -15.3635   27.1213 C.ar    1  UNL1        0.0000
     15 C          -6.6690  -14.6550   27.3638 C.ar    1  UNL1        0.0000
     16 C          -5.5467  -14.7883   26.3776 C.ar    1  UNL1        0.0000
     17 C          -5.7241  -15.6300   25.1488 C.ar    1  UNL1        0.0016
     18 N          -9.6066  -21.5295   16.2648 N.3     1  UNL1       -0.3135
     19 C          -8.8012  -21.1628   17.4759 C.3     1  UNL1        0.1517
     20 H          -9.0774  -22.1857   15.6905 H       1  UNL1        0.1193
     21 H          -9.8078  -20.6891   15.7230 H       1  UNL1        0.1193
     22 N          -4.7432  -18.2192   23.5237 N.pl3   1  UNL1       -0.2979
     23 H          -4.5710  -18.6128   24.4095 H       1  UNL1        0.1536
     24 C          -3.5960  -17.7941   22.6560 C.ar    1  UNL1        0.0526
     25 C          -3.1896  -16.3510   22.6038 C.ar    1  UNL1        0.0180
     26 C          -2.0423  -15.9258   21.7361 C.ar    1  UNL1        0.0415
     27 C          -1.3013  -16.9435   20.9206 C.ar    1  UNL1        0.1765
     28 C          -1.7076  -18.3865   20.9728 C.ar    1  UNL1        0.1777
     29 C          -2.8549  -18.8118   21.8405 C.ar    1  UNL1        0.0548
     30 O          -0.7963  -19.1578   20.0647 O.3     1  UNL1       -0.4346
     31 C           0.1732  -18.1915   19.4513 C.3     1  UNL1        0.4294
     32 O          -0.1389  -16.8230   19.9803 O.3     1  UNL1       -0.4346
@<TRIPOS>BOND
     1    18    19    1
     2    19     1    1
     3     1     2    2
     4     1     3   am
     5     3     4    1
     6     4     5    1
     7     5     6    1
     8     6     7   ar
     9     7     8   ar
    10     8     9   ar
    11     9    12    1
    12    12    13   ar
    13    13    14   ar
    14    14    15   ar
    15    15    16   ar
    16    16    17   ar
    17     9    10   ar
    18    10    22    1
    19    22    24    1
    20    24    25   ar
    21    25    26   ar
    22    26    27   ar
    23    27    28   ar
    24    28    29   ar
    25    28    30    1
    26    30    31    1
    27    31    32    1
    28     7    11    1
    29    11     3    1
    30    10     6   ar
    31    29    24   ar
    32    17    12   ar
    33    32    27    1
    34    18    20    1
    35    18    21    1
    36    22    23    1
@<TRIPOS>MOLECULE
*****
 32 36 0 0 0
SMALL
GASTEIGER

@<TRIPOS>ATOM
      1 C           7.7355   -7.2253   27.1013 C.2     1  UNL1        0.2419
      2 O           8.0068   -8.4435   27.9333 O.2     1  UNL1       -0.2734
      3 N           7.3452   -5.9369   27.7629 N.am    1  UNL1       -0.2694
      4 C           7.0739   -4.7187   26.9309 C.3     1  UNL1        0.1184
      5 C           6.6836   -3.4303   27.5925 C.3     1  UNL1        0.1299
      6 N           6.5646   -3.3601   29.0861 N.ar    1  UNL1       -0.3005
      7 C           6.8359   -4.5784   29.9181 C.ar    1  UNL1        0.1416
      8 N           6.6401   -4.2089   31.3587 N.ar    1  UNL1       -0.2279
      9 C           6.2478   -2.7623   31.4169 C.ar    1  UNL1        0.1125
     10 C           6.2011   -2.2377   30.0124 C.ar    1  UNL1        0.1318
     11 C           7.2262   -5.8667   29.2565 C.3     1  UNL1        0.1578
     12 C           5.9537   -1.9779   32.6613 C.ar    1  UNL1        0.0204
     13 C           4.6148   -2.1005   33.3262 C.ar    1  UNL1        0.0016
     14 C           4.3207   -1.3161   34.5705 C.ar    1  UNL1        0.0000
     15 C           5.3655   -0.4092   35.1498 C.ar    1  UNL1        0.0000
     16 C           6.7045   -0.2866   34.4849 C.ar    1  UNL1        0.0000
     17 C           6.9986   -1.0709   33.2406 C.ar    1  UNL1        0.0016
     18 N           9.1743   -7.0273   24.9471 N.3     1  UNL1       -0.3135
     19 C           7.8546   -7.2955   25.6077 C.3     1  UNL1        0.1517
     20 H           9.0730   -7.1177   23.9361 H       1  UNL1        0.1193
     21 H           9.8646   -7.6997   25.2811 H       1  UNL1        0.1193
     22 N           5.8523   -0.8367   29.6056 N.pl3   1  UNL1       -0.2979
     23 H           6.5258   -0.2700   29.1648 H       1  UNL1        0.1536
     24 C           4.4772   -0.2992   29.8704 C.ar    1  UNL1        0.0526
     25 C           4.2479    0.6439   31.0141 C.ar    1  UNL1        0.0180
     26 C           2.8728    1.1814   31.2789 C.ar    1  UNL1        0.0415
     27 C           1.7269    0.7759   30.4001 C.ar    1  UNL1        0.1765
     28 C           1.9561   -0.1672   29.2564 C.ar    1  UNL1        0.1777
     29 C           3.3312   -0.7048   28.9915 C.ar    1  UNL1        0.0548
     30 O           0.6426   -0.3862   28.5658 O.3     1  UNL1       -0.4346
     31 C          -0.3983    0.4216   29.2827 C.3     1  UNL1        0.4294
     32 O           0.2718    1.1398   30.4163 O.3     1  UNL1       -0.4346
@<TRIPOS>BOND
     1    18    19    1
     2    19     1    1
     3     1     2    2
     4     1     3   am
     5     3     4    1
     6     4     5    1
     7     5     6    1
     8     6     7   ar
     9     7     8   ar
    10     8     9   ar
    11     9    12    1
    12    12    13   ar
    13    13    14   ar
    14    14    15   ar
    15    15    16   ar
    16    16    17   ar
    17     9    10   ar
    18    10    22    1
    19    22    24    1
    20    24    25   ar
    21    25    26   ar
    22    26    27   ar
    23    27    28   ar
    24    28    29   ar
    25    28    30    1
    26    30    31    1
    27    31    32    1
    28     7    11    1
    29    11     3    1
    30    10     6   ar
    31    29    24   ar
    32    17    12   ar
    33    32    27    1
    34    18    20    1
    35    18    21    1
    36    22    23    1
@<TRIPOS>MOLECULE
*****
 32 36 0 0 0
SMALL
GASTEIGER

@<TRIPOS>ATOM
      1 C           1.4127    0.7049   29.4197 C.2     1  UNL1        0.2419
      2 O           0.0224    1.1811   29.7201 O.2     1  UNL1       -0.2734
      3 N           1.8941    0.6432   28.0004 N.am    1  UNL1       -0.2694
      4 C           3.2844    0.1670   27.7000 C.3     1  UNL1        0.1184
      5 C           3.7658    0.1054   26.2807 C.3     1  UNL1        0.1299
      6 N           2.8569    0.5199   25.1618 N.ar    1  UNL1       -0.3005
      7 C           1.4666    0.9961   25.4622 C.ar    1  UNL1        0.1416
      8 N           0.8022    1.3370   24.1612 N.ar    1  UNL1       -0.2279
      9 C           1.7819    1.0715   23.0569 C.ar    1  UNL1        0.1125
     10 C           3.0518    0.5665   23.6752 C.ar    1  UNL1        0.1318
     11 C           0.9852    1.0578   26.8815 C.3     1  UNL1        0.1578
     12 C           1.5351    1.2753   21.5913 C.ar    1  UNL1        0.0204
     13 C           1.7158    2.6340   20.9822 C.ar    1  UNL1        0.0016
     14 C           1.4690    2.8378   19.5167 C.ar    1  UNL1        0.0000
     15 C           1.0415    1.6828   18.6605 C.ar    1  UNL1        0.0000
     16 C           0.8608    0.3241   19.2697 C.ar    1  UNL1        0.0000
     17 C           1.1076    0.1203   20.7351 C.ar    1  UNL1        0.0016
     18 N           2.3727   -1.1452   30.9707 N.3     1  UNL1       -0.3135
     19 C           2.3216    0.2903   30.5386 C.3     1  UNL1        0.1517
     20 H           3.0382   -1.2461   31.7371 H       1  UNL1        0.1193
     21 H           2.6673   -1.7262   30.1859 H       1  UNL1        0.1193
     22 N           4.2978    0.1766   22.9367 N.pl3   1  UNL1       -0.2979
     23 H           5.0527    0.8058   22.8784 H       1  UNL1        0.1536
     24 C           4.3936   -1.1720   22.2871 C.ar    1  UNL1        0.0526
     25 C           4.5191   -2.4046   23.1328 C.ar    1  UNL1        0.0180
     26 C           4.6150   -3.7533   22.4833 C.ar    1  UNL1        0.0415
     27 C           4.5854   -3.8695   20.9881 C.ar    1  UNL1        0.1765
     28 C           4.4600   -2.6369   20.1424 C.ar    1  UNL1        0.1777
     29 C           4.3641   -1.2882   20.7920 C.ar    1  UNL1        0.0548
     30 O           4.4576   -3.0604   18.7034 O.3     1  UNL1       -0.4346
     31 C           4.5816   -4.5546   18.6598 C.3     1  UNL1        0.4294
     32 O           4.6606   -5.0546   20.0717 O.3     1  UNL1       -0.4346
@<TRIPOS>BOND
     1    18    19    1
     2    19     1    1
     3     1     2    2
     4     1     3   am
     5     3     4    1
     6     4     5    1
     7     5     6    1
     8     6     7   ar
     9     7     8   ar
    10     8     9   ar
    11     9    12    1
    12    12    13   ar
    13    13    14   ar
    14    14    15   ar
    15    15    16   ar
    16    16    17   ar
    17     9    10   ar
    18    10    22    1
    19    22    24    1
    20    24    25   ar
    21    25    26   ar
    22    26    27   ar
    23    27    28   ar
    24    28    29   ar
    25    28    30    1
    26    30    31    1
    27    31    32    1
    28     7    11    1
    29    11     3    1
    30    10     6   ar
    31    29    24   ar
    32    17    12   ar
    33    32    27    1
    34    18    20    1
    35    18    21    1
    36    22    23    1
@<TRIPOS>MOLECULE
*****
 32 36 0 0 0
SMALL
GASTEIGER

@<TRIPOS>ATOM
      1 C           7.5506   -5.6357   29.7472 C.2     1  UNL1        0.2419
      2 O           7.9765   -6.7914   28.8911 O.2     1  UNL1       -0.2734
      3 N           6.9337   -4.4225   29.1165 N.am    1  UNL1       -0.2694
      4 C           6.5079   -3.2667   29.9726 C.3     1  UNL1        0.1184
      5 C           5.8910   -2.0536   29.3420 C.3     1  UNL1        0.1299
      6 N           5.6999   -1.9962   27.8553 N.ar    1  UNL1       -0.3005
      7 C           6.1258   -3.1519   26.9993 C.ar    1  UNL1        0.1416
      8 N           5.8138   -2.8114   25.5721 N.ar    1  UNL1       -0.2279
      9 C           5.1951   -1.4452   25.5461 C.ar    1  UNL1        0.1125
     10 C           5.1247   -0.9414   26.9573 C.ar    1  UNL1        0.1318
     11 C           6.7427   -4.3651   27.6299 C.3     1  UNL1        0.1578
     12 C           4.7286   -0.7116   24.3237 C.ar    1  UNL1        0.0204
     13 C           3.3250   -0.8965   23.8281 C.ar    1  UNL1        0.0016
     14 C           2.8585   -0.1630   22.6057 C.ar    1  UNL1        0.0000
     15 C           3.7957    0.7555   21.8790 C.ar    1  UNL1        0.0000
     16 C           5.1993    0.9404   22.3746 C.ar    1  UNL1        0.0000
     17 C           5.6658    0.2068   23.5970 C.ar    1  UNL1        0.0016
     18 N           6.6231   -6.1626   32.1161 N.3     1  UNL1       -0.3135
     19 C           7.7416   -5.6931   31.2338 C.3     1  UNL1        0.1517
     20 H           6.9250   -6.1378   33.0901 H       1  UNL1        0.1193
     21 H           6.3686   -7.1175   31.8633 H       1  UNL1        0.1193
     22 N           4.5756    0.3845   27.3937 N.pl3   1  UNL1       -0.2979
     23 H           5.1887    1.1191   27.6253 H       1  UNL1        0.1536
     24 C           3.0923    0.5912   27.4772 C.ar    1  UNL1        0.0526
     25 C           2.4136    1.5435   26.5378 C.ar    1  UNL1        0.0180
     26 C           0.9303    1.7503   26.6213 C.ar    1  UNL1        0.0415
     27 C           0.1255    1.0047   27.6442 C.ar    1  UNL1        0.1765
     28 C           0.8041    0.0523   28.5837 C.ar    1  UNL1        0.1777
     29 C           2.2875   -0.1544   28.5002 C.ar    1  UNL1        0.0548
     30 O          -0.2425   -0.5378   29.4816 O.3     1  UNL1       -0.4346
     31 C          -1.5680    0.0497   29.0970 C.3     1  UNL1        0.4294
     32 O          -1.3405    1.0031   27.9615 O.3     1  UNL1       -0.4346
@<TRIPOS>BOND
     1    18    19    1
     2    19     1    1
     3     1     2    2
     4     1     3   am
     5     3     4    1
     6     4     5    1
     7     5     6    1
     8     6     7   ar
     9     7     8   ar
    10     8     9   ar
    11     9    12    1
    12    12    13   ar
    13    13    14   ar
    14    14    15   ar
    15    15    16   ar
    16    16    17   ar
    17     9    10   ar
    18    10    22    1
    19    22    24    1
    20    24    25   ar
    21    25    26   ar
    22    26    27   ar
    23    27    28   ar
    24    28    29   ar
    25    28    30    1
    26    30    31    1
    27    31    32    1
    28     7    11    1
    29    11     3    1
    30    10     6   ar
    31    29    24   ar
    32    17    12   ar
    33    32    27    1
    34    18    20    1
    35    18    21    1
    36    22    23    1
@<TRIPOS>MOLECULE
*****
 32 36 0 0 0
SMALL
GASTEIGER

@<TRIPOS>ATOM
      1 C           7.6914   -5.9700   28.4006 C.2     1  UNL1        0.2419
      2 O           8.0275   -7.4046   28.1201 O.2     1  UNL1       -0.2734
      3 N           7.3219   -5.0519   27.2733 N.am    1  UNL1       -0.2694
      4 C           6.9857   -3.6173   27.5538 C.3     1  UNL1        0.1184
      5 C           6.6162   -2.6993   26.4266 C.3     1  UNL1        0.1299
      6 N           6.5830   -3.2159   25.0188 N.ar    1  UNL1       -0.3005
      7 C           6.9192   -4.6505   24.7382 C.ar    1  UNL1        0.1416
      8 N           6.8019   -4.8735   23.2595 N.ar    1  UNL1       -0.2279
      9 C           6.3933   -3.5767   22.6262 C.ar    1  UNL1        0.1125
     10 C           6.2580   -2.5522   23.7135 C.ar    1  UNL1        0.1318
     11 C           7.2886   -5.5686   25.8655 C.3     1  UNL1        0.1578
     12 C           6.1608   -3.3449   21.1625 C.ar    1  UNL1        0.0204
     13 C           4.8654   -3.7645   20.5332 C.ar    1  UNL1        0.0016
     14 C           4.6329   -3.5328   19.0696 C.ar    1  UNL1        0.0000
     15 C           5.6957   -2.8814   18.2353 C.ar    1  UNL1        0.0000
     16 C           6.9910   -2.4618   18.8645 C.ar    1  UNL1        0.0000
     17 C           7.2236   -2.6936   20.3281 C.ar    1  UNL1        0.0016
     18 N           6.6240   -5.8082   30.7637 N.3     1  UNL1       -0.3135
     19 C           7.7246   -5.4533   29.8084 C.3     1  UNL1        0.1517
     20 H           6.8066   -5.3748   31.6689 H       1  UNL1        0.1193
     21 H           6.5830   -6.8214   30.8740 H       1  UNL1        0.1193
     22 N           5.8664   -1.1162   23.5280 N.pl3   1  UNL1       -0.2979
     23 H           6.2616   -0.4202   24.1013 H       1  UNL1        0.1536
     24 C           4.8727   -0.7404   22.4691 C.ar    1  UNL1        0.0526
     25 C           3.4537   -1.2162   22.5694 C.ar    1  UNL1        0.0180
     26 C           2.4599   -0.8406   21.5106 C.ar    1  UNL1        0.0415
     27 C           2.8851    0.0110   20.3512 C.ar    1  UNL1        0.1765
     28 C           4.3041    0.4868   20.2508 C.ar    1  UNL1        0.1777
     29 C           5.2979    0.1111   21.3097 C.ar    1  UNL1        0.0548
     30 O           4.4305    1.3077   19.0017 O.3     1  UNL1       -0.4346
     31 C           3.0895    1.3392   18.3302 C.3     1  UNL1        0.4294
     32 O           2.1345    0.5378   19.1642 O.3     1  UNL1       -0.4346
@<TRIPOS>BOND
     1    18    19    1
     2    19     1    1
     3     1     2    2
     4     1     3   am
     5     3     4    1
     6     4     5    1
     7     5     6    1
     8     6     7   ar
     9     7     8   ar
    10     8     9   ar
    11     9    12    1
    12    12    13   ar
    13    13    14   ar
    14    14    15   ar
    15    15    16   ar
    16    16    17   ar
    17     9    10   ar
    18    10    22    1
    19    22    24    1
    20    24    25   ar
    21    25    26   ar
    22    26    27   ar
    23    27    28   ar
    24    28    29   ar
    25    28    30    1
    26    30    31    1
    27    31    32    1
    28     7    11    1
    29    11     3    1
    30    10     6   ar
    31    29    24   ar
    32    17    12   ar
    33    32    27    1
    34    18    20    1
    35    18    21    1
    36    22    23    1
@<TRIPOS>MOLECULE
*****
 32 36 0 0 0
SMALL
GASTEIGER

@<TRIPOS>ATOM
      1 C          -5.9627    4.3399   23.5993 C.2     1  UNL1        0.2419
      2 O          -5.9462    4.7137   25.0518 O.2     1  UNL1       -0.2734
      3 N          -4.6811    4.0003   22.8976 N.am    1  UNL1       -0.2694
      4 C          -4.6976    3.6265   21.4451 C.3     1  UNL1        0.1184
      5 C          -3.4161    3.2869   20.7434 C.3     1  UNL1        0.1299
      6 N          -2.1180    3.3212   21.4943 N.ar    1  UNL1       -0.3005
      7 C          -2.1015    3.6950   22.9469 C.ar    1  UNL1        0.1416
      8 N          -0.6800    3.6429   23.4228 N.ar    1  UNL1       -0.2279
      9 C           0.1821    3.2368   22.2644 C.ar    1  UNL1        0.1125
     10 C          -0.7067    3.0380   21.0725 C.ar    1  UNL1        0.1318
     11 C          -3.3831    4.0345   23.6485 C.3     1  UNL1        0.1578
     12 C           1.6715    3.0605   22.2928 C.ar    1  UNL1        0.0204
     13 C           2.2762    1.9084   23.0390 C.ar    1  UNL1        0.0016
     14 C           3.7655    1.7320   23.0675 C.ar    1  UNL1        0.0000
     15 C           4.6501    2.7079   22.3497 C.ar    1  UNL1        0.0000
     16 C           4.0453    3.8601   21.6035 C.ar    1  UNL1        0.0000
     17 C           2.5560    4.0364   21.5751 C.ar    1  UNL1        0.0016
     18 N          -8.5034    3.8030   23.5214 N.3     1  UNL1       -0.3135
     19 C          -7.2607    4.3056   22.8484 C.3     1  UNL1        0.1517
     20 H          -9.2861    3.8497   22.8689 H       1  UNL1        0.1193
     21 H          -8.7058    4.3809   24.3371 H       1  UNL1        0.1193
     22 N          -0.2622    2.6280   19.6998 N.pl3   1  UNL1       -0.2979
     23 H          -0.6105    3.0989   18.9085 H       1  UNL1        0.1536
     24 C           0.7131    1.5006   19.5328 C.ar    1  UNL1        0.0526
     25 C           0.5126    0.2180   20.2842 C.ar    1  UNL1        0.0180
     26 C           1.4878   -0.9095   20.1172 C.ar    1  UNL1        0.0415
     27 C           2.6635   -0.7543   19.1987 C.ar    1  UNL1        0.1765
     28 C           2.8640    0.5284   18.4472 C.ar    1  UNL1        0.1777
     29 C           1.8888    1.6558   18.6143 C.ar    1  UNL1        0.0548
     30 O           4.1070    0.3909   17.6189 O.3     1  UNL1       -0.4346
     31 C           4.6747   -0.9767   17.8585 C.3     1  UNL1        0.4294
     32 O           3.7826   -1.6844   18.8348 O.3     1  UNL1       -0.4346
@<TRIPOS>BOND
     1    18    19    1
     2    19     1    1
     3     1     2    2
     4     1     3   am
     5     3     4    1
     6     4     5    1
     7     5     6    1
     8     6     7   ar
     9     7     8   ar
    10     8     9   ar
    11     9    12    1
    12    12    13   ar
    13    13    14   ar
    14    14    15   ar
    15    15    16   ar
    16    16    17   ar
    17     9    10   ar
    18    10    22    1
    19    22    24    1
    20    24    25   ar
    21    25    26   ar
    22    26    27   ar
    23    27    28   ar
    24    28    29   ar
    25    28    30    1
    26    30    31    1
    27    31    32    1
    28     7    11    1
    29    11     3    1
    30    10     6   ar
    31    29    24   ar
    32    17    12   ar
    33    32    27    1
    34    18    20    1
    35    18    21    1
    36    22    23    1
@<TRIPOS>MOLECULE
*****
 32 36 0 0 0
SMALL
GASTEIGER

@<TRIPOS>ATOM
      1 C          -6.4082    4.1962   22.8350 C.2     1  UNL1        0.2419
      2 O          -6.3239    3.9850   21.3524 O.2     1  UNL1       -0.2734
      3 N          -5.1878    4.0177   23.6886 N.am    1  UNL1       -0.2694
      4 C          -5.2721    4.2289   25.1712 C.3     1  UNL1        0.1184
      5 C          -4.0516    4.0504   26.0249 C.3     1  UNL1        0.1299
      6 N          -2.7469    3.6606   25.3959 N.ar    1  UNL1       -0.3005
      7 C          -2.6626    3.4493   23.9132 C.ar    1  UNL1        0.1416
      8 N          -1.2499    3.0720   23.5783 N.ar    1  UNL1       -0.2279
      9 C          -0.4612    3.0500   24.8540 C.ar    1  UNL1        0.1125
     10 C          -1.3864    3.4138   25.9773 C.ar    1  UNL1        0.1318
     11 C          -3.8830    3.6279   23.0596 C.3     1  UNL1        0.1578
     12 C           0.9967    2.7219   24.9837 C.ar    1  UNL1        0.0204
     13 C           2.0047    3.8247   25.1170 C.ar    1  UNL1        0.0016
     14 C           3.4626    3.4966   25.2467 C.ar    1  UNL1        0.0000
     15 C           3.9125    2.0657   25.2432 C.ar    1  UNL1        0.0000
     16 C           2.9045    0.9629   25.1099 C.ar    1  UNL1        0.0000
     17 C           1.4466    1.2910   24.9802 C.ar    1  UNL1        0.0016
     18 N          -8.8377    3.5960   23.5328 N.3     1  UNL1       -0.3135
     19 C          -7.7129    4.5860   23.4640 C.3     1  UNL1        0.1517
     20 H          -9.6422    4.0267   23.9886 H       1  UNL1        0.1193
     21 H          -8.5403    2.7801   24.0678 H       1  UNL1        0.1193
     22 N          -1.0161    3.5133   27.4275 N.pl3   1  UNL1       -0.2979
     23 H          -1.2121    4.3368   27.9301 H       1  UNL1        0.1536
     24 C          -0.3472    2.3582   28.1118 C.ar    1  UNL1        0.0526
     25 C          -0.9613    0.9911   28.0483 C.ar    1  UNL1        0.0180
     26 C          -0.2924   -0.1641   28.7326 C.ar    1  UNL1        0.0415
     27 C           0.9905    0.0478   29.4804 C.ar    1  UNL1        0.1765
     28 C           1.6046    1.4149   29.5438 C.ar    1  UNL1        0.1777
     29 C           0.9357    2.5701   28.8595 C.ar    1  UNL1        0.0548
     30 O           2.8661    1.3194   30.3498 O.3     1  UNL1       -0.4346
     31 C           3.0316   -0.1066   30.7844 C.3     1  UNL1        0.4294
     32 O           1.8724   -0.8926   30.2471 O.3     1  UNL1       -0.4346
@<TRIPOS>BOND
     1    18    19    1
     2    19     1    1
     3     1     2    2
     4     1     3   am
     5     3     4    1
     6     4     5    1
     7     5     6    1
     8     6     7   ar
     9     7     8   ar
    10     8     9   ar
    11     9    12    1
    12    12    13   ar
    13    13    14   ar
    14    14    15   ar
    15    15    16   ar
    16    16    17   ar
    17     9    10   ar
    18    10    22    1
    19    22    24    1
    20    24    25   ar
    21    25    26   ar
    22    26    27   ar
    23    27    28   ar
    24    28    29   ar
    25    28    30    1
    26    30    31    1
    27    31    32    1
    28     7    11    1
    29    11     3    1
    30    10     6   ar
    31    29    24   ar
    32    17    12   ar
    33    32    27    1
    34    18    20    1
    35    18    21    1
    36    22    23    1
@<TRIPOS>MOLECULE
*****
 32 36 0 0 0
SMALL
GASTEIGER

@<TRIPOS>ATOM
      1 C           0.7852    0.5865   28.9340 C.2     1  UNL1        0.2419
      2 O          -0.3820    0.7514   29.8615 O.2     1  UNL1       -0.2734
      3 N           0.7052    1.1041   27.5284 N.am    1  UNL1       -0.2694
      4 C           1.8724    0.9393   26.6009 C.3     1  UNL1        0.1184
      5 C           1.7924    1.4569   25.1953 C.3     1  UNL1        0.1299
      6 N           0.5452    2.1393   24.7172 N.ar    1  UNL1       -0.3005
      7 C          -0.6220    2.3042   25.6448 C.ar    1  UNL1        0.1416
      8 N          -1.7116    3.0142   24.8971 N.ar    1  UNL1       -0.2279
      9 C          -1.2177    3.2880   23.5075 C.ar    1  UNL1        0.1125
     10 C           0.1770    2.7473   23.3963 C.ar    1  UNL1        0.1318
     11 C          -0.5420    1.7866   27.0504 C.3     1  UNL1        0.1578
     12 C          -1.9841    3.9809   22.4199 C.ar    1  UNL1        0.0204
     13 C          -2.3849    5.4171   22.5829 C.ar    1  UNL1        0.0016
     14 C          -3.1511    6.1100   21.4955 C.ar    1  UNL1        0.0000
     15 C          -3.5166    5.3667   20.2450 C.ar    1  UNL1        0.0000
     16 C          -3.1158    3.9304   20.0819 C.ar    1  UNL1        0.0000
     17 C          -2.3495    3.2375   21.1694 C.ar    1  UNL1        0.0016
     18 N           2.0015   -0.9261   30.6610 N.3     1  UNL1       -0.3135
     19 C           2.0325   -0.0959   29.4121 C.3     1  UNL1        0.1517
     20 H           2.9293   -1.3122   30.8357 H       1  UNL1        0.1193
     21 H           1.3324   -1.6874   30.5467 H       1  UNL1        0.1193
     22 N           1.0503    2.8046   22.1781 N.pl3   1  UNL1       -0.2979
     23 H           1.3386    3.6750   21.8196 H       1  UNL1        0.1536
     24 C           1.4844    1.5358   21.5061 C.ar    1  UNL1        0.0526
     25 C           0.4658    0.6391   20.8670 C.ar    1  UNL1        0.0180
     26 C           0.8998   -0.6297   20.1950 C.ar    1  UNL1        0.0415
     27 C           2.3525   -1.0019   20.1620 C.ar    1  UNL1        0.1765
     28 C           3.3712   -0.1053   20.8011 C.ar    1  UNL1        0.1777
     29 C           2.9371    1.1636   21.4732 C.ar    1  UNL1        0.0548
     30 O           4.7220   -0.7293   20.6115 O.3     1  UNL1       -0.4346
     31 C           4.5382   -2.0116   19.8552 C.3     1  UNL1        0.4294
     32 O           3.0738   -2.1801   19.5774 O.3     1  UNL1       -0.4346
@<TRIPOS>BOND
     1    18    19    1
     2    19     1    1
     3     1     2    2
     4     1     3   am
     5     3     4    1
     6     4     5    1
     7     5     6    1
     8     6     7   ar
     9     7     8   ar
    10     8     9   ar
    11     9    12    1
    12    12    13   ar
    13    13    14   ar
    14    14    15   ar
    15    15    16   ar
    16    16    17   ar
    17     9    10   ar
    18    10    22    1
    19    22    24    1
    20    24    25   ar
    21    25    26   ar
    22    26    27   ar
    23    27    28   ar
    24    28    29   ar
    25    28    30    1
    26    30    31    1
    27    31    32    1
    28     7    11    1
    29    11     3    1
    30    10     6   ar
    31    29    24   ar
    32    17    12   ar
    33    32    27    1
    34    18    20    1
    35    18    21    1
    36    22    23    1
