@<TRIPOS>MOLECULE
*****
 45 50 0 0 0
SMALL
GASTEIGER

@<TRIPOS>ATOM
      1 C          -2.6766    4.5271   22.9686 C.ar    1  UNL1        0.1348
      2 C          -2.1385    5.5311   23.9445 C.ar    1  UNL1        0.0346
      3 C          -0.7434    5.3870   24.4764 C.ar    1  UNL1        0.0065
      4 C           0.1136    4.2388   24.0325 C.ar    1  UNL1        0.0432
      5 C          -0.4245    3.2347   23.0566 C.ar    1  UNL1        0.1256
      6 N          -1.8196    3.3789   22.5247 N.ar    1  UNL1       -0.2222
      7 C           1.5087    4.0946   24.5644 C.ar    1  UNL1        0.0850
      8 C           1.9269    3.2362   25.7212 C.ar    1  UNL1        0.1005
      9 N           3.4072    3.3946   25.9046 N.ar    1  UNL1       -0.2264
     10 C           3.9039    4.3509   24.8612 C.ar    1  UNL1        0.1474
     11 C           5.2729    4.8837   24.5583 C.ar    1  UNL1        0.0332
     12 C           5.4686    5.8491   23.4271 C.ar    1  UNL1       -0.0174
     13 C           6.8377    6.3819   23.1242 C.3     1  UNL1        0.0312
     14 C           4.2953    6.2818   22.5987 C.ar    1  UNL1        0.0149
     15 C           2.9262    5.7490   22.9016 C.ar    1  UNL1        0.0811
     16 N           2.7305    4.7836   24.0329 N.ar    1  UNL1       -0.2888
     17 C           1.0235    2.3712   26.5492 C.ar    1  UNL1        0.0383
     18 C          -0.4208    2.7400   26.7173 C.ar    1  UNL1        0.0043
     19 C          -1.3242    1.8750   27.5454 C.ar    1  UNL1        0.0148
     20 C          -0.7835    0.6412   28.2052 C.ar    1  UNL1        0.0594
     21 C          -1.6869   -0.2238   29.0332 C.3     1  UNL1        0.0521
     22 N           0.6607    0.2725   28.0370 N.ar    1  UNL1       -0.2481
     23 C           1.5642    1.1375   27.2090 C.ar    1  UNL1        0.0999
     24 C          -5.2198    4.0311   23.1593 C.2     1  UNL1        0.2414
     25 O          -4.9727    3.2468   24.4139 O.2     1  UNL1       -0.2733
     26 N          -4.0717    4.6712   22.4367 N.am    1  UNL1       -0.2682
     27 H          -4.2338    5.1860   21.6133 H       1  UNL1        0.1563
     28 C          -6.6148    4.1753   22.6274 C.3     1  UNL1        0.1319
     29 C          -6.8358    4.6291   21.2148 C.3     1  UNL1        0.0270
     30 C          -8.5336    4.9786   24.1841 C.3     1  UNL1        0.0862
     31 N          -7.7890    3.8657   23.5080 N.3     1  UNL1       -0.2902
     32 H          -8.4660    3.3662   22.9313 H       1  UNL1        0.1237
     33 C           0.4325    2.0864   22.6126 C.1     1  UNL1       -0.0404
     34 C           1.2895    0.9382   22.1687 C.1     1  UNL1       -0.0583
     35 C           2.1465   -0.2100   21.7247 C.ar    1  UNL1        0.0420
     36 C           2.0777   -0.6927   20.3062 C.ar    1  UNL1        0.0083
     37 C           2.9347   -1.8409   19.8623 C.ar    1  UNL1        0.0018
     38 C           3.8605   -2.5065   20.8369 C.ar    1  UNL1        0.0137
     39 C           4.7175   -3.6548   20.3929 C.ar    1  UNL1        0.0594
     40 C           4.6487   -4.1374   18.9744 C.3     1  UNL1        0.0521
     41 N           5.6434   -4.3203   21.3675 N.ar    1  UNL1       -0.2481
     42 C           5.7121   -3.8376   22.7861 C.ar    1  UNL1        0.0984
     43 C           4.8552   -2.6894   23.2300 C.ar    1  UNL1        0.0207
     44 C           3.9293   -2.0238   22.2554 C.ar    1  UNL1        0.0033
     45 C           3.0724   -0.8756   22.6993 C.ar    1  UNL1        0.0083
@<TRIPOS>BOND
     1    30    31    1
     2    31    28    1
     3    28    29    1
     4    28    24    1
     5    24    25    2
     6    24    26   am
     7    26     1    1
     8     1     2   ar
     9     2     3   ar
    10     3     4   ar
    11     4     7    1
    12     7     8   ar
    13     8    17    1
    14    17    18   ar
    15    18    19   ar
    16    19    20   ar
    17    20    21    1
    18    20    22   ar
    19    22    23   ar
    20     8     9   ar
    21     9    10   ar
    22    10    11   ar
    23    11    12   ar
    24    12    13    1
    25    12    14   ar
    26    14    15   ar
    27    15    16   ar
    28     4     5   ar
    29     5    33    1
    30    33    34    3
    31    34    35    1
    32    35    36   ar
    33    36    37   ar
    34    37    38   ar
    35    38    39   ar
    36    39    40    1
    37    39    41   ar
    38    41    42   ar
    39    42    43   ar
    40    43    44   ar
    41    44    45   ar
    42     5     6   ar
    43     6     1   ar
    44    16     7   ar
    45    45    35   ar
    46    23    17   ar
    47    16    10   ar
    48    44    38   ar
    49    31    32    1
    50    26    27    1
@<TRIPOS>MOLECULE
*****
 45 50 0 0 0
SMALL
GASTEIGER

@<TRIPOS>ATOM
      1 C          -2.9136    4.2907   21.7897 C.ar    1  UNL1        0.1348
      2 C          -2.7174    5.0955   23.0403 C.ar    1  UNL1        0.0346
      3 C          -1.5635    4.7970   23.9509 C.ar    1  UNL1        0.0065
      4 C          -0.6057    3.6937   23.6111 C.ar    1  UNL1        0.0432
      5 C          -0.8019    2.8890   22.3606 C.ar    1  UNL1        0.1256
      6 N          -1.9558    3.1875   21.4499 N.ar    1  UNL1       -0.2222
      7 C           0.5482    3.3953   24.5218 C.ar    1  UNL1        0.0850
      8 C           1.9526    3.8965   24.3589 C.ar    1  UNL1        0.1005
      9 N           2.7727    3.3542   25.4917 N.ar    1  UNL1       -0.2264
     10 C           1.8752    2.5177   26.3547 C.ar    1  UNL1        0.1474
     11 C           2.1322    1.7361   27.6090 C.ar    1  UNL1        0.0332
     12 C           1.0144    0.9800   28.2638 C.ar    1  UNL1       -0.0174
     13 C           1.2714    0.1985   29.5180 C.3     1  UNL1        0.0312
     14 C          -0.3604    1.0053   27.6644 C.ar    1  UNL1        0.0149
     15 C          -0.6174    1.7869   26.4101 C.ar    1  UNL1        0.0811
     16 N           0.5005    2.5431   25.7553 N.ar    1  UNL1       -0.2888
     17 C           2.4496    4.7843   23.2567 C.ar    1  UNL1        0.0383
     18 C           3.0600    4.1819   22.0260 C.ar    1  UNL1        0.0043
     19 C           3.5570    5.0697   20.9238 C.ar    1  UNL1        0.0148
     20 C           3.4436    6.5599   21.0522 C.ar    1  UNL1        0.0594
     21 C           3.9406    7.4476   19.9500 C.3     1  UNL1        0.0521
     22 N           2.8332    7.1622   22.2829 N.ar    1  UNL1       -0.2481
     23 C           2.3362    6.2744   23.3851 C.ar    1  UNL1        0.0999
     24 C          -5.4343    4.0633   21.2033 C.2     1  UNL1        0.2414
     25 O          -5.6473    3.2389   22.4382 O.2     1  UNL1       -0.2733
     26 N          -4.0675    4.5892   20.8791 N.am    1  UNL1       -0.2682
     27 H          -3.9277    5.1303   20.0685 H       1  UNL1        0.1563
     28 C          -6.5883    4.3618   20.2926 C.3     1  UNL1        0.1319
     29 C          -6.6547    3.7291   18.9341 C.3     1  UNL1        0.0270
     30 C          -7.3302    6.5390   21.5006 C.3     1  UNL1        0.0862
     31 N          -7.6757    5.2929   20.7403 N.3     1  UNL1       -0.2902
     32 H          -8.1740    5.5888   19.9010 H       1  UNL1        0.1237
     33 C           0.1559    1.7857   22.0207 C.1     1  UNL1       -0.0404
     34 C           1.1137    0.6825   21.6808 C.1     1  UNL1       -0.0583
     35 C           2.0715   -0.4208   21.3409 C.ar    1  UNL1        0.0420
     36 C           2.1499   -0.9394   19.9356 C.ar    1  UNL1        0.0083
     37 C           3.1077   -2.0427   19.5958 C.ar    1  UNL1        0.0018
     38 C           3.9869   -2.6273   20.6612 C.ar    1  UNL1        0.0137
     39 C           4.9447   -3.7306   20.3213 C.ar    1  UNL1        0.0594
     40 C           5.0232   -4.2492   18.9160 C.3     1  UNL1        0.0521
     41 N           5.8240   -4.3152   21.3867 N.ar    1  UNL1       -0.2481
     42 C           5.7455   -3.7965   22.7921 C.ar    1  UNL1        0.0984
     43 C           4.7877   -2.6932   23.1319 C.ar    1  UNL1        0.0207
     44 C           3.9085   -2.1086   22.0665 C.ar    1  UNL1        0.0033
     45 C           2.9507   -1.0054   22.4063 C.ar    1  UNL1        0.0083
@<TRIPOS>BOND
     1    30    31    1
     2    31    28    1
     3    28    29    1
     4    28    24    1
     5    24    25    2
     6    24    26   am
     7    26     1    1
     8     1     2   ar
     9     2     3   ar
    10     3     4   ar
    11     4     7    1
    12     7     8   ar
    13     8    17    1
    14    17    18   ar
    15    18    19   ar
    16    19    20   ar
    17    20    21    1
    18    20    22   ar
    19    22    23   ar
    20     8     9   ar
    21     9    10   ar
    22    10    11   ar
    23    11    12   ar
    24    12    13    1
    25    12    14   ar
    26    14    15   ar
    27    15    16   ar
    28     4     5   ar
    29     5    33    1
    30    33    34    3
    31    34    35    1
    32    35    36   ar
    33    36    37   ar
    34    37    38   ar
    35    38    39   ar
    36    39    40    1
    37    39    41   ar
    38    41    42   ar
    39    42    43   ar
    40    43    44   ar
    41    44    45   ar
    42     5     6   ar
    43     6     1   ar
    44    16     7   ar
    45    45    35   ar
    46    23    17   ar
    47    16    10   ar
    48    44    38   ar
    49    31    32    1
    50    26    27    1
@<TRIPOS>MOLECULE
*****
 45 50 0 0 0
SMALL
GASTEIGER

@<TRIPOS>ATOM
      1 C           4.1246   -0.7929   30.7107 C.ar    1  UNL1        0.1348
      2 C           5.4320   -1.3813   31.1515 C.ar    1  UNL1        0.0346
      3 C           6.3943   -1.9177   30.1335 C.ar    1  UNL1        0.0065
      4 C           6.0491   -1.8658   28.6747 C.ar    1  UNL1        0.0432
      5 C           4.7416   -1.2774   28.2339 C.ar    1  UNL1        0.1256
      6 N           3.7794   -0.7410   29.2519 N.ar    1  UNL1       -0.2222
      7 C           7.0113   -2.4022   27.6567 C.ar    1  UNL1        0.0850
      8 C           8.0406   -1.6058   26.9108 C.ar    1  UNL1        0.1005
      9 N           8.7787   -2.5406   25.9990 N.ar    1  UNL1       -0.2264
     10 C           8.2056   -3.9148   26.1814 C.ar    1  UNL1        0.1474
     11 C           8.5372   -5.2329   25.5469 C.ar    1  UNL1        0.0332
     12 C           7.7766   -6.4655   25.9370 C.ar    1  UNL1       -0.0174
     13 C           8.1082   -7.7836   25.3025 C.3     1  UNL1        0.0312
     14 C           6.6843   -6.3800   26.9616 C.ar    1  UNL1        0.0149
     15 C           6.3527   -5.0619   27.5960 C.ar    1  UNL1        0.0811
     16 N           7.1133   -3.8292   27.2059 N.ar    1  UNL1       -0.2888
     17 C           8.2883   -0.1331   27.0519 C.ar    1  UNL1        0.0383
     18 C           7.5365    0.8396   26.1923 C.ar    1  UNL1        0.0043
     19 C           7.7842    2.3123   26.3334 C.ar    1  UNL1        0.0148
     20 C           8.7836    2.8122   27.3340 C.ar    1  UNL1        0.0594
     21 C           9.0313    4.2849   27.4751 C.3     1  UNL1        0.0521
     22 N           9.5353    1.8395   28.1935 N.ar    1  UNL1       -0.2481
     23 C           9.2876    0.3669   28.0524 C.ar    1  UNL1        0.0999
     24 C           3.1510    1.2083   32.0513 C.2     1  UNL1        0.2414
     25 O           4.1020    2.1368   31.3558 O.2     1  UNL1       -0.2733
     26 N           3.1623   -0.2565   31.7287 N.am    1  UNL1       -0.2682
     27 H           2.5382   -0.8659   32.1852 H       1  UNL1        0.1563
     28 C           2.1888    1.7448   33.0693 C.3     1  UNL1        0.1319
     29 C           2.6627    2.0570   34.4578 C.3     1  UNL1        0.0270
     30 C           0.3757    2.2050   31.2662 C.3     1  UNL1        0.0862
     31 N           0.7527    1.9689   32.6988 N.3     1  UNL1       -0.2902
     32 H           0.2370    1.1447   33.0070 H       1  UNL1        0.1237
     33 C           4.3964   -1.2254   26.7751 C.1     1  UNL1       -0.0404
     34 C           4.0511   -1.1734   25.3163 C.1     1  UNL1       -0.0583
     35 C           3.7058   -1.1215   23.8575 C.ar    1  UNL1        0.0420
     36 C           2.7460   -0.0864   23.3503 C.ar    1  UNL1        0.0083
     37 C           2.4008   -0.0345   21.8916 C.ar    1  UNL1        0.0018
     38 C           3.0154   -1.0176   20.9399 C.ar    1  UNL1        0.0137
     39 C           2.6701   -0.9657   19.4811 C.ar    1  UNL1        0.0594
     40 C           1.7103    0.0694   18.9739 C.3     1  UNL1        0.0521
     41 N           3.2848   -1.9488   18.5294 N.ar    1  UNL1       -0.2481
     42 C           4.2447   -2.9839   19.0366 C.ar    1  UNL1        0.0984
     43 C           4.5899   -3.0359   20.4954 C.ar    1  UNL1        0.0207
     44 C           3.9753   -2.0527   21.4471 C.ar    1  UNL1        0.0033
     45 C           4.3205   -2.1046   22.9058 C.ar    1  UNL1        0.0083
@<TRIPOS>BOND
     1    30    31    1
     2    31    28    1
     3    28    29    1
     4    28    24    1
     5    24    25    2
     6    24    26   am
     7    26     1    1
     8     1     2   ar
     9     2     3   ar
    10     3     4   ar
    11     4     7    1
    12     7     8   ar
    13     8    17    1
    14    17    18   ar
    15    18    19   ar
    16    19    20   ar
    17    20    21    1
    18    20    22   ar
    19    22    23   ar
    20     8     9   ar
    21     9    10   ar
    22    10    11   ar
    23    11    12   ar
    24    12    13    1
    25    12    14   ar
    26    14    15   ar
    27    15    16   ar
    28     4     5   ar
    29     5    33    1
    30    33    34    3
    31    34    35    1
    32    35    36   ar
    33    36    37   ar
    34    37    38   ar
    35    38    39   ar
    36    39    40    1
    37    39    41   ar
    38    41    42   ar
    39    42    43   ar
    40    43    44   ar
    41    44    45   ar
    42     5     6   ar
    43     6     1   ar
    44    16     7   ar
    45    45    35   ar
    46    23    17   ar
    47    16    10   ar
    48    44    38   ar
    49    31    32    1
    50    26    27    1
@<TRIPOS>MOLECULE
*****
 45 50 0 0 0
SMALL
GASTEIGER

@<TRIPOS>ATOM
      1 C           2.7485   -0.2016   29.8375 C.ar    1  UNL1        0.1348
      2 C           2.1941    1.1694   30.0882 C.ar    1  UNL1        0.0346
      3 C           1.9052    2.0840   28.9350 C.ar    1  UNL1        0.0065
      4 C           2.1707    1.6277   27.5310 C.ar    1  UNL1        0.0432
      5 C           2.7251    0.2567   27.2803 C.ar    1  UNL1        0.1256
      6 N           3.0140   -0.6580   28.4335 N.ar    1  UNL1       -0.2222
      7 C           1.8818    2.5423   26.3778 C.ar    1  UNL1        0.0850
      8 C           2.9010    3.2770   25.5583 C.ar    1  UNL1        0.1005
      9 N           2.1721    4.0716   24.5156 N.ar    1  UNL1       -0.2264
     10 C           0.7024    3.8280   24.6906 C.ar    1  UNL1        0.1474
     11 C          -0.4958    4.3447   23.9507 C.ar    1  UNL1        0.0332
     12 C          -1.8733    3.9163   24.3616 C.ar    1  UNL1       -0.0174
     13 C          -3.0714    4.4330   23.6217 C.3     1  UNL1        0.0312
     14 C          -2.0527    2.9711   25.5125 C.ar    1  UNL1        0.0149
     15 C          -0.8546    2.4544   26.2524 C.ar    1  UNL1        0.0811
     16 N           0.5230    2.8829   25.8415 N.ar    1  UNL1       -0.2888
     17 C           4.3880    3.2261   25.7483 C.ar    1  UNL1        0.0383
     18 C           5.2474    2.5070   24.7509 C.ar    1  UNL1        0.0043
     19 C           6.7344    2.4561   24.9408 C.ar    1  UNL1        0.0148
     20 C           7.3622    3.1241   26.1281 C.ar    1  UNL1        0.0594
     21 C           8.8493    3.0732   26.3180 C.3     1  UNL1        0.0521
     22 N           6.5029    3.8431   27.1254 N.ar    1  UNL1       -0.2481
     23 C           5.0159    3.8941   26.9355 C.ar    1  UNL1        0.0999
     24 C           4.4288   -1.2102   31.5432 C.2     1  UNL1        0.2414
     25 O           5.5313   -0.3894   30.9425 O.2     1  UNL1       -0.2733
     26 N           3.0374   -1.1163   30.9907 N.am    1  UNL1       -0.2682
     27 H           2.3138   -1.6550   31.3850 H       1  UNL1        0.1563
     28 C           4.7177   -2.1248   32.6964 C.3     1  UNL1        0.1319
     29 C           4.2777   -1.7489   34.0804 C.3     1  UNL1        0.0270
     30 C           6.9167   -3.4038   32.1689 C.3     1  UNL1        0.0862
     31 N           5.4465   -3.4154   32.4658 N.3     1  UNL1       -0.2902
     32 H           5.3202   -3.9791   33.3065 H       1  UNL1        0.1237
     33 C           2.9907   -0.1998   25.8762 C.1     1  UNL1       -0.0404
     34 C           3.2562   -0.6562   24.4723 C.1     1  UNL1       -0.0583
     35 C           3.5217   -1.1126   23.0683 C.ar    1  UNL1        0.0420
     36 C           4.1696   -2.4429   22.8219 C.ar    1  UNL1        0.0083
     37 C           4.4351   -2.8992   21.4180 C.ar    1  UNL1        0.0018
     38 C           4.0527   -2.0254   20.2603 C.ar    1  UNL1        0.0137
     39 C           4.3183   -2.4818   18.8563 C.ar    1  UNL1        0.0594
     40 C           4.9662   -3.8120   18.6099 C.3     1  UNL1        0.0521
     41 N           3.9359   -1.6079   17.6986 N.ar    1  UNL1       -0.2481
     42 C           3.2880   -0.2777   17.9450 C.ar    1  UNL1        0.0984
     43 C           3.0224    0.1787   19.3490 C.ar    1  UNL1        0.0207
     44 C           3.4048   -0.6952   20.5066 C.ar    1  UNL1        0.0033
     45 C           3.1393   -0.2388   21.9106 C.ar    1  UNL1        0.0083
@<TRIPOS>BOND
     1    30    31    1
     2    31    28    1
     3    28    29    1
     4    28    24    1
     5    24    25    2
     6    24    26   am
     7    26     1    1
     8     1     2   ar
     9     2     3   ar
    10     3     4   ar
    11     4     7    1
    12     7     8   ar
    13     8    17    1
    14    17    18   ar
    15    18    19   ar
    16    19    20   ar
    17    20    21    1
    18    20    22   ar
    19    22    23   ar
    20     8     9   ar
    21     9    10   ar
    22    10    11   ar
    23    11    12   ar
    24    12    13    1
    25    12    14   ar
    26    14    15   ar
    27    15    16   ar
    28     4     5   ar
    29     5    33    1
    30    33    34    3
    31    34    35    1
    32    35    36   ar
    33    36    37   ar
    34    37    38   ar
    35    38    39   ar
    36    39    40    1
    37    39    41   ar
    38    41    42   ar
    39    42    43   ar
    40    43    44   ar
    41    44    45   ar
    42     5     6   ar
    43     6     1   ar
    44    16     7   ar
    45    45    35   ar
    46    23    17   ar
    47    16    10   ar
    48    44    38   ar
    49    31    32    1
    50    26    27    1
@<TRIPOS>MOLECULE
*****
 45 50 0 0 0
SMALL
GASTEIGER

@<TRIPOS>ATOM
      1 C          -3.1594    4.1169   22.2436 C.ar    1  UNL1        0.1348
      2 C          -2.7062    5.1377   23.2448 C.ar    1  UNL1        0.0346
      3 C          -1.2597    5.2156   23.6342 C.ar    1  UNL1        0.0065
      4 C          -0.2665    4.2727   23.0224 C.ar    1  UNL1        0.0432
      5 C          -0.7197    3.2519   22.0212 C.ar    1  UNL1        0.1256
      6 N          -2.1662    3.1740   21.6317 N.ar    1  UNL1       -0.2222
      7 C           1.1800    4.3506   23.4119 C.ar    1  UNL1        0.0850
      8 C           1.7973    3.7429   24.6365 C.ar    1  UNL1        0.1005
      9 N           3.2620    4.0666   24.6265 N.ar    1  UNL1       -0.2264
     10 C           3.5499    4.8742   23.3958 C.ar    1  UNL1        0.1474
     11 C           4.8174    5.4725   22.8616 C.ar    1  UNL1        0.0332
     12 C           4.7982    6.2463   21.5768 C.ar    1  UNL1       -0.0174
     13 C           6.0658    6.8447   21.0426 C.3     1  UNL1        0.0312
     14 C           3.5115    6.4219   20.8260 C.ar    1  UNL1        0.0149
     15 C           2.2440    5.8236   21.3602 C.ar    1  UNL1        0.0811
     16 N           2.2631    5.0497   22.6451 N.ar    1  UNL1       -0.2888
     17 C           1.0766    2.9507   25.6867 C.ar    1  UNL1        0.0383
     18 C           0.2953    1.7297   25.3007 C.ar    1  UNL1        0.0043
     19 C          -0.4254    0.9375   26.3509 C.ar    1  UNL1        0.0148
     20 C          -0.3650    1.3662   27.7871 C.ar    1  UNL1        0.0594
     21 C          -1.0857    0.5740   28.8373 C.3     1  UNL1        0.0521
     22 N           0.4163    2.5872   28.1730 N.ar    1  UNL1       -0.2481
     23 C           1.1370    3.3794   27.1228 C.ar    1  UNL1        0.0999
     24 C          -5.0284    4.4036   20.4618 C.2     1  UNL1        0.2414
     25 O          -4.0045    4.8460   19.4589 O.2     1  UNL1       -0.2733
     26 N          -4.6059    4.0391   21.8541 N.am    1  UNL1       -0.2682
     27 H          -5.2779    3.7487   22.5124 H       1  UNL1        0.1563
     28 C          -6.4749    4.3257   20.0724 C.3     1  UNL1        0.1319
     29 C          -6.8764    3.6061   18.8190 C.3     1  UNL1        0.0270
     30 C          -7.5799    6.4614   21.0562 C.3     1  UNL1        0.0862
     31 N          -7.5198    4.9674   20.9363 N.3     1  UNL1       -0.2902
     32 H          -8.4252    4.6641   20.5777 H       1  UNL1        0.1237
     33 C           0.2736    2.3089   21.4093 C.1     1  UNL1       -0.0404
     34 C           1.2667    1.3660   20.7975 C.1     1  UNL1       -0.0583
     35 C           2.2600    0.4230   20.1856 C.ar    1  UNL1        0.0420
     36 C           2.1240   -1.0548   20.4037 C.ar    1  UNL1        0.0083
     37 C           3.1172   -1.9977   19.7918 C.ar    1  UNL1        0.0018
     38 C           4.2464   -1.4628   18.9619 C.ar    1  UNL1        0.0137
     39 C           5.2397   -2.4058   18.3501 C.ar    1  UNL1        0.0594
     40 C           5.1037   -3.8836   18.5681 C.3     1  UNL1        0.0521
     41 N           6.3689   -1.8709   17.5202 N.ar    1  UNL1       -0.2481
     42 C           6.5049   -0.3930   17.3021 C.ar    1  UNL1        0.0984
     43 C           5.5117    0.5499   17.9140 C.ar    1  UNL1        0.0207
     44 C           4.3824    0.0150   18.7439 C.ar    1  UNL1        0.0033
     45 C           3.3892    0.9579   19.3557 C.ar    1  UNL1        0.0083
@<TRIPOS>BOND
     1    30    31    1
     2    31    28    1
     3    28    29    1
     4    28    24    1
     5    24    25    2
     6    24    26   am
     7    26     1    1
     8     1     2   ar
     9     2     3   ar
    10     3     4   ar
    11     4     7    1
    12     7     8   ar
    13     8    17    1
    14    17    18   ar
    15    18    19   ar
    16    19    20   ar
    17    20    21    1
    18    20    22   ar
    19    22    23   ar
    20     8     9   ar
    21     9    10   ar
    22    10    11   ar
    23    11    12   ar
    24    12    13    1
    25    12    14   ar
    26    14    15   ar
    27    15    16   ar
    28     4     5   ar
    29     5    33    1
    30    33    34    3
    31    34    35    1
    32    35    36   ar
    33    36    37   ar
    34    37    38   ar
    35    38    39   ar
    36    39    40    1
    37    39    41   ar
    38    41    42   ar
    39    42    43   ar
    40    43    44   ar
    41    44    45   ar
    42     5     6   ar
    43     6     1   ar
    44    16     7   ar
    45    45    35   ar
    46    23    17   ar
    47    16    10   ar
    48    44    38   ar
    49    31    32    1
    50    26    27    1
@<TRIPOS>MOLECULE
*****
 45 50 0 0 0
SMALL
GASTEIGER

@<TRIPOS>ATOM
      1 C           6.9511   -2.7540   27.9958 C.ar    1  UNL1        0.1348
      2 C           7.8298   -3.0541   26.8178 C.ar    1  UNL1        0.0346
      3 C           7.4525   -2.5554   25.4543 C.ar    1  UNL1        0.0065
      4 C           6.1965   -1.7566   25.2690 C.ar    1  UNL1        0.0432
      5 C           5.3178   -1.4566   26.4470 C.ar    1  UNL1        0.1256
      6 N           5.6952   -1.9553   27.8105 N.ar    1  UNL1       -0.2222
      7 C           5.8191   -1.2579   23.9056 C.ar    1  UNL1        0.0850
      8 C           5.9515    0.1534   23.4151 C.ar    1  UNL1        0.1005
      9 N           5.4573    0.2006   21.9996 N.ar    1  UNL1       -0.2264
     10 C           5.0195   -1.1816   21.6152 C.ar    1  UNL1        0.1474
     11 C           4.4462   -1.7359   20.3448 C.ar    1  UNL1        0.0332
     12 C           4.0964   -3.1916   20.2523 C.ar    1  UNL1       -0.0174
     13 C           3.5230   -3.7459   18.9819 C.3     1  UNL1        0.0312
     14 C           4.3200   -4.0931   21.4302 C.ar    1  UNL1        0.0149
     15 C           4.8933   -3.5388   22.7006 C.ar    1  UNL1        0.0811
     16 N           5.2431   -2.0830   22.7932 N.ar    1  UNL1       -0.2888
     17 C           6.4845    1.3139   24.2020 C.ar    1  UNL1        0.0383
     18 C           5.5465    2.3658   24.7159 C.ar    1  UNL1        0.0043
     19 C           6.0795    3.5263   25.5028 C.ar    1  UNL1        0.0148
     20 C           7.5504    3.6350   25.7758 C.ar    1  UNL1        0.0594
     21 C           8.0833    4.7955   26.5627 C.3     1  UNL1        0.0521
     22 N           8.4883    2.5832   25.2620 N.ar    1  UNL1       -0.2481
     23 C           7.9553    1.4227   24.4751 C.ar    1  UNL1        0.0999
     24 C           6.9334   -4.6347   29.7882 C.2     1  UNL1        0.2414
     25 O           6.1610   -5.5180   28.8538 O.2     1  UNL1       -0.2733
     26 N           7.3285   -3.2527   29.3592 N.am    1  UNL1       -0.2682
     27 H           7.8355   -2.6730   29.9725 H       1  UNL1        0.1563
     28 C           7.3108   -5.1334   31.1517 C.3     1  UNL1        0.1319
     29 C           8.4918   -6.0433   31.3171 C.3     1  UNL1        0.0270
     30 C           6.0290   -3.3066   32.4820 C.3     1  UNL1        0.0862
     31 N           6.5072   -4.7221   32.3496 N.3     1  UNL1       -0.2902
     32 H           5.6779   -5.3158   32.3658 H       1  UNL1        0.1237
     33 C           4.0617   -0.6578   26.2617 C.1     1  UNL1       -0.0404
     34 C           2.8057    0.1410   26.0764 C.1     1  UNL1       -0.0583
     35 C           1.5497    0.9398   25.8910 C.ar    1  UNL1        0.0420
     36 C           0.6410    1.1902   27.0579 C.ar    1  UNL1        0.0083
     37 C          -0.6150    1.9889   26.8726 C.ar    1  UNL1        0.0018
     38 C          -0.9623    2.5373   25.5203 C.ar    1  UNL1        0.0137
     39 C          -2.2184    3.3361   25.3350 C.ar    1  UNL1        0.0594
     40 C          -3.1270    3.5865   26.5019 C.3     1  UNL1        0.0521
     41 N          -2.5658    3.8845   23.9828 N.ar    1  UNL1       -0.2481
     42 C          -1.6571    3.6341   22.8158 C.ar    1  UNL1        0.0984
     43 C          -0.4011    2.8354   23.0012 C.ar    1  UNL1        0.0207
     44 C          -0.0537    2.2870   24.3534 C.ar    1  UNL1        0.0033
     45 C           1.2023    1.4882   24.5388 C.ar    1  UNL1        0.0083
@<TRIPOS>BOND
     1    30    31    1
     2    31    28    1
     3    28    29    1
     4    28    24    1
     5    24    25    2
     6    24    26   am
     7    26     1    1
     8     1     2   ar
     9     2     3   ar
    10     3     4   ar
    11     4     7    1
    12     7     8   ar
    13     8    17    1
    14    17    18   ar
    15    18    19   ar
    16    19    20   ar
    17    20    21    1
    18    20    22   ar
    19    22    23   ar
    20     8     9   ar
    21     9    10   ar
    22    10    11   ar
    23    11    12   ar
    24    12    13    1
    25    12    14   ar
    26    14    15   ar
    27    15    16   ar
    28     4     5   ar
    29     5    33    1
    30    33    34    3
    31    34    35    1
    32    35    36   ar
    33    36    37   ar
    34    37    38   ar
    35    38    39   ar
    36    39    40    1
    37    39    41   ar
    38    41    42   ar
    39    42    43   ar
    40    43    44   ar
    41    44    45   ar
    42     5     6   ar
    43     6     1   ar
    44    16     7   ar
    45    45    35   ar
    46    23    17   ar
    47    16    10   ar
    48    44    38   ar
    49    31    32    1
    50    26    27    1
@<TRIPOS>MOLECULE
*****
 45 50 0 0 0
SMALL
GASTEIGER

@<TRIPOS>ATOM
      1 C           2.7073    0.3999   24.6573 C.ar    1  UNL1        0.1348
      2 C           4.1111    0.4547   24.1317 C.ar    1  UNL1        0.0346
      3 C           4.3833    1.0456   22.7801 C.ar    1  UNL1        0.0065
      4 C           3.2517    1.5817   21.9542 C.ar    1  UNL1        0.0432
      5 C           1.8480    1.5269   22.4799 C.ar    1  UNL1        0.1256
      6 N           1.5757    0.9360   23.8314 N.ar    1  UNL1       -0.2222
      7 C           3.5240    2.1726   20.6026 C.ar    1  UNL1        0.0850
      8 C           3.8746    1.4082   19.3605 C.ar    1  UNL1        0.1005
      9 N           4.0607    2.3948   18.2461 N.ar    1  UNL1       -0.2264
     10 C           3.8251    3.7690   18.7994 C.ar    1  UNL1        0.1474
     11 C           3.8697    5.1276   18.1653 C.ar    1  UNL1        0.0332
     12 C           3.5827    6.3489   18.9875 C.ar    1  UNL1       -0.0174
     13 C           3.6273    7.7075   18.3534 C.3     1  UNL1        0.0312
     14 C           3.2510    6.2116   20.4440 C.ar    1  UNL1        0.0149
     15 C           3.2063    4.8530   21.0781 C.ar    1  UNL1        0.0811
     16 N           3.4934    3.6316   20.2558 N.ar    1  UNL1       -0.2888
     17 C           4.0145   -0.0813   19.2519 C.ar    1  UNL1        0.0383
     18 C           2.9286   -0.9765   19.7713 C.ar    1  UNL1        0.0043
     19 C           3.0686   -2.4660   19.6627 C.ar    1  UNL1        0.0148
     20 C           4.2943   -3.0603   19.0347 C.ar    1  UNL1        0.0594
     21 C           4.4342   -4.5499   18.9261 C.3     1  UNL1        0.0521
     22 N           5.3801   -2.1652   18.5154 N.ar    1  UNL1       -0.2481
     23 C           5.2401   -0.6757   18.6240 C.ar    1  UNL1        0.0999
     24 C           2.0199    0.6957   27.1453 C.2     1  UNL1        0.2414
     25 O           1.8769    2.1733   26.9301 O.2     1  UNL1       -0.2733
     26 N           2.4351   -0.1910   26.0089 N.am    1  UNL1       -0.2682
     27 H           2.5289   -1.1608   26.1501 H       1  UNL1        0.1563
     28 C           1.7477    0.1048   28.4969 C.3     1  UNL1        0.1319
     29 C           2.7943    0.1719   29.5694 C.3     1  UNL1        0.0270
     30 C          -0.8485    0.1393   28.4035 C.3     1  UNL1        0.0862
     31 N           0.4290   -0.5532   28.7760 N.3     1  UNL1       -0.2902
     32 H           0.4349   -1.4457   28.2822 H       1  UNL1        0.1237
     33 C           0.7163    2.0630   21.6540 C.1     1  UNL1       -0.0404
     34 C          -0.4152    2.5991   20.8281 C.1     1  UNL1       -0.0583
     35 C          -1.5469    3.1352   20.0022 C.ar    1  UNL1        0.0420
     36 C          -1.2774    3.7067   18.6418 C.ar    1  UNL1        0.0083
     37 C          -2.4090    4.2427   17.8159 C.ar    1  UNL1        0.0018
     38 C          -3.8101    4.2073   18.3505 C.ar    1  UNL1        0.0137
     39 C          -4.9418    4.7434   17.5246 C.ar    1  UNL1        0.0594
     40 C          -4.6723    5.3149   16.1642 C.3     1  UNL1        0.0521
     41 N          -6.3428    4.7080   18.0592 N.ar    1  UNL1       -0.2481
     42 C          -6.6122    4.1365   19.4197 C.ar    1  UNL1        0.0984
     43 C          -5.4806    3.6004   20.2455 C.ar    1  UNL1        0.0207
     44 C          -4.0796    3.6358   19.7109 C.ar    1  UNL1        0.0033
     45 C          -2.9479    3.0998   20.5367 C.ar    1  UNL1        0.0083
@<TRIPOS>BOND
     1    30    31    1
     2    31    28    1
     3    28    29    1
     4    28    24    1
     5    24    25    2
     6    24    26   am
     7    26     1    1
     8     1     2   ar
     9     2     3   ar
    10     3     4   ar
    11     4     7    1
    12     7     8   ar
    13     8    17    1
    14    17    18   ar
    15    18    19   ar
    16    19    20   ar
    17    20    21    1
    18    20    22   ar
    19    22    23   ar
    20     8     9   ar
    21     9    10   ar
    22    10    11   ar
    23    11    12   ar
    24    12    13    1
    25    12    14   ar
    26    14    15   ar
    27    15    16   ar
    28     4     5   ar
    29     5    33    1
    30    33    34    3
    31    34    35    1
    32    35    36   ar
    33    36    37   ar
    34    37    38   ar
    35    38    39   ar
    36    39    40    1
    37    39    41   ar
    38    41    42   ar
    39    42    43   ar
    40    43    44   ar
    41    44    45   ar
    42     5     6   ar
    43     6     1   ar
    44    16     7   ar
    45    45    35   ar
    46    23    17   ar
    47    16    10   ar
    48    44    38   ar
    49    31    32    1
    50    26    27    1
@<TRIPOS>MOLECULE
*****
 45 50 0 0 0
SMALL
GASTEIGER

@<TRIPOS>ATOM
      1 C          -0.7198    2.4747   27.2069 C.ar    1  UNL1        0.1348
      2 C          -1.6839    3.5950   26.9509 C.ar    1  UNL1        0.0346
      3 C          -1.9165    4.0789   25.5503 C.ar    1  UNL1        0.0065
      4 C          -1.1851    3.4426   24.4057 C.ar    1  UNL1        0.0432
      5 C          -0.2210    2.3224   24.6618 C.ar    1  UNL1        0.1256
      6 N           0.0116    1.8385   26.0624 N.ar    1  UNL1       -0.2222
      7 C          -1.4177    3.9265   23.0051 C.ar    1  UNL1        0.0850
      8 C          -0.4292    4.6644   22.1516 C.ar    1  UNL1        0.1005
      9 N          -1.0803    4.9515   20.8311 N.ar    1  UNL1       -0.2264
     10 C          -2.4711    4.3910   20.8685 C.ar    1  UNL1        0.1474
     11 C          -3.5747    4.3756   19.8526 C.ar    1  UNL1        0.0332
     12 C          -4.8867    3.7267   20.1804 C.ar    1  UNL1       -0.0174
     13 C          -5.9903    3.7113   19.1646 C.3     1  UNL1        0.0312
     14 C          -5.0953    3.0933   21.5240 C.ar    1  UNL1        0.0149
     15 C          -3.9918    3.1087   22.5398 C.ar    1  UNL1        0.0811
     16 N          -2.6796    3.7576   22.2121 N.ar    1  UNL1       -0.2888
     17 C           0.9654    5.0479   22.5489 C.ar    1  UNL1        0.0383
     18 C           2.1376    4.5181   21.7772 C.ar    1  UNL1        0.0043
     19 C           3.5323    4.9016   22.1744 C.ar    1  UNL1        0.0148
     20 C           3.7549    5.8149   23.3433 C.ar    1  UNL1        0.0594
     21 C           5.1495    6.1984   23.7406 C.3     1  UNL1        0.0521
     22 N           2.5827    6.3447   24.1150 N.ar    1  UNL1       -0.2481
     23 C           1.1881    5.9612   23.7177 C.ar    1  UNL1        0.0999
     24 C           0.8094    2.2914   29.2993 C.2     1  UNL1        0.2414
     25 O           1.8734    3.0759   28.5904 O.2     1  UNL1       -0.2733
     26 N          -0.4872    1.9908   28.6075 N.am    1  UNL1       -0.2682
     27 H          -1.1855    1.4759   29.0728 H       1  UNL1        0.1563
     28 C           1.0420    1.8075   30.6999 C.3     1  UNL1        0.1319
     29 C           0.6109    2.6480   31.8651 C.3     1  UNL1        0.0270
     30 C           2.0422   -0.4043   29.7736 C.3     1  UNL1        0.0862
     31 N           1.7058    0.4831   30.9353 N.3     1  UNL1       -0.2902
     32 H           2.5811    0.6749   31.4224 H       1  UNL1        0.1237
     33 C           0.5105    1.6860   23.5172 C.1     1  UNL1       -0.0404
     34 C           1.2420    1.0497   22.3727 C.1     1  UNL1       -0.0583
     35 C           1.9736    0.4133   21.2281 C.ar    1  UNL1        0.0420
     36 C           2.0091    1.0917   19.8908 C.ar    1  UNL1        0.0083
     37 C           2.7406    0.4553   18.7463 C.ar    1  UNL1        0.0018
     38 C           3.4365   -0.8594   18.9391 C.ar    1  UNL1        0.0137
     39 C           4.1681   -1.4957   17.7945 C.ar    1  UNL1        0.0594
     40 C           4.2036   -0.8174   16.4572 C.3     1  UNL1        0.0521
     41 N           4.8640   -2.8104   17.9874 N.ar    1  UNL1       -0.2481
     42 C           4.8285   -3.4888   19.3248 C.ar    1  UNL1        0.0984
     43 C           4.0970   -2.8524   20.4693 C.ar    1  UNL1        0.0207
     44 C           3.4010   -1.5377   20.2764 C.ar    1  UNL1        0.0033
     45 C           2.6695   -0.9014   21.4209 C.ar    1  UNL1        0.0083
@<TRIPOS>BOND
     1    30    31    1
     2    31    28    1
     3    28    29    1
     4    28    24    1
     5    24    25    2
     6    24    26   am
     7    26     1    1
     8     1     2   ar
     9     2     3   ar
    10     3     4   ar
    11     4     7    1
    12     7     8   ar
    13     8    17    1
    14    17    18   ar
    15    18    19   ar
    16    19    20   ar
    17    20    21    1
    18    20    22   ar
    19    22    23   ar
    20     8     9   ar
    21     9    10   ar
    22    10    11   ar
    23    11    12   ar
    24    12    13    1
    25    12    14   ar
    26    14    15   ar
    27    15    16   ar
    28     4     5   ar
    29     5    33    1
    30    33    34    3
    31    34    35    1
    32    35    36   ar
    33    36    37   ar
    34    37    38   ar
    35    38    39   ar
    36    39    40    1
    37    39    41   ar
    38    41    42   ar
    39    42    43   ar
    40    43    44   ar
    41    44    45   ar
    42     5     6   ar
    43     6     1   ar
    44    16     7   ar
    45    45    35   ar
    46    23    17   ar
    47    16    10   ar
    48    44    38   ar
    49    31    32    1
    50    26    27    1
@<TRIPOS>MOLECULE
*****
 45 50 0 0 0
SMALL
GASTEIGER

@<TRIPOS>ATOM
      1 C          -0.2224    1.9241   20.7371 C.ar    1  UNL1        0.1348
      2 C           0.1882    1.9613   19.2949 C.ar    1  UNL1        0.0346
      3 C           1.4511    1.2807   18.8568 C.ar    1  UNL1        0.0065
      4 C           2.3034    0.5630   19.8610 C.ar    1  UNL1        0.0432
      5 C           1.8928    0.5258   21.3032 C.ar    1  UNL1        0.1256
      6 N           0.6299    1.2064   21.7412 N.ar    1  UNL1       -0.2222
      7 C           3.5664   -0.1175   19.4229 C.ar    1  UNL1        0.0850
      8 C           4.8539    0.5616   19.0609 C.ar    1  UNL1        0.1005
      9 N           5.8468   -0.4978   18.6842 N.ar    1  UNL1       -0.2264
     10 C           5.1729   -1.8317   18.8134 C.ar    1  UNL1        0.1474
     11 C           5.6605   -3.2299   18.5743 C.ar    1  UNL1        0.0332
     12 C           4.7387   -4.3931   18.7918 C.ar    1  UNL1       -0.0174
     13 C           5.2263   -5.7913   18.5527 C.3     1  UNL1        0.0312
     14 C           3.3293   -4.1581   19.2484 C.ar    1  UNL1        0.0149
     15 C           2.8417   -2.7598   19.4874 C.ar    1  UNL1        0.0811
     16 N           3.7635   -1.5966   19.2699 N.ar    1  UNL1       -0.2888
     17 C           5.1046    2.0404   19.0734 C.ar    1  UNL1        0.0383
     18 C           4.7307    2.8746   17.8840 C.ar    1  UNL1        0.0043
     19 C           4.9814    4.3535   17.8965 C.ar    1  UNL1        0.0148
     20 C           5.6060    4.9982   19.0982 C.ar    1  UNL1        0.0594
     21 C           5.8567    6.4770   19.1107 C.3     1  UNL1        0.0521
     22 N           5.9798    4.1640   20.2875 N.ar    1  UNL1       -0.2481
     23 C           5.7292    2.6852   20.2750 C.ar    1  UNL1        0.0999
     24 C          -1.4167    3.8318   22.0349 C.2     1  UNL1        0.2414
     25 O          -0.0850    4.3786   22.4566 O.2     1  UNL1       -0.2733
     26 N          -1.4854    2.6046   21.1751 N.am    1  UNL1       -0.2682
     27 H          -2.3594    2.2458   20.8983 H       1  UNL1        0.1563
     28 C          -2.6796    4.5123   22.4729 C.3     1  UNL1        0.1319
     29 C          -2.9439    5.9333   22.0715 C.3     1  UNL1        0.0270
     30 C          -4.8834    3.1508   22.6708 C.3     1  UNL1        0.0862
     31 N          -3.6782    3.7720   23.3123 N.3     1  UNL1       -0.2902
     32 H          -3.1712    3.0190   23.7775 H       1  UNL1        0.1237
     33 C           2.7452   -0.1919   22.3074 C.1     1  UNL1       -0.0404
     34 C           3.5975   -0.9096   23.3116 C.1     1  UNL1       -0.0583
     35 C           4.4498   -1.6274   24.3158 C.ar    1  UNL1        0.0420
     36 C           4.4191   -1.2143   25.7575 C.ar    1  UNL1        0.0083
     37 C           5.2714   -1.9320   26.7616 C.ar    1  UNL1        0.0018
     38 C           6.1545   -3.0628   26.3241 C.ar    1  UNL1        0.0137
     39 C           7.0069   -3.7805   27.3283 C.ar    1  UNL1        0.0594
     40 C           6.9761   -3.3675   28.7700 C.3     1  UNL1        0.0521
     41 N           7.8900   -4.9113   26.8908 N.ar    1  UNL1       -0.2481
     42 C           7.9208   -5.3244   25.4491 C.ar    1  UNL1        0.0984
     43 C           7.0684   -4.6067   24.4450 C.ar    1  UNL1        0.0207
     44 C           6.1853   -3.4759   24.8825 C.ar    1  UNL1        0.0033
     45 C           5.3330   -2.7581   23.8783 C.ar    1  UNL1        0.0083
@<TRIPOS>BOND
     1    30    31    1
     2    31    28    1
     3    28    29    1
     4    28    24    1
     5    24    25    2
     6    24    26   am
     7    26     1    1
     8     1     2   ar
     9     2     3   ar
    10     3     4   ar
    11     4     7    1
    12     7     8   ar
    13     8    17    1
    14    17    18   ar
    15    18    19   ar
    16    19    20   ar
    17    20    21    1
    18    20    22   ar
    19    22    23   ar
    20     8     9   ar
    21     9    10   ar
    22    10    11   ar
    23    11    12   ar
    24    12    13    1
    25    12    14   ar
    26    14    15   ar
    27    15    16   ar
    28     4     5   ar
    29     5    33    1
    30    33    34    3
    31    34    35    1
    32    35    36   ar
    33    36    37   ar
    34    37    38   ar
    35    38    39   ar
    36    39    40    1
    37    39    41   ar
    38    41    42   ar
    39    42    43   ar
    40    43    44   ar
    41    44    45   ar
    42     5     6   ar
    43     6     1   ar
    44    16     7   ar
    45    45    35   ar
    46    23    17   ar
    47    16    10   ar
    48    44    38   ar
    49    31    32    1
    50    26    27    1
