@<TRIPOS>MOLECULE
*****
 35 39 0 0 0
SMALL
GASTEIGER

@<TRIPOS>ATOM
      1 C          -9.6440  -17.4922   21.3590 C.2     1  UNL1        0.4048
      2 O         -10.7757  -17.6964   20.3960 O.2     1  UNL1       -0.2262
      3 N          -8.3737  -18.2741   21.2001 N.am    1  UNL1       -0.2443
      4 C          -8.0911  -19.2895   20.1329 C.3     1  UNL1        0.0985
      5 C          -6.7058  -19.8208   20.3537 C.3     1  UNL1        0.0429
      6 C          -6.1323  -19.1337   21.5574 C.3     1  UNL1        0.0920
      7 C          -7.1631  -18.1778   22.0805 C.3     1  UNL1        0.1162
      8 N          -4.7675  -19.3623   22.1364 N.pl3   1  UNL1       -0.3180
      9 H          -4.6291  -20.0712   22.8054 H       1  UNL1        0.1482
     10 C          -3.6137  -18.5109   21.6961 C.ar    1  UNL1        0.1324
     11 N          -2.8278  -18.8862   20.4749 N.ar    1  UNL1       -0.2294
     12 C          -1.6740  -18.0348   20.0346 C.ar    1  UNL1        0.1003
     13 C          -1.3062  -16.8081   20.8155 C.ar    1  UNL1        0.0207
     14 C          -2.0922  -16.4328   22.0367 C.ar    1  UNL1        0.0083
     15 C          -3.2460  -17.2842   22.4770 C.ar    1  UNL1        0.1027
     16 C          -4.0319  -16.9089   23.6982 C.3     1  UNL1        0.4212
     17 F          -4.8180  -16.5335   24.9194 F       1  UNL1       -0.1658
     18 F          -4.5890  -15.7192   22.9740 F       1  UNL1       -0.1658
     19 F          -3.4749  -18.0985   24.4223 F       1  UNL1       -0.1658
     20 O          -9.7824  -16.5063   22.4809 O.3     1  UNL1       -0.4383
     21 C         -10.0393  -17.6218   23.1869 C.3     1  UNL1        0.0688
     22 C          -9.5162  -17.3388   24.5639 C.3     1  UNL1        0.0086
     23 C          -9.6329  -18.3784   25.6388 C.3     1  UNL1        0.0007
     24 C         -10.2727  -19.7010   25.3367 C.3     1  UNL1        0.0036
     25 C         -10.7958  -19.9840   23.9597 C.3     1  UNL1        0.0407
     26 C         -10.6791  -18.9444   22.8848 C.3     1  UNL1        0.0122
     27 C          -9.5477  -16.9431   23.8965 C.3     1  UNL1        0.1702
     28 C          -8.8763  -16.0161   24.8660 C.3     1  UNL1        0.0407
     29 C          -8.9930  -17.0557   25.9409 C.3     1  UNL1        0.0036
     30 C          -9.3995  -16.2991   23.4889 C.3     1  UNL1        0.0122
     31 N         -11.1450  -15.8546   21.6362 N.am    1  UNL1       -0.3288
     32 C          -9.9226  -16.5821   22.1118 C.2     1  UNL1        0.2184
     33 O          -8.7777  -16.0325   21.3138 O.2     1  UNL1       -0.2754
     34 H         -11.0685  -15.1723   20.9306 H       1  UNL1        0.1449
     35 H         -12.0240  -16.0595   22.0295 H       1  UNL1        0.1449
@<TRIPOS>BOND
     1    31    32   am
     2    32    33    2
     3    21    32    1
     4    21    22    1
     5    22    23    1
     6    23    24    1
     7    24    25    1
     8    25    26    1
     9    25    27    1
    10    27    20    1
    11    20     1    1
    12     1     2    2
    13     1     3   am
    14     3     4    1
    15     4     5    1
    16     5     6    1
    17     6     8    1
    18     8    10    1
    19    10    11   ar
    20    11    12   ar
    21    12    13   ar
    22    13    14   ar
    23    14    15   ar
    24    15    16    1
    25    16    17    1
    26    16    18    1
    27    16    19    1
    28     6     7    1
    29    27    28    1
    30    28    29    1
    31    28    30    1
    32    26    21    1
    33     7     3    1
    34    30    21    1
    35    29    23    1
    36    15    10   ar
    37    31    34    1
    38    31    35    1
    39     8     9    1
@<TRIPOS>MOLECULE
*****
 35 39 0 0 0
SMALL
GASTEIGER

@<TRIPOS>ATOM
      1 C          -9.9816  -17.5520   21.2134 C.2     1  UNL1        0.4048
      2 O         -11.0613  -17.7969   20.2014 O.2     1  UNL1       -0.2262
      3 N          -8.6834  -18.2976   21.1205 N.am    1  UNL1       -0.2443
      4 C          -8.3225  -19.3130   20.0771 C.3     1  UNL1        0.0985
      5 C          -6.9342  -19.8018   20.3663 C.3     1  UNL1        0.0429
      6 C          -6.4370  -19.0884   21.5886 C.3     1  UNL1        0.0920
      7 C          -7.5180  -18.1588   22.0547 C.3     1  UNL1        0.1162
      8 N          -5.0945  -19.2724   22.2319 N.pl3   1  UNL1       -0.3180
      9 H          -4.9533  -20.0033   22.8761 H       1  UNL1        0.1482
     10 C          -3.9670  -18.3427   21.8935 C.ar    1  UNL1        0.1324
     11 N          -3.6796  -17.1614   22.7721 N.ar    1  UNL1       -0.2294
     12 C          -2.5521  -16.2318   22.4338 C.ar    1  UNL1        0.1003
     13 C          -1.7120  -16.4834   21.2169 C.ar    1  UNL1        0.0207
     14 C          -1.9994  -17.6647   20.3383 C.ar    1  UNL1        0.0083
     15 C          -3.1269  -18.5944   20.6766 C.ar    1  UNL1        0.1027
     16 C          -3.4143  -19.7757   19.7981 C.3     1  UNL1        0.4212
     17 F          -3.7018  -20.9570   18.9194 F       1  UNL1       -0.1658
     18 F          -4.1660  -18.8881   18.8507 F       1  UNL1       -0.1658
     19 F          -2.6627  -20.6631   20.7454 F       1  UNL1       -0.1658
     20 O         -10.2001  -16.5614   22.3184 O.3     1  UNL1       -0.4383
     21 C         -10.3169  -17.6524   23.0961 C.3     1  UNL1        0.0688
     22 C          -9.6919  -17.2658   24.4037 C.3     1  UNL1        0.0086
     23 C          -9.6413  -18.2531   25.5317 C.3     1  UNL1        0.0007
     24 C         -10.2157  -19.6271   25.3522 C.3     1  UNL1        0.0036
     25 C         -10.8407  -20.0137   24.0446 C.3     1  UNL1        0.0407
     26 C         -10.8914  -19.0264   22.9166 C.3     1  UNL1        0.0122
     27 C          -9.8100  -16.9082   23.7246 C.3     1  UNL1        0.1702
     28 C          -9.1175  -15.8918   24.5832 C.3     1  UNL1        0.0407
     29 C          -9.0669  -16.8792   25.7113 C.3     1  UNL1        0.0036
     30 C          -9.7425  -16.2784   23.2756 C.3     1  UNL1        0.0122
     31 N         -11.6854  -16.1077   21.5177 N.am    1  UNL1       -0.3288
     32 C         -10.3676  -16.6650   21.9680 C.2     1  UNL1        0.2184
     33 O          -9.3292  -16.0320   21.0899 O.2     1  UNL1       -0.2754
     34 H         -11.7186  -15.4597   20.7773 H       1  UNL1        0.1449
     35 H         -12.5170  -16.3899   21.9625 H       1  UNL1        0.1449
@<TRIPOS>BOND
     1    31    32   am
     2    32    33    2
     3    21    32    1
     4    21    22    1
     5    22    23    1
     6    23    24    1
     7    24    25    1
     8    25    26    1
     9    25    27    1
    10    27    20    1
    11    20     1    1
    12     1     2    2
    13     1     3   am
    14     3     4    1
    15     4     5    1
    16     5     6    1
    17     6     8    1
    18     8    10    1
    19    10    11   ar
    20    11    12   ar
    21    12    13   ar
    22    13    14   ar
    23    14    15   ar
    24    15    16    1
    25    16    17    1
    26    16    18    1
    27    16    19    1
    28     6     7    1
    29    27    28    1
    30    28    29    1
    31    28    30    1
    32    26    21    1
    33     7     3    1
    34    30    21    1
    35    29    23    1
    36    15    10   ar
    37    31    34    1
    38    31    35    1
    39     8     9    1
@<TRIPOS>MOLECULE
*****
 35 39 0 0 0
SMALL
GASTEIGER

@<TRIPOS>ATOM
      1 C          -8.5909  -16.1833   23.0704 C.2     1  UNL1        0.4048
      2 O          -9.1754  -15.0812   23.9032 O.2     1  UNL1       -0.2262
      3 N          -7.1700  -16.6131   23.2856 N.am    1  UNL1       -0.2443
      4 C          -6.2171  -16.0370   24.2907 C.3     1  UNL1        0.0985
      5 C          -4.9107  -16.7624   24.1598 C.3     1  UNL1        0.0429
      6 C          -5.0561  -17.7868   23.0738 C.3     1  UNL1        0.0920
      7 C          -6.4524  -17.6945   22.5335 C.3     1  UNL1        0.1162
      8 N          -3.9921  -18.7367   22.6095 N.pl3   1  UNL1       -0.3180
      9 H          -3.8546  -19.5902   23.0806 H       1  UNL1        0.1482
     10 C          -3.1377  -18.3863   21.4275 C.ar    1  UNL1        0.1324
     11 N          -2.0395  -17.3745   21.5695 N.ar    1  UNL1       -0.2294
     12 C          -1.1851  -17.0241   20.3876 C.ar    1  UNL1        0.1003
     13 C          -1.4288  -17.6855   19.0635 C.ar    1  UNL1        0.0207
     14 C          -2.5270  -18.6974   18.9215 C.ar    1  UNL1        0.0083
     15 C          -3.3814  -19.0478   20.1036 C.ar    1  UNL1        0.1027
     16 C          -4.4796  -20.0596   19.9616 C.3     1  UNL1        0.4212
     17 F          -5.5778  -21.0716   19.8196 F       1  UNL1       -0.1658
     18 F          -3.4981  -21.1622   20.2284 F       1  UNL1       -0.1658
     19 F          -5.4610  -18.9571   19.6947 F       1  UNL1       -0.1658
     20 O          -9.4272  -16.8555   22.0223 O.3     1  UNL1       -0.4383
     21 C          -9.6402  -17.6669   23.0735 C.3     1  UNL1        0.0688
     22 C         -10.0204  -18.9880   22.4734 C.3     1  UNL1        0.0086
     23 C         -10.3352  -20.1534   23.3638 C.3     1  UNL1        0.0007
     24 C         -10.2698  -19.9976   24.8542 C.3     1  UNL1        0.0036
     25 C          -9.8895  -18.6766   25.4543 C.3     1  UNL1        0.0407
     26 C          -9.5747  -17.5112   24.5639 C.3     1  UNL1        0.0122
     27 C          -9.8285  -18.2911   22.1899 C.3     1  UNL1        0.1702
     28 C         -10.0858  -19.1437   20.9829 C.3     1  UNL1        0.0407
     29 C         -10.4006  -20.3091   21.8733 C.3     1  UNL1        0.0036
     30 C          -9.7056  -17.8227   21.5830 C.3     1  UNL1        0.0122
     31 N         -10.4062  -15.5323   21.8060 N.am    1  UNL1       -0.3288
     32 C          -9.3253  -16.5015   22.1831 C.2     1  UNL1        0.2184
     33 O          -8.0781  -16.0130   21.5081 O.2     1  UNL1       -0.2754
     34 H         -10.1996  -14.7674   21.2216 H       1  UNL1        0.1449
     35 H         -11.3223  -15.6611   22.1428 H       1  UNL1        0.1449
@<TRIPOS>BOND
     1    31    32   am
     2    32    33    2
     3    21    32    1
     4    21    22    1
     5    22    23    1
     6    23    24    1
     7    24    25    1
     8    25    26    1
     9    25    27    1
    10    27    20    1
    11    20     1    1
    12     1     2    2
    13     1     3   am
    14     3     4    1
    15     4     5    1
    16     5     6    1
    17     6     8    1
    18     8    10    1
    19    10    11   ar
    20    11    12   ar
    21    12    13   ar
    22    13    14   ar
    23    14    15   ar
    24    15    16    1
    25    16    17    1
    26    16    18    1
    27    16    19    1
    28     6     7    1
    29    27    28    1
    30    28    29    1
    31    28    30    1
    32    26    21    1
    33     7     3    1
    34    30    21    1
    35    29    23    1
    36    15    10   ar
    37    31    34    1
    38    31    35    1
    39     8     9    1
@<TRIPOS>MOLECULE
*****
 35 39 0 0 0
SMALL
GASTEIGER

@<TRIPOS>ATOM
      1 C         -10.5056  -17.9523   20.9534 C.2     1  UNL1        0.4048
      2 O         -11.4821  -17.9655   19.8148 O.2     1  UNL1       -0.2262
      3 N          -9.1651  -18.6076   20.7993 N.am    1  UNL1       -0.2443
      4 C          -8.6632  -19.3110   19.5733 C.3     1  UNL1        0.0985
      5 C          -7.2790  -19.8126   19.8605 C.3     1  UNL1        0.0429
      6 C          -6.9254  -19.4192   21.2641 C.3     1  UNL1        0.0920
      7 C          -8.0911  -18.6744   21.8443 C.3     1  UNL1        0.1162
      8 N          -5.6331  -19.7180   21.9646 N.pl3   1  UNL1       -0.3180
      9 H          -5.4939  -20.5962   22.3872 H       1  UNL1        0.1482
     10 C          -4.5529  -18.6787   22.0212 C.ar    1  UNL1        0.1324
     11 N          -4.5542  -17.6546   23.1172 N.ar    1  UNL1       -0.2294
     12 C          -3.4741  -16.6154   23.1738 C.ar    1  UNL1        0.1003
     13 C          -2.3926  -16.6003   22.1344 C.ar    1  UNL1        0.0207
     14 C          -2.3914  -17.6244   21.0384 C.ar    1  UNL1        0.0083
     15 C          -3.4716  -18.6636   20.9818 C.ar    1  UNL1        0.1027
     16 C          -3.4704  -19.6878   19.8859 C.3     1  UNL1        0.4212
     17 F          -3.4692  -20.7119   18.7898 F       1  UNL1       -0.1658
     18 F          -4.2715  -18.7615   19.0195 F       1  UNL1       -0.1658
     19 F          -2.6693  -20.6139   20.7522 F       1  UNL1       -0.1658
     20 O         -10.8696  -17.2840   22.2459 O.3     1  UNL1       -0.4383
     21 C         -10.1871  -16.9969   23.3687 C.3     1  UNL1        0.0688
     22 C         -10.3932  -18.1838   24.2624 C.3     1  UNL1        0.0086
     23 C          -9.7659  -18.2148   25.6246 C.3     1  UNL1        0.0007
     24 C          -8.9326  -17.0589   26.0930 C.3     1  UNL1        0.0036
     25 C          -8.7266  -15.8720   25.1993 C.3     1  UNL1        0.0407
     26 C          -9.3538  -15.8410   23.8371 C.3     1  UNL1        0.0122
     27 C         -10.6264  -17.9871   23.5484 C.3     1  UNL1        0.1702
     28 C         -11.2265  -19.3398   23.7939 C.3     1  UNL1        0.0407
     29 C         -10.5992  -19.3707   25.1561 C.3     1  UNL1        0.0036
     30 C         -11.0204  -18.1529   22.9002 C.3     1  UNL1        0.0122
     31 N         -10.2114  -16.1230   20.9221 N.am    1  UNL1       -0.3288
     32 C         -10.8144  -16.9659   22.0064 C.2     1  UNL1        0.2184
     33 O         -12.0115  -17.6316   21.3951 O.2     1  UNL1       -0.2754
     34 H         -10.6230  -16.1027   20.0280 H       1  UNL1        0.1449
     35 H          -9.4039  -15.5901   21.1044 H       1  UNL1        0.1449
@<TRIPOS>BOND
     1    31    32   am
     2    32    33    2
     3    21    32    1
     4    21    22    1
     5    22    23    1
     6    23    24    1
     7    24    25    1
     8    25    26    1
     9    25    27    1
    10    27    20    1
    11    20     1    1
    12     1     2    2
    13     1     3   am
    14     3     4    1
    15     4     5    1
    16     5     6    1
    17     6     8    1
    18     8    10    1
    19    10    11   ar
    20    11    12   ar
    21    12    13   ar
    22    13    14   ar
    23    14    15   ar
    24    15    16    1
    25    16    17    1
    26    16    18    1
    27    16    19    1
    28     6     7    1
    29    27    28    1
    30    28    29    1
    31    28    30    1
    32    26    21    1
    33     7     3    1
    34    30    21    1
    35    29    23    1
    36    15    10   ar
    37    31    34    1
    38    31    35    1
    39     8     9    1
@<TRIPOS>MOLECULE
*****
 35 39 0 0 0
SMALL
GASTEIGER

@<TRIPOS>ATOM
      1 C          -9.7485  -18.0616   22.3059 C.2     1  UNL1        0.4048
      2 O         -10.9488  -18.0980   21.4071 O.2     1  UNL1       -0.2262
      3 N          -8.4442  -18.6369   21.8392 N.am    1  UNL1       -0.2443
      4 C          -8.1896  -19.2778   20.5071 C.3     1  UNL1        0.0985
      5 C          -6.7536  -19.7093   20.4671 C.3     1  UNL1        0.0429
      6 C          -6.1206  -19.3351   21.7746 C.3     1  UNL1        0.0920
      7 C          -7.1655  -18.6723   22.6225 C.3     1  UNL1        0.1162
      8 N          -4.6934  -19.5805   22.1655 N.pl3   1  UNL1       -0.3180
      9 H          -4.4656  -20.3449   22.7426 H       1  UNL1        0.1482
     10 C          -3.6133  -18.6613   21.6771 C.ar    1  UNL1        0.1324
     11 N          -2.8947  -18.9628   20.3954 N.ar    1  UNL1       -0.2294
     12 C          -1.8146  -18.0437   19.9070 C.ar    1  UNL1        0.1003
     13 C          -1.4531  -16.8230   20.7003 C.ar    1  UNL1        0.0207
     14 C          -2.1717  -16.5216   21.9820 C.ar    1  UNL1        0.0083
     15 C          -3.2518  -17.4407   22.4703 C.ar    1  UNL1        0.1027
     16 C          -3.9704  -17.1393   23.7520 C.3     1  UNL1        0.4212
     17 F          -4.6891  -16.8378   25.0338 F       1  UNL1       -0.1658
     18 F          -3.1354  -18.1640   24.4612 F       1  UNL1       -0.1658
     19 F          -4.8054  -16.1146   23.0428 F       1  UNL1       -0.1658
     20 O          -9.8525  -17.4499   23.6716 O.3     1  UNL1       -0.4383
     21 C          -9.2772  -17.0971   24.8349 C.3     1  UNL1        0.0688
     22 C          -8.4010  -15.9279   24.4957 C.3     1  UNL1        0.0086
     23 C          -7.5909  -15.2618   25.5681 C.3     1  UNL1        0.0007
     24 C          -7.6570  -15.7649   26.9796 C.3     1  UNL1        0.0036
     25 C          -8.5333  -16.9341   27.3188 C.3     1  UNL1        0.0407
     26 C          -9.3433  -17.6002   26.2464 C.3     1  UNL1        0.0122
     27 C          -8.8789  -16.3903   24.0949 C.3     1  UNL1        0.1702
     28 C          -8.3348  -15.4247   23.0841 C.3     1  UNL1        0.0407
     29 C          -7.5248  -14.7586   24.1565 C.3     1  UNL1        0.0036
     30 C          -9.2111  -16.5940   23.4233 C.3     1  UNL1        0.0122
     31 N         -10.1135  -19.2597   23.6627 N.am    1  UNL1       -0.3288
     32 C         -10.0873  -17.7633   23.7625 C.2     1  UNL1        0.2184
     33 O         -10.9648  -17.2597   22.6550 O.2     1  UNL1       -0.2754
     34 H         -10.6452  -19.6969   22.9589 H       1  UNL1        0.1449
     35 H          -9.5990  -19.8046   24.3011 H       1  UNL1        0.1449
@<TRIPOS>BOND
     1    31    32   am
     2    32    33    2
     3    21    32    1
     4    21    22    1
     5    22    23    1
     6    23    24    1
     7    24    25    1
     8    25    26    1
     9    25    27    1
    10    27    20    1
    11    20     1    1
    12     1     2    2
    13     1     3   am
    14     3     4    1
    15     4     5    1
    16     5     6    1
    17     6     8    1
    18     8    10    1
    19    10    11   ar
    20    11    12   ar
    21    12    13   ar
    22    13    14   ar
    23    14    15   ar
    24    15    16    1
    25    16    17    1
    26    16    18    1
    27    16    19    1
    28     6     7    1
    29    27    28    1
    30    28    29    1
    31    28    30    1
    32    26    21    1
    33     7     3    1
    34    30    21    1
    35    29    23    1
    36    15    10   ar
    37    31    34    1
    38    31    35    1
    39     8     9    1
@<TRIPOS>MOLECULE
*****
 35 39 0 0 0
SMALL
GASTEIGER

@<TRIPOS>ATOM
      1 C          -9.2066  -17.2414   22.9943 C.2     1  UNL1        0.4048
      2 O         -10.6071  -17.5779   22.5755 O.2     1  UNL1       -0.2262
      3 N          -8.0799  -18.1744   22.6624 N.am    1  UNL1       -0.2443
      4 C          -8.1996  -19.4728   21.9210 C.3     1  UNL1        0.0985
      5 C          -6.8293  -20.0736   21.8140 C.3     1  UNL1        0.0429
      6 C          -5.8627  -19.1464   22.4893 C.3     1  UNL1        0.0920
      7 C          -6.6356  -17.9727   23.0137 C.3     1  UNL1        0.1162
      8 N          -4.3830  -19.3562   22.6178 N.pl3   1  UNL1       -0.3180
      9 H          -4.0369  -20.1115   23.1460 H       1  UNL1        0.1482
     10 C          -3.4306  -18.4151   21.9415 C.ar    1  UNL1        0.1324
     11 N          -2.9068  -17.2191   22.6798 N.ar    1  UNL1       -0.2294
     12 C          -1.9544  -16.2782   22.0035 C.ar    1  UNL1        0.1003
     13 C          -1.5258  -16.5331   20.5889 C.ar    1  UNL1        0.0207
     14 C          -2.0497  -17.7291   19.8505 C.ar    1  UNL1        0.0083
     15 C          -3.0021  -18.6702   20.5269 C.ar    1  UNL1        0.1027
     16 C          -3.5259  -19.8662   19.7885 C.3     1  UNL1        0.4212
     17 F          -4.0497  -21.0623   19.0502 F       1  UNL1       -0.1658
     18 F          -2.5413  -20.7407   20.5068 F       1  UNL1       -0.1658
     19 F          -4.5104  -18.9916   19.0703 F       1  UNL1       -0.1658
     20 O          -8.9329  -15.9720   23.7451 O.3     1  UNL1       -0.4383
     21 C          -7.7410  -15.6507   24.2789 C.3     1  UNL1        0.0688
     22 C          -7.8671  -15.9802   25.7368 C.3     1  UNL1        0.0086
     23 C          -6.7090  -15.7472   26.6611 C.3     1  UNL1        0.0007
     24 C          -5.4249  -15.1847   26.1277 C.3     1  UNL1        0.0036
     25 C          -5.2988  -14.8552   24.6698 C.3     1  UNL1        0.0407
     26 C          -6.4569  -15.0882   23.7454 C.3     1  UNL1        0.0122
     27 C          -8.3371  -16.0278   25.1205 C.3     1  UNL1        0.1702
     28 C          -9.1512  -16.5427   26.2702 C.3     1  UNL1        0.0407
     29 C          -7.9931  -16.3097   27.1946 C.3     1  UNL1        0.0036
     30 C          -9.0251  -16.2132   24.8124 C.3     1  UNL1        0.0122
     31 N          -8.7446  -15.6400   21.8824 N.am    1  UNL1       -0.3288
     32 C          -8.8991  -15.8837   23.3544 C.2     1  UNL1        0.2184
     33 O         -10.3129  -16.3448   23.5509 O.2     1  UNL1       -0.2754
     34 H          -9.5046  -15.7929   21.2757 H       1  UNL1        0.1449
     35 H          -7.8831  -15.3271   21.5231 H       1  UNL1        0.1449
@<TRIPOS>BOND
     1    31    32   am
     2    32    33    2
     3    21    32    1
     4    21    22    1
     5    22    23    1
     6    23    24    1
     7    24    25    1
     8    25    26    1
     9    25    27    1
    10    27    20    1
    11    20     1    1
    12     1     2    2
    13     1     3   am
    14     3     4    1
    15     4     5    1
    16     5     6    1
    17     6     8    1
    18     8    10    1
    19    10    11   ar
    20    11    12   ar
    21    12    13   ar
    22    13    14   ar
    23    14    15   ar
    24    15    16    1
    25    16    17    1
    26    16    18    1
    27    16    19    1
    28     6     7    1
    29    27    28    1
    30    28    29    1
    31    28    30    1
    32    26    21    1
    33     7     3    1
    34    30    21    1
    35    29    23    1
    36    15    10   ar
    37    31    34    1
    38    31    35    1
    39     8     9    1
@<TRIPOS>MOLECULE
*****
 35 39 0 0 0
SMALL
GASTEIGER

@<TRIPOS>ATOM
      1 C          -8.7087  -15.8816   24.3135 C.2     1  UNL1        0.4048
      2 O          -9.1913  -14.9012   25.3409 O.2     1  UNL1       -0.2262
      3 N          -7.2395  -16.1390   24.1543 N.am    1  UNL1       -0.2443
      4 C          -6.1406  -15.4946   24.9463 C.3     1  UNL1        0.0985
      5 C          -4.8332  -16.0434   24.4567 C.3     1  UNL1        0.0429
      6 C          -5.1241  -17.0269   23.3622 C.3     1  UNL1        0.0920
      7 C          -6.6113  -17.0861   23.1753 C.3     1  UNL1        0.1162
      8 N          -4.1066  -17.8133   22.5901 N.pl3   1  UNL1       -0.3180
      9 H          -3.1547  -17.5664   22.6368 H       1  UNL1        0.1482
     10 C          -4.5393  -18.9758   21.7467 C.ar    1  UNL1        0.1324
     11 N          -5.8138  -19.7000   22.0648 N.ar    1  UNL1       -0.2294
     12 C          -6.2465  -20.8624   21.2215 C.ar    1  UNL1        0.1003
     13 C          -5.4048  -21.3008   20.0599 C.ar    1  UNL1        0.0207
     14 C          -4.1303  -20.5767   19.7418 C.ar    1  UNL1        0.0083
     15 C          -3.6975  -19.4142   20.5852 C.ar    1  UNL1        0.1027
     16 C          -2.4230  -18.6900   20.2670 C.3     1  UNL1        0.4212
     17 F          -1.1485  -17.9659   19.9488 F       1  UNL1       -0.1658
     18 F          -1.7097  -19.4817   21.3227 F       1  UNL1       -0.1658
     19 F          -3.1364  -17.8984   19.2114 F       1  UNL1       -0.1658
     20 O          -9.6952  -16.6047   23.4452 O.3     1  UNL1       -0.4383
     21 C         -10.0923  -17.6343   22.6764 C.3     1  UNL1        0.0688
     22 C         -10.1676  -18.8077   23.6076 C.3     1  UNL1        0.0086
     23 C         -10.5849  -20.1517   23.0883 C.3     1  UNL1        0.0007
     24 C         -10.9269  -20.3221   21.6378 C.3     1  UNL1        0.0036
     25 C         -10.8515  -19.1487   20.7066 C.3     1  UNL1        0.0407
     26 C         -10.4342  -17.8047   21.2259 C.3     1  UNL1        0.0122
     27 C          -9.9796  -18.0582   23.6831 C.3     1  UNL1        0.1702
     28 C          -9.8257  -18.6373   25.0581 C.3     1  UNL1        0.0407
     29 C         -10.2430  -19.9812   24.5389 C.3     1  UNL1        0.0036
     30 C          -9.7503  -17.4638   24.1269 C.3     1  UNL1        0.0122
     31 N          -8.8655  -15.3703   22.3306 N.am    1  UNL1       -0.3288
     32 C          -9.6750  -16.2903   23.1956 C.2     1  UNL1        0.2184
     33 O          -9.8842  -15.5626   24.4905 O.2     1  UNL1       -0.2754
     34 H          -8.5916  -14.4882   22.6714 H       1  UNL1        0.1449
     35 H          -8.6080  -15.6486   21.4220 H       1  UNL1        0.1449
@<TRIPOS>BOND
     1    31    32   am
     2    32    33    2
     3    21    32    1
     4    21    22    1
     5    22    23    1
     6    23    24    1
     7    24    25    1
     8    25    26    1
     9    25    27    1
    10    27    20    1
    11    20     1    1
    12     1     2    2
    13     1     3   am
    14     3     4    1
    15     4     5    1
    16     5     6    1
    17     6     8    1
    18     8    10    1
    19    10    11   ar
    20    11    12   ar
    21    12    13   ar
    22    13    14   ar
    23    14    15   ar
    24    15    16    1
    25    16    17    1
    26    16    18    1
    27    16    19    1
    28     6     7    1
    29    27    28    1
    30    28    29    1
    31    28    30    1
    32    26    21    1
    33     7     3    1
    34    30    21    1
    35    29    23    1
    36    15    10   ar
    37    31    34    1
    38    31    35    1
    39     8     9    1
@<TRIPOS>MOLECULE
*****
 35 39 0 0 0
SMALL
GASTEIGER

@<TRIPOS>ATOM
      1 C         -10.2101  -18.3757   24.0201 C.2     1  UNL1        0.4048
      2 O         -11.2123  -17.9533   25.0531 O.2     1  UNL1       -0.2262
      3 N          -8.8623  -17.7193   23.9702 N.am    1  UNL1       -0.2443
      4 C          -8.3766  -16.6323   24.8826 C.3     1  UNL1        0.0985
      5 C          -6.9776  -16.2759   24.4754 C.3     1  UNL1        0.0429
      6 C          -6.5987  -17.1426   23.3113 C.3     1  UNL1        0.0920
      7 C          -7.7634  -18.0347   22.9990 C.3     1  UNL1        0.1162
      8 N          -5.2855  -17.1210   22.5867 N.pl3   1  UNL1       -0.3180
      9 H          -4.7041  -16.3287   22.6449 H       1  UNL1        0.1482
     10 C          -4.8581  -18.3067   21.7733 C.ar    1  UNL1        0.1324
     11 N          -5.8564  -19.3652   21.4086 N.ar    1  UNL1       -0.2294
     12 C          -5.4291  -20.5508   20.5953 C.ar    1  UNL1        0.1003
     13 C          -4.0035  -20.6781   20.1466 C.ar    1  UNL1        0.0207
     14 C          -3.0052  -19.6196   20.5113 C.ar    1  UNL1        0.0083
     15 C          -3.4325  -18.4339   21.3247 C.ar    1  UNL1        0.1027
     16 C          -2.4342  -17.3754   21.6893 C.3     1  UNL1        0.4212
     17 F          -1.4359  -16.3168   22.0540 F       1  UNL1       -0.1658
     18 F          -2.5482  -16.7933   20.3115 F       1  UNL1       -0.1658
     19 F          -2.3203  -17.9575   23.0671 F       1  UNL1       -0.1658
     20 O         -10.5559  -19.4544   23.0369 O.3     1  UNL1       -0.4383
     21 C         -11.0425  -18.4129   22.3388 C.3     1  UNL1        0.0688
     22 C         -10.8461  -18.7849   20.8990 C.3     1  UNL1        0.0086
     23 C         -11.2801  -17.8431   19.8153 C.3     1  UNL1        0.0007
     24 C         -11.9104  -16.5293   20.1713 C.3     1  UNL1        0.0036
     25 C         -12.1068  -16.1574   21.6110 C.3     1  UNL1        0.0407
     26 C         -11.6729  -17.0992   22.6948 C.3     1  UNL1        0.0122
     27 C         -10.6930  -19.1254   21.5799 C.3     1  UNL1        0.1702
     28 C         -10.2157  -20.0986   20.5430 C.3     1  UNL1        0.0407
     29 C         -10.6497  -19.1568   19.4593 C.3     1  UNL1        0.0036
     30 C         -10.4121  -19.7267   21.9828 C.3     1  UNL1        0.0122
     31 N         -11.5596  -19.7210   24.5232 N.am    1  UNL1       -0.3288
     32 C         -10.6085  -19.3547   23.4227 C.2     1  UNL1        0.2184
     33 O          -9.3368  -20.0958   23.7116 O.2     1  UNL1       -0.2754
     34 H         -11.2748  -20.3391   25.2346 H       1  UNL1        0.1449
     35 H         -12.4687  -19.3433   24.5342 H       1  UNL1        0.1449
@<TRIPOS>BOND
     1    31    32   am
     2    32    33    2
     3    21    32    1
     4    21    22    1
     5    22    23    1
     6    23    24    1
     7    24    25    1
     8    25    26    1
     9    25    27    1
    10    27    20    1
    11    20     1    1
    12     1     2    2
    13     1     3   am
    14     3     4    1
    15     4     5    1
    16     5     6    1
    17     6     8    1
    18     8    10    1
    19    10    11   ar
    20    11    12   ar
    21    12    13   ar
    22    13    14   ar
    23    14    15   ar
    24    15    16    1
    25    16    17    1
    26    16    18    1
    27    16    19    1
    28     6     7    1
    29    27    28    1
    30    28    29    1
    31    28    30    1
    32    26    21    1
    33     7     3    1
    34    30    21    1
    35    29    23    1
    36    15    10   ar
    37    31    34    1
    38    31    35    1
    39     8     9    1
@<TRIPOS>MOLECULE
*****
 35 39 0 0 0
SMALL
GASTEIGER

@<TRIPOS>ATOM
      1 C          -8.3353  -15.8165   23.7035 C.2     1  UNL1        0.4048
      2 O          -9.1032  -14.9610   24.6670 O.2     1  UNL1       -0.2262
      3 N          -6.8907  -16.1263   23.9623 N.am    1  UNL1       -0.2443
      4 C          -6.0840  -15.6539   25.1353 C.3     1  UNL1        0.0985
      5 C          -4.6938  -16.1986   24.9915 C.3     1  UNL1        0.0429
      6 C          -4.6412  -17.0076   23.7295 C.3     1  UNL1        0.0920
      7 C          -5.9990  -16.9630   23.0934 C.3     1  UNL1        0.1162
      8 N          -3.4416  -17.7338   23.1970 N.pl3   1  UNL1       -0.3180
      9 H          -2.5893  -17.7033   23.6888 H       1  UNL1        0.1482
     10 C          -3.5406  -18.5066   21.9152 C.ar    1  UNL1        0.1324
     11 N          -4.5321  -19.6250   21.7883 N.ar    1  UNL1       -0.2294
     12 C          -4.6311  -20.3977   20.5066 C.ar    1  UNL1        0.1003
     13 C          -3.7384  -20.0522   19.3516 C.ar    1  UNL1        0.0207
     14 C          -2.7469  -18.9338   19.4786 C.ar    1  UNL1        0.0083
     15 C          -2.6479  -18.1610   20.7604 C.ar    1  UNL1        0.1027
     16 C          -1.6564  -17.0427   20.8873 C.3     1  UNL1        0.4212
     17 F          -0.6648  -15.9243   21.0142 F       1  UNL1       -0.1658
     18 F          -2.7811  -16.0649   21.0579 F       1  UNL1       -0.1658
     19 F          -0.5318  -18.0205   20.7167 F       1  UNL1       -0.1658
     20 O          -9.0121  -16.3622   22.4812 O.3     1  UNL1       -0.4383
     21 C          -9.6707  -17.2419   23.2565 C.3     1  UNL1        0.0688
     22 C         -11.0849  -17.2169   22.7571 C.3     1  UNL1        0.0086
     23 C         -12.1223  -18.0899   23.3985 C.3     1  UNL1        0.0007
     24 C         -11.7457  -18.9879   24.5395 C.3     1  UNL1        0.0036
     25 C         -10.3315  -19.0129   25.0389 C.3     1  UNL1        0.0407
     26 C          -9.2940  -18.1399   24.3975 C.3     1  UNL1        0.0122
     27 C         -10.4276  -16.8518   22.5632 C.3     1  UNL1        0.1702
     28 C         -11.4616  -16.3190   21.6161 C.3     1  UNL1        0.0407
     29 C         -12.4990  -17.1919   22.2576 C.3     1  UNL1        0.0036
     30 C         -10.0474  -16.3440   22.1156 C.3     1  UNL1        0.0122
     31 N          -7.7544  -16.9206   21.5318 N.am    1  UNL1       -0.3288
     32 C          -8.6332  -16.3689   22.6151 C.2     1  UNL1        0.2184
     33 O          -8.2115  -14.9417   22.8028 O.2     1  UNL1       -0.2754
     34 H          -7.0735  -16.3476   21.1108 H       1  UNL1        0.1449
     35 H          -7.8586  -17.8556   21.2419 H       1  UNL1        0.1449
@<TRIPOS>BOND
     1    31    32   am
     2    32    33    2
     3    21    32    1
     4    21    22    1
     5    22    23    1
     6    23    24    1
     7    24    25    1
     8    25    26    1
     9    25    27    1
    10    27    20    1
    11    20     1    1
    12     1     2    2
    13     1     3   am
    14     3     4    1
    15     4     5    1
    16     5     6    1
    17     6     8    1
    18     8    10    1
    19    10    11   ar
    20    11    12   ar
    21    12    13   ar
    22    13    14   ar
    23    14    15   ar
    24    15    16    1
    25    16    17    1
    26    16    18    1
    27    16    19    1
    28     6     7    1
    29    27    28    1
    30    28    29    1
    31    28    30    1
    32    26    21    1
    33     7     3    1
    34    30    21    1
    35    29    23    1
    36    15    10   ar
    37    31    34    1
    38    31    35    1
    39     8     9    1
