@<TRIPOS>MOLECULE
*****
 41 44 0 0 0
SMALL
GASTEIGER

@<TRIPOS>ATOM
      1 C          -3.2923  -17.5152   22.7443 C.3     1  UNL1        0.2040
      2 O          -2.1844  -16.5835   22.3512 O.3     1  UNL1       -0.4351
      3 C          -1.5134  -16.7362   21.0183 C.2     1  UNL1        0.4049
      4 O          -0.4056  -15.8045   20.6252 O.2     1  UNL1       -0.2262
      5 N          -1.9504  -17.8206   20.0786 N.am    1  UNL1       -0.2425
      6 C          -1.2794  -17.9733   18.7458 C.3     1  UNL1        0.1183
      7 C          -3.0583  -18.7523   20.4717 C.3     1  UNL1        0.1183
      8 C          -3.7292  -18.5996   21.8045 C.3     1  UNL1        0.1146
      9 C          -4.6648  -18.8542   22.9490 C.3     1  UNL1        0.0252
     10 N          -4.4911  -19.7724   21.2623 N.am    1  UNL1       -0.2867
     11 C          -5.8086  -19.5591   20.5775 C.2     1  UNL1        0.3045
     12 O          -6.3640  -18.1731   20.4349 O.2     1  UNL1       -0.2525
     13 N          -6.5705  -20.7320   20.0353 N.am    1  UNL1       -0.2683
     14 H          -4.1265  -20.6821   21.3559 H       1  UNL1        0.1510
     15 H          -6.2059  -21.6417   20.1289 H       1  UNL1        0.1564
     16 C          -7.8880  -20.5187   19.3505 C.ar    1  UNL1        0.0517
     17 C          -8.2574  -21.3517   18.1590 C.ar    1  UNL1        0.0147
     18 C          -9.5749  -21.1384   17.4743 C.ar    1  UNL1        0.0014
     19 C         -10.5228  -20.0922   17.9809 C.ar    1  UNL1        0.0032
     20 C         -10.1532  -19.2591   19.1724 C.ar    1  UNL1        0.0386
     21 C          -8.8358  -19.4724   19.8572 C.ar    1  UNL1        0.0178
     22 C         -11.1012  -18.2129   19.6791 C.ar    1  UNL1        0.1839
     23 N         -11.4048  -16.9025   19.0151 N.ar    1  UNL1       -0.1081
     24 N         -12.4032  -16.1729   19.8643 N.ar    1  UNL1       -0.0227
     25 N         -12.7167  -17.0325   21.0530 N.ar    1  UNL1       -0.0429
     26 N         -11.9120  -18.2932   20.9385 N.ar    1  UNL1       -0.2113
     27 C         -11.9172  -19.4340   21.9125 C.3     1  UNL1        0.1573
     28 C          -3.9633  -17.3625   24.0771 C.3     1  UNL1        0.1181
     29 N          -4.8493  -16.1810   24.3398 N.3     1  UNL1       -0.2696
     30 C          -6.0883  -15.8555   26.6001 C.3     1  UNL1        0.0188
     31 C          -4.9107  -15.5800   25.7127 C.3     1  UNL1        0.0722
     32 C          -5.6740  -15.6004   23.2295 C.3     1  UNL1        0.0725
     33 C          -7.1257  -15.2962   23.4536 C.3     1  UNL1        0.0220
     34 C          -8.1784  -16.1214   22.7748 C.3     1  UNL1        0.0278
     35 C          -8.6745  -17.3819   23.4190 C.ar    1  UNL1       -0.0220
     36 C          -8.3626  -18.7128   22.8014 C.ar    1  UNL1       -0.0020
     37 C          -8.8586  -19.9732   23.4457 C.ar    1  UNL1        0.0293
     38 C          -9.6665  -19.9028   24.7076 C.ar    1  UNL1        0.1401
     39 F         -10.1626  -21.1634   25.3519 F       1  UNL1       -0.2042
     40 C          -9.9784  -18.5720   25.3252 C.ar    1  UNL1        0.0293
     41 C          -9.4824  -17.3115   24.6809 C.ar    1  UNL1       -0.0020
@<TRIPOS>BOND
     1    30    31    1
     2    31    29    1
     3    29    32    1
     4    32    33    1
     5    33    34    1
     6    34    35    1
     7    35    36   ar
     8    36    37   ar
     9    37    38   ar
    10    38    39    1
    11    38    40   ar
    12    40    41   ar
    13    29    28    1
    14    28     1    1
    15     1     2    1
    16     2     3    1
    17     3     4    2
    18     3     5   am
    19     5     6    1
    20     5     7    1
    21     7     8    1
    22     8     9    1
    23     8    10    1
    24    10    11   am
    25    11    12    2
    26    11    13   am
    27    13    16    1
    28    16    17   ar
    29    17    18   ar
    30    18    19   ar
    31    19    20   ar
    32    20    22    1
    33    22    23   ar
    34    23    24   ar
    35    24    25   ar
    36    25    26   ar
    37    26    27    1
    38    20    21   ar
    39    41    35   ar
    40     8     1    1
    41    21    16   ar
    42    26    22   ar
    43    10    14    1
    44    13    15    1
@<TRIPOS>MOLECULE
*****
 41 44 0 0 0
SMALL
GASTEIGER

@<TRIPOS>ATOM
      1 C          -3.1985  -17.6382   22.7419 C.3     1  UNL1        0.2040
      2 O          -2.0496  -16.7757   22.3105 O.3     1  UNL1       -0.4351
      3 C          -1.5303  -16.8655   20.9060 C.2     1  UNL1        0.4049
      4 O          -0.3814  -16.0031   20.4745 O.2     1  UNL1       -0.2262
      5 N          -2.1600  -17.8178   19.9331 N.am    1  UNL1       -0.2425
      6 C          -1.6408  -17.9076   18.5287 C.3     1  UNL1        0.1183
      7 C          -3.3089  -18.6803   20.3645 C.3     1  UNL1        0.1183
      8 C          -3.8281  -18.5905   21.7689 C.3     1  UNL1        0.1146
      9 C          -4.6673  -18.8645   22.9817 C.3     1  UNL1        0.0252
     10 N          -4.7493  -19.6379   21.2172 N.am    1  UNL1       -0.2867
     11 C          -6.1481  -19.2715   20.8180 C.2     1  UNL1        0.3045
     12 O          -6.6256  -17.8578   20.9705 O.2     1  UNL1       -0.2525
     13 N          -7.0692  -20.3189   20.2664 N.am    1  UNL1       -0.2683
     14 H          -4.4358  -20.5658   21.1171 H       1  UNL1        0.1510
     15 H          -6.7558  -21.2468   20.1663 H       1  UNL1        0.1564
     16 C          -8.4680  -19.9525   19.8671 C.ar    1  UNL1        0.0517
     17 C          -9.0238  -20.4300   18.5582 C.ar    1  UNL1        0.0147
     18 C         -10.4225  -20.0636   18.1591 C.ar    1  UNL1        0.0014
     19 C         -11.2654  -19.2198   19.0688 C.ar    1  UNL1        0.0032
     20 C         -10.7095  -18.7424   20.3777 C.ar    1  UNL1        0.0386
     21 C          -9.3108  -19.1087   20.7769 C.ar    1  UNL1        0.0178
     22 C         -11.5524  -17.8986   21.2873 C.ar    1  UNL1        0.1839
     23 N         -12.5700  -18.4037   22.2668 N.ar    1  UNL1       -0.1081
     24 N         -13.1723  -17.2189   22.9621 N.ar    1  UNL1       -0.0227
     25 N         -12.5269  -15.9814   22.4123 N.ar    1  UNL1       -0.0429
     26 N         -11.5258  -16.4015   21.3772 N.ar    1  UNL1       -0.2113
     27 C         -10.6515  -15.4853   20.5733 C.3     1  UNL1        0.1573
     28 C          -3.7177  -17.5484   24.1463 C.3     1  UNL1        0.1181
     29 N          -4.5446  -16.3694   24.5662 N.3     1  UNL1       -0.2696
     30 C          -6.2043  -15.1262   23.0010 C.3     1  UNL1        0.0188
     31 C          -4.8315  -15.2683   23.5889 C.3     1  UNL1        0.0722
     32 C          -5.0844  -16.2916   25.9635 C.3     1  UNL1        0.0725
     33 C          -5.6994  -15.0166   26.4600 C.3     1  UNL1        0.0220
     34 C          -7.1571  -14.9741   26.8111 C.3     1  UNL1        0.0278
     35 C          -8.1017  -15.9753   26.2148 C.ar    1  UNL1       -0.0220
     36 C          -8.5897  -15.8003   24.8073 C.ar    1  UNL1       -0.0020
     37 C          -9.5343  -16.8014   24.2111 C.ar    1  UNL1        0.0293
     38 C          -9.9909  -17.9775   25.0225 C.ar    1  UNL1        0.1401
     39 F         -10.9355  -18.9787   24.4263 F       1  UNL1       -0.2042
     40 C          -9.5029  -18.1525   26.4300 C.ar    1  UNL1        0.0293
     41 C          -8.5583  -17.1514   27.0262 C.ar    1  UNL1       -0.0020
@<TRIPOS>BOND
     1    30    31    1
     2    31    29    1
     3    29    32    1
     4    32    33    1
     5    33    34    1
     6    34    35    1
     7    35    36   ar
     8    36    37   ar
     9    37    38   ar
    10    38    39    1
    11    38    40   ar
    12    40    41   ar
    13    29    28    1
    14    28     1    1
    15     1     2    1
    16     2     3    1
    17     3     4    2
    18     3     5   am
    19     5     6    1
    20     5     7    1
    21     7     8    1
    22     8     9    1
    23     8    10    1
    24    10    11   am
    25    11    12    2
    26    11    13   am
    27    13    16    1
    28    16    17   ar
    29    17    18   ar
    30    18    19   ar
    31    19    20   ar
    32    20    22    1
    33    22    23   ar
    34    23    24   ar
    35    24    25   ar
    36    25    26   ar
    37    26    27    1
    38    20    21   ar
    39    41    35   ar
    40     8     1    1
    41    21    16   ar
    42    26    22   ar
    43    10    14    1
    44    13    15    1
@<TRIPOS>MOLECULE
*****
 41 44 0 0 0
SMALL
GASTEIGER

@<TRIPOS>ATOM
      1 C           6.4831   -2.3748   30.6129 C.3     1  UNL1        0.2040
      2 O           6.4405   -3.5858   31.4971 O.3     1  UNL1       -0.4351
      3 C           6.8374   -4.9261   30.9528 C.2     1  UNL1        0.4049
      4 O           6.7948   -6.1371   31.8369 O.2     1  UNL1       -0.2262
      5 N           7.2769   -5.0553   29.5245 N.am    1  UNL1       -0.2425
      6 C           7.6738   -6.3955   28.9803 C.3     1  UNL1        0.1183
      7 C           7.3195   -3.8443   28.6404 C.3     1  UNL1        0.1183
      8 C           6.9226   -2.5041   29.1846 C.3     1  UNL1        0.1146
      9 C           6.6448   -1.0310   29.2393 C.3     1  UNL1        0.0252
     10 N           7.2657   -2.1217   27.7753 N.am    1  UNL1       -0.2867
     11 C           6.1898   -2.0610   26.7317 C.2     1  UNL1        0.3045
     12 O           4.7712   -2.3827   27.0974 O.2     1  UNL1       -0.2525
     13 N           6.5328   -1.6786   25.3224 N.am    1  UNL1       -0.2683
     14 H           8.1968   -1.9105   27.5353 H       1  UNL1        0.1510
     15 H           7.4640   -1.4674   25.0824 H       1  UNL1        0.1564
     16 C           5.4570   -1.6179   24.2788 C.ar    1  UNL1        0.0517
     17 C           4.3528   -0.6095   24.3976 C.ar    1  UNL1        0.0147
     18 C           3.2771   -0.5489   23.3540 C.ar    1  UNL1        0.0014
     19 C           3.3055   -1.4965   22.1917 C.ar    1  UNL1        0.0032
     20 C           4.4097   -2.5049   22.0729 C.ar    1  UNL1        0.0386
     21 C           5.4855   -2.5656   23.1164 C.ar    1  UNL1        0.0178
     22 C           4.4380   -3.4525   20.9105 C.ar    1  UNL1        0.1839
     23 N           4.0401   -4.8985   20.9419 N.ar    1  UNL1       -0.1081
     24 N           4.2254   -5.4602   19.5634 N.ar    1  UNL1       -0.0227
     25 N           4.7378   -4.3615   18.6801 N.ar    1  UNL1       -0.0429
     26 N           4.8693   -3.1207   19.5126 N.ar    1  UNL1       -0.2113
     27 C           5.3479   -1.7829   19.0317 C.3     1  UNL1        0.1573
     28 C           6.0862   -1.0345   31.1571 C.3     1  UNL1        0.1181
     29 N           5.0743   -0.9429   32.2606 N.3     1  UNL1       -0.2696
     30 C           4.6231   -1.0263   34.8179 C.3     1  UNL1        0.0188
     31 C           5.5211   -0.6783   33.6678 C.3     1  UNL1        0.0722
     32 C           3.6156   -1.1157   31.9569 C.3     1  UNL1        0.0725
     33 C           2.9513   -0.2340   30.9413 C.3     1  UNL1        0.0220
     34 C           2.8596   -0.6751   29.5106 C.3     1  UNL1        0.0278
     35 C           1.8515   -0.0462   28.5950 C.ar    1  UNL1       -0.0220
     36 C           2.3030    0.6350   27.3372 C.ar    1  UNL1       -0.0020
     37 C           1.2949    1.2639   26.4216 C.ar    1  UNL1        0.0293
     38 C          -0.1646    1.2116   26.7639 C.ar    1  UNL1        0.1401
     39 F          -1.1727    1.8405   25.8482 F       1  UNL1       -0.2042
     40 C          -0.6160    0.5303   28.0216 C.ar    1  UNL1        0.0293
     41 C           0.3920   -0.0986   28.9372 C.ar    1  UNL1       -0.0020
@<TRIPOS>BOND
     1    30    31    1
     2    31    29    1
     3    29    32    1
     4    32    33    1
     5    33    34    1
     6    34    35    1
     7    35    36   ar
     8    36    37   ar
     9    37    38   ar
    10    38    39    1
    11    38    40   ar
    12    40    41   ar
    13    29    28    1
    14    28     1    1
    15     1     2    1
    16     2     3    1
    17     3     4    2
    18     3     5   am
    19     5     6    1
    20     5     7    1
    21     7     8    1
    22     8     9    1
    23     8    10    1
    24    10    11   am
    25    11    12    2
    26    11    13   am
    27    13    16    1
    28    16    17   ar
    29    17    18   ar
    30    18    19   ar
    31    19    20   ar
    32    20    22    1
    33    22    23   ar
    34    23    24   ar
    35    24    25   ar
    36    25    26   ar
    37    26    27    1
    38    20    21   ar
    39    41    35   ar
    40     8     1    1
    41    21    16   ar
    42    26    22   ar
    43    10    14    1
    44    13    15    1
@<TRIPOS>MOLECULE
*****
 41 44 0 0 0
SMALL
GASTEIGER

@<TRIPOS>ATOM
      1 C           6.8918   -3.1125   21.8940 C.3     1  UNL1        0.2040
      2 O           7.2758   -4.5373   22.1635 O.3     1  UNL1       -0.4351
      3 C           7.3605   -5.0370   23.5754 C.2     1  UNL1        0.4049
      4 O           7.7445   -6.4617   23.8449 O.2     1  UNL1       -0.2262
      5 N           7.0613   -4.1120   24.7176 N.am    1  UNL1       -0.2425
      6 C           7.1460   -4.6117   26.1293 C.3     1  UNL1        0.1183
      7 C           6.6773   -2.6872   24.4481 C.3     1  UNL1        0.1183
      8 C           6.5926   -2.1875   23.0364 C.3     1  UNL1        0.1146
      9 C           6.3780   -1.2538   21.8821 C.3     1  UNL1        0.0252
     10 N           6.2188   -0.9382   23.7777 N.am    1  UNL1       -0.2867
     11 C           4.7871   -0.6854   24.1473 C.2     1  UNL1        0.3045
     12 O           3.7294   -1.6818   23.7755 O.2     1  UNL1       -0.2525
     13 N           4.4134    0.5639   24.8886 N.am    1  UNL1       -0.2683
     14 H           6.9131   -0.2842   24.0217 H       1  UNL1        0.1510
     15 H           5.1076    1.2179   25.1326 H       1  UNL1        0.1564
     16 C           2.9817    0.8167   25.2582 C.ar    1  UNL1        0.0517
     17 C           1.9292    0.8671   24.1905 C.ar    1  UNL1        0.0147
     18 C           0.4976    1.1199   24.5602 C.ar    1  UNL1        0.0014
     19 C           0.1185    1.3224   25.9972 C.ar    1  UNL1        0.0032
     20 C           1.1711    1.2720   27.0648 C.ar    1  UNL1        0.0386
     21 C           2.6027    1.0192   26.6953 C.ar    1  UNL1        0.0178
     22 C           0.7919    1.4744   28.5019 C.ar    1  UNL1        0.1839
     23 N           1.3717    2.4998   29.4306 N.ar    1  UNL1       -0.1081
     24 N           0.7046    2.3462   30.7653 N.ar    1  UNL1       -0.0227
     25 N          -0.2875    1.2258   30.6615 N.ar    1  UNL1       -0.0429
     26 N          -0.2335    0.6870   29.2626 N.ar    1  UNL1       -0.2113
     27 C          -1.0598   -0.4411   28.7198 C.3     1  UNL1        0.1573
     28 C           6.8071   -2.6128   20.4823 C.3     1  UNL1        0.1181
     29 N           5.7580   -3.1540   19.5568 N.3     1  UNL1       -0.2696
     30 C           3.6750   -4.6539   19.1552 C.3     1  UNL1        0.0188
     31 C           4.7930   -4.1942   20.0433 C.3     1  UNL1        0.0722
     32 C           5.6739   -2.6550   18.1448 C.3     1  UNL1        0.0725
     33 C           5.3116   -1.2245   17.8751 C.3     1  UNL1        0.0220
     34 C           3.9234   -0.8740   17.4278 C.3     1  UNL1        0.0278
     35 C           2.9148   -0.3860   18.4252 C.ar    1  UNL1       -0.0220
     36 C           2.7325   -1.1130   19.7245 C.ar    1  UNL1       -0.0020
     37 C           1.7239   -0.6250   20.7218 C.ar    1  UNL1        0.0293
     38 C           0.8977    0.5900   20.4198 C.ar    1  UNL1        0.1401
     39 F          -0.1109    1.0780   21.4171 F       1  UNL1       -0.2042
     40 C           1.0800    1.3169   19.1204 C.ar    1  UNL1        0.0293
     41 C           2.0886    0.8289   18.1232 C.ar    1  UNL1       -0.0020
@<TRIPOS>BOND
     1    30    31    1
     2    31    29    1
     3    29    32    1
     4    32    33    1
     5    33    34    1
     6    34    35    1
     7    35    36   ar
     8    36    37   ar
     9    37    38   ar
    10    38    39    1
    11    38    40   ar
    12    40    41   ar
    13    29    28    1
    14    28     1    1
    15     1     2    1
    16     2     3    1
    17     3     4    2
    18     3     5   am
    19     5     6    1
    20     5     7    1
    21     7     8    1
    22     8     9    1
    23     8    10    1
    24    10    11   am
    25    11    12    2
    26    11    13   am
    27    13    16    1
    28    16    17   ar
    29    17    18   ar
    30    18    19   ar
    31    19    20   ar
    32    20    22    1
    33    22    23   ar
    34    23    24   ar
    35    24    25   ar
    36    25    26   ar
    37    26    27    1
    38    20    21   ar
    39    41    35   ar
    40     8     1    1
    41    21    16   ar
    42    26    22   ar
    43    10    14    1
    44    13    15    1
@<TRIPOS>MOLECULE
*****
 41 44 0 0 0
SMALL
GASTEIGER

@<TRIPOS>ATOM
      1 C           7.0847   -3.9395   24.2309 C.3     1  UNL1        0.2040
      2 O           7.3158   -5.2674   23.5725 O.3     1  UNL1       -0.4351
      3 C           8.1191   -6.3224   24.2738 C.2     1  UNL1        0.4049
      4 O           8.3502   -7.6503   23.6155 O.2     1  UNL1       -0.2262
      5 N           8.6912   -6.0496   25.6332 N.am    1  UNL1       -0.2425
      6 C           9.4944   -7.1047   26.3344 C.3     1  UNL1        0.1183
      7 C           8.4601   -4.7218   26.2916 C.3     1  UNL1        0.1183
      8 C           7.6569   -3.6667   25.5904 C.3     1  UNL1        0.1146
      9 C           6.9694   -2.3592   25.3300 C.3     1  UNL1        0.0252
     10 N           7.9902   -2.9398   26.8594 N.am    1  UNL1       -0.2867
     11 C           7.0102   -2.9254   27.9951 C.2     1  UNL1        0.3045
     12 O           5.6971   -3.6379   27.8616 O.2     1  UNL1       -0.2525
     13 N           7.3435   -2.1985   29.2641 N.am    1  UNL1       -0.2683
     14 H           8.8521   -2.4721   26.9470 H       1  UNL1        0.1510
     15 H           8.2054   -1.7308   29.3517 H       1  UNL1        0.1564
     16 C           6.3635   -2.1841   30.3997 C.ar    1  UNL1        0.0517
     17 C           6.5261   -3.1417   31.5428 C.ar    1  UNL1        0.0147
     18 C           5.5461   -3.1273   32.6783 C.ar    1  UNL1        0.0014
     19 C           4.4037   -2.1553   32.6709 C.ar    1  UNL1        0.0032
     20 C           4.2412   -1.1977   31.5277 C.ar    1  UNL1        0.0386
     21 C           5.2211   -1.2121   30.3921 C.ar    1  UNL1        0.0178
     22 C           3.0988   -0.2258   31.5202 C.ar    1  UNL1        0.1839
     23 N           1.9901   -0.1760   30.5110 N.ar    1  UNL1       -0.1081
     24 N           1.0704    0.9476   30.8877 N.ar    1  UNL1       -0.0227
     25 N           1.6107    1.5922   32.1297 N.ar    1  UNL1       -0.0429
     26 N           2.8643    0.8671   32.5206 N.ar    1  UNL1       -0.2113
     27 C           3.7312    1.1799   33.7042 C.3     1  UNL1        0.1573
     28 C           6.2815   -2.8845   23.5297 C.3     1  UNL1        0.1181
     29 N           5.9939   -3.0118   22.0631 N.3     1  UNL1       -0.2696
     30 C           6.6218   -0.9147   20.6637 C.3     1  UNL1        0.0188
     31 C           6.8847   -2.3366   21.0627 C.3     1  UNL1        0.0722
     32 C           4.8156   -3.8143   21.5967 C.3     1  UNL1        0.0725
     33 C           4.6623   -4.1456   20.1418 C.3     1  UNL1        0.0220
     34 C           3.5059   -3.5907   19.3640 C.3     1  UNL1        0.0278
     35 C           3.4572   -2.1284   19.0331 C.ar    1  UNL1       -0.0220
     36 C           4.2626   -1.5916   17.8872 C.ar    1  UNL1       -0.0020
     37 C           4.2138   -0.1294   17.5563 C.ar    1  UNL1        0.0293
     38 C           3.3598    0.7960   18.3714 C.ar    1  UNL1        0.1401
     39 F           3.3111    2.2583   18.0404 F       1  UNL1       -0.2042
     40 C           2.5545    0.2591   19.5173 C.ar    1  UNL1        0.0293
     41 C           2.6032   -1.2031   19.8482 C.ar    1  UNL1       -0.0020
@<TRIPOS>BOND
     1    30    31    1
     2    31    29    1
     3    29    32    1
     4    32    33    1
     5    33    34    1
     6    34    35    1
     7    35    36   ar
     8    36    37   ar
     9    37    38   ar
    10    38    39    1
    11    38    40   ar
    12    40    41   ar
    13    29    28    1
    14    28     1    1
    15     1     2    1
    16     2     3    1
    17     3     4    2
    18     3     5   am
    19     5     6    1
    20     5     7    1
    21     7     8    1
    22     8     9    1
    23     8    10    1
    24    10    11   am
    25    11    12    2
    26    11    13   am
    27    13    16    1
    28    16    17   ar
    29    17    18   ar
    30    18    19   ar
    31    19    20   ar
    32    20    22    1
    33    22    23   ar
    34    23    24   ar
    35    24    25   ar
    36    25    26   ar
    37    26    27    1
    38    20    21   ar
    39    41    35   ar
    40     8     1    1
    41    21    16   ar
    42    26    22   ar
    43    10    14    1
    44    13    15    1
@<TRIPOS>MOLECULE
*****
 41 44 0 0 0
SMALL
GASTEIGER

@<TRIPOS>ATOM
      1 C           4.8011   -0.4104   28.0525 C.3     1  UNL1        0.2040
      2 O           4.1881   -0.8627   29.3447 O.3     1  UNL1       -0.4351
      3 C           2.7845   -0.4616   29.6899 C.2     1  UNL1        0.4049
      4 O           2.1716   -0.9138   30.9821 O.2     1  UNL1       -0.2262
      5 N           1.9939    0.3917   28.7429 N.am    1  UNL1       -0.2425
      6 C           0.5904    0.7927   29.0881 C.3     1  UNL1        0.1183
      7 C           2.6069    0.8439   27.4507 C.3     1  UNL1        0.1183
      8 C           4.0104    0.4429   27.1055 C.3     1  UNL1        0.1146
      9 C           5.2943    0.3238   26.3389 C.3     1  UNL1        0.0252
     10 N           3.6657    1.2548   25.8922 N.am    1  UNL1       -0.2867
     11 C           3.2409    0.5697   24.6272 C.2     1  UNL1        0.3045
     12 O           3.1608   -0.9273   24.5755 O.2     1  UNL1       -0.2525
     13 N           2.8962    1.3816   23.4140 N.am    1  UNL1       -0.2683
     14 H           3.7183    2.2373   25.9262 H       1  UNL1        0.1510
     15 H           2.9488    2.3641   23.4479 H       1  UNL1        0.1564
     16 C           2.4714    0.6964   22.1489 C.ar    1  UNL1        0.0517
     17 C           1.0161    0.6083   21.7960 C.ar    1  UNL1        0.0147
     18 C           0.5914   -0.0768   20.5310 C.ar    1  UNL1        0.0014
     19 C           1.6217   -0.6738   19.6190 C.ar    1  UNL1        0.0032
     20 C           3.0770   -0.5857   19.9720 C.ar    1  UNL1        0.0386
     21 C           3.5018    0.0994   21.2370 C.ar    1  UNL1        0.0178
     22 C           4.1074   -1.1827   19.0600 C.ar    1  UNL1        0.1839
     23 N           5.1077   -0.4213   18.2416 N.ar    1  UNL1       -0.1081
     24 N           5.9369   -1.4139   17.4819 N.ar    1  UNL1       -0.0227
     25 N           5.4491   -2.7889   17.8308 N.ar    1  UNL1       -0.0429
     26 N           4.3184   -2.6460   18.8060 N.ar    1  UNL1       -0.2113
     27 C           3.5361   -3.7691   19.4197 C.3     1  UNL1        0.1573
     28 C           6.2046   -0.8115   27.7073 C.3     1  UNL1        0.1181
     29 N           7.1637   -1.1961   28.7946 N.3     1  UNL1       -0.2696
     30 C           9.2005   -0.3753   30.1831 C.3     1  UNL1        0.0188
     31 C           7.8338   -0.1334   29.6140 C.3     1  UNL1        0.0722
     32 C           7.4527   -2.6434   29.0624 C.3     1  UNL1        0.0725
     33 C           6.5718   -3.4246   29.9919 C.3     1  UNL1        0.0220
     34 C           6.9315   -3.5436   31.4432 C.3     1  UNL1        0.0278
     35 C           6.3226   -2.6087   32.4459 C.ar    1  UNL1       -0.0220
     36 C           7.1415   -1.4937   33.0255 C.ar    1  UNL1       -0.0020
     37 C           6.5326   -0.5589   34.0282 C.ar    1  UNL1        0.0293
     38 C           5.1048   -0.7392   34.4513 C.ar    1  UNL1        0.1401
     39 F           4.4959    0.1957   35.4540 F       1  UNL1       -0.2042
     40 C           4.2859   -1.8542   33.8716 C.ar    1  UNL1        0.0293
     41 C           4.8948   -2.7890   32.8690 C.ar    1  UNL1       -0.0020
@<TRIPOS>BOND
     1    30    31    1
     2    31    29    1
     3    29    32    1
     4    32    33    1
     5    33    34    1
     6    34    35    1
     7    35    36   ar
     8    36    37   ar
     9    37    38   ar
    10    38    39    1
    11    38    40   ar
    12    40    41   ar
    13    29    28    1
    14    28     1    1
    15     1     2    1
    16     2     3    1
    17     3     4    2
    18     3     5   am
    19     5     6    1
    20     5     7    1
    21     7     8    1
    22     8     9    1
    23     8    10    1
    24    10    11   am
    25    11    12    2
    26    11    13   am
    27    13    16    1
    28    16    17   ar
    29    17    18   ar
    30    18    19   ar
    31    19    20   ar
    32    20    22    1
    33    22    23   ar
    34    23    24   ar
    35    24    25   ar
    36    25    26   ar
    37    26    27    1
    38    20    21   ar
    39    41    35   ar
    40     8     1    1
    41    21    16   ar
    42    26    22   ar
    43    10    14    1
    44    13    15    1
@<TRIPOS>MOLECULE
*****
 41 44 0 0 0
SMALL
GASTEIGER

@<TRIPOS>ATOM
      1 C           4.5505    0.3155   28.1657 C.3     1  UNL1        0.2040
      2 O           3.8351    0.0887   29.4644 O.3     1  UNL1       -0.4351
      3 C           2.4485    0.6263   29.6606 C.2     1  UNL1        0.4049
      4 O           1.7330    0.3995   30.9594 O.2     1  UNL1       -0.2262
      5 N           1.7774    1.3906   28.5582 N.am    1  UNL1       -0.2425
      6 C           0.3909    1.9281   28.7545 C.3     1  UNL1        0.1183
      7 C           2.4929    1.6174   27.2594 C.3     1  UNL1        0.1183
      8 C           3.8794    1.0799   27.0632 C.3     1  UNL1        0.1146
      9 C           5.1911    0.7704   26.4046 C.3     1  UNL1        0.0252
     10 N           3.6639    1.7367   25.7320 N.am    1  UNL1       -0.2867
     11 C           3.1384    0.9364   24.5771 C.2     1  UNL1        0.3045
     12 O           2.8286   -0.5206   24.7536 O.2     1  UNL1       -0.2525
     13 N           2.9230    1.5932   23.2459 N.am    1  UNL1       -0.2683
     14 H           3.8673    2.6929   25.6162 H       1  UNL1        0.1510
     15 H           3.1264    2.5495   23.1301 H       1  UNL1        0.1564
     16 C           2.3975    0.7929   22.0911 C.ar    1  UNL1        0.0517
     17 C           0.9454    0.8716   21.7230 C.ar    1  UNL1        0.0147
     18 C           0.4201    0.0713   20.5683 C.ar    1  UNL1        0.0014
     19 C           1.3466   -0.8076   19.7815 C.ar    1  UNL1        0.0032
     20 C           2.7987   -0.8862   20.1496 C.ar    1  UNL1        0.0386
     21 C           3.3242   -0.0859   21.3044 C.ar    1  UNL1        0.0178
     22 C           3.7253   -1.7650   19.3628 C.ar    1  UNL1        0.1839
     23 N           3.9674   -3.2264   19.5995 N.ar    1  UNL1       -0.1081
     24 N           4.9642   -3.7015   18.5842 N.ar    1  UNL1       -0.0227
     25 N           5.3381   -2.5338   17.7201 N.ar    1  UNL1       -0.0429
     26 N           4.5724   -1.3370   18.2013 N.ar    1  UNL1       -0.2113
     27 C           4.6417    0.0451   17.6225 C.3     1  UNL1        0.1573
     28 C           5.9371   -0.2220   27.9694 C.3     1  UNL1        0.1181
     29 N           6.3492   -1.4976   28.6424 N.3     1  UNL1       -0.2696
     30 C           6.6284   -1.7086   31.2169 C.3     1  UNL1        0.0188
     31 C           7.2208   -1.4542   29.8624 C.3     1  UNL1        0.0722
     32 C           5.8898   -2.8166   28.0955 C.3     1  UNL1        0.0725
     33 C           6.6927   -4.0568   28.3550 C.3     1  UNL1        0.0220
     34 C           6.2431   -5.3727   27.7926 C.3     1  UNL1        0.0278
     35 C           6.9053   -5.9303   26.5675 C.ar    1  UNL1       -0.0220
     36 C           7.0399   -5.0838   25.3366 C.ar    1  UNL1       -0.0020
     37 C           7.7021   -5.6414   24.1117 C.ar    1  UNL1        0.0293
     38 C           8.2297   -7.0455   24.1177 C.ar    1  UNL1        0.1401
     39 F           8.8919   -7.6032   22.8927 F       1  UNL1       -0.2042
     40 C           8.0950   -7.8921   25.3486 C.ar    1  UNL1        0.0293
     41 C           7.4329   -7.3344   26.5735 C.ar    1  UNL1       -0.0020
@<TRIPOS>BOND
     1    30    31    1
     2    31    29    1
     3    29    32    1
     4    32    33    1
     5    33    34    1
     6    34    35    1
     7    35    36   ar
     8    36    37   ar
     9    37    38   ar
    10    38    39    1
    11    38    40   ar
    12    40    41   ar
    13    29    28    1
    14    28     1    1
    15     1     2    1
    16     2     3    1
    17     3     4    2
    18     3     5   am
    19     5     6    1
    20     5     7    1
    21     7     8    1
    22     8     9    1
    23     8    10    1
    24    10    11   am
    25    11    12    2
    26    11    13   am
    27    13    16    1
    28    16    17   ar
    29    17    18   ar
    30    18    19   ar
    31    19    20   ar
    32    20    22    1
    33    22    23   ar
    34    23    24   ar
    35    24    25   ar
    36    25    26   ar
    37    26    27    1
    38    20    21   ar
    39    41    35   ar
    40     8     1    1
    41    21    16   ar
    42    26    22   ar
    43    10    14    1
    44    13    15    1
@<TRIPOS>MOLECULE
*****
 41 44 0 0 0
SMALL
GASTEIGER

@<TRIPOS>ATOM
      1 C           6.4143   -2.2769   27.4004 C.3     1  UNL1        0.2040
      2 O           6.2795   -3.2361   28.5458 O.3     1  UNL1       -0.4351
      3 C           6.6535   -4.6774   28.3650 C.2     1  UNL1        0.4049
      4 O           6.5188   -5.6366   29.5104 O.2     1  UNL1       -0.2262
      5 N           7.1623   -5.1596   27.0389 N.am    1  UNL1       -0.2425
      6 C           7.5363   -6.6009   26.8582 C.3     1  UNL1        0.1183
      7 C           7.2971   -4.2005   25.8935 C.3     1  UNL1        0.1183
      8 C           6.9231   -2.7592   26.0742 C.3     1  UNL1        0.1146
      9 C           6.6987   -1.3106   25.7560 C.3     1  UNL1        0.0252
     10 N           7.3539   -2.7383   24.6376 N.am    1  UNL1       -0.2867
     11 C           6.3328   -2.8692   23.5464 C.2     1  UNL1        0.3045
     12 O           4.8812   -3.0210   23.8920 O.2     1  UNL1       -0.2525
     13 N           6.7637   -2.8482   22.1098 N.am    1  UNL1       -0.2683
     14 H           8.3067   -2.6386   24.4108 H       1  UNL1        0.1510
     15 H           7.7165   -2.7486   21.8830 H       1  UNL1        0.1564
     16 C           5.7426   -2.9792   21.0187 C.ar    1  UNL1        0.0517
     17 C           5.7677   -4.1702   20.1071 C.ar    1  UNL1        0.0147
     18 C           4.7467   -4.3010   19.0160 C.ar    1  UNL1        0.0014
     19 C           3.7007   -3.2410   18.8365 C.ar    1  UNL1        0.0032
     20 C           3.6757   -2.0500   19.7482 C.ar    1  UNL1        0.0386
     21 C           4.6967   -1.9191   20.8393 C.ar    1  UNL1        0.0178
     22 C           2.6297   -0.9900   19.5687 C.ar    1  UNL1        0.1839
     23 N           1.3031   -0.9333   20.2666 N.ar    1  UNL1       -0.1081
     24 N           0.5801    0.2911   19.7890 N.ar    1  UNL1       -0.0227
     25 N           1.4598    0.9912   18.7959 N.ar    1  UNL1       -0.0429
     26 N           2.7266    0.1994   18.6598 N.ar    1  UNL1       -0.2113
     27 C           3.8865    0.5376   17.7708 C.3     1  UNL1        0.1573
     28 C           6.0403   -0.8356   27.5811 C.3     1  UNL1        0.1181
     29 N           4.6645   -0.4715   28.0552 N.3     1  UNL1       -0.2696
     30 C           2.8604    0.2032   26.3115 C.3     1  UNL1        0.0188
     31 C           3.4671   -0.8224   27.2228 C.3     1  UNL1        0.0722
     32 C           4.4863    0.2435   29.3616 C.3     1  UNL1        0.0725
     33 C           3.5799   -0.3276   30.4116 C.3     1  UNL1        0.0220
     34 C           2.3123    0.3862   30.7771 C.3     1  UNL1        0.0278
     35 C           1.3783    0.8548   29.7009 C.ar    1  UNL1       -0.0220
     36 C           0.3669   -0.0896   29.1220 C.ar    1  UNL1       -0.0020
     37 C          -0.5670    0.3790   28.0459 C.ar    1  UNL1        0.0293
     38 C          -0.4894    1.7920   27.5485 C.ar    1  UNL1        0.1401
     39 F          -1.4234    2.2607   26.4723 F       1  UNL1       -0.2042
     40 C           0.5220    2.7364   28.1274 C.ar    1  UNL1        0.0293
     41 C           1.4558    2.2678   29.2036 C.ar    1  UNL1       -0.0020
@<TRIPOS>BOND
     1    30    31    1
     2    31    29    1
     3    29    32    1
     4    32    33    1
     5    33    34    1
     6    34    35    1
     7    35    36   ar
     8    36    37   ar
     9    37    38   ar
    10    38    39    1
    11    38    40   ar
    12    40    41   ar
    13    29    28    1
    14    28     1    1
    15     1     2    1
    16     2     3    1
    17     3     4    2
    18     3     5   am
    19     5     6    1
    20     5     7    1
    21     7     8    1
    22     8     9    1
    23     8    10    1
    24    10    11   am
    25    11    12    2
    26    11    13   am
    27    13    16    1
    28    16    17   ar
    29    17    18   ar
    30    18    19   ar
    31    19    20   ar
    32    20    22    1
    33    22    23   ar
    34    23    24   ar
    35    24    25   ar
    36    25    26   ar
    37    26    27    1
    38    20    21   ar
    39    41    35   ar
    40     8     1    1
    41    21    16   ar
    42    26    22   ar
    43    10    14    1
    44    13    15    1
@<TRIPOS>MOLECULE
*****
 41 44 0 0 0
SMALL
GASTEIGER

@<TRIPOS>ATOM
      1 C           6.6795   -2.9860   22.7265 C.3     1  UNL1        0.2040
      2 O           7.0847   -4.4219   22.5720 O.3     1  UNL1       -0.4351
      3 C           7.5027   -5.2167   23.7735 C.2     1  UNL1        0.4049
      4 O           7.9078   -6.6527   23.6190 O.2     1  UNL1       -0.2262
      5 N           7.5155   -4.5756   25.1295 N.am    1  UNL1       -0.2425
      6 C           7.9335   -5.3704   26.3309 C.3     1  UNL1        0.1183
      7 C           7.1104   -3.1396   25.2840 C.3     1  UNL1        0.1183
      8 C           6.6924   -2.3448   24.0825 C.3     1  UNL1        0.1146
      9 C           6.2222   -1.1877   23.2518 C.3     1  UNL1        0.0252
     10 N           6.5420   -1.3018   25.1500 N.am    1  UNL1       -0.2867
     11 C           5.2325   -1.1433   25.8644 C.2     1  UNL1        0.3045
     12 O           4.0737   -2.0278   25.5113 O.2     1  UNL1       -0.2525
     13 N           5.0820   -0.1002   26.9318 N.am    1  UNL1       -0.2683
     14 H           7.3026   -0.7212   25.3817 H       1  UNL1        0.1510
     15 H           5.8426    0.4803   27.1635 H       1  UNL1        0.1564
     16 C           3.7725    0.0583   27.6462 C.ar    1  UNL1        0.0517
     17 C           3.5362   -0.6530   28.9456 C.ar    1  UNL1        0.0147
     18 C           2.2268   -0.4944   29.6599 C.ar    1  UNL1        0.0014
     19 C           1.1537    0.3752   29.0750 C.ar    1  UNL1        0.0032
     20 C           1.3902    1.0864   27.7756 C.ar    1  UNL1        0.0386
     21 C           2.6996    0.9280   27.0612 C.ar    1  UNL1        0.0178
     22 C           0.3171    1.9561   27.1906 C.ar    1  UNL1        0.1839
     23 N          -0.5679    1.6051   26.0315 N.ar    1  UNL1       -0.1081
     24 N          -1.4914    2.7615   25.7865 N.ar    1  UNL1       -0.0227
     25 N          -1.1771    3.8273   26.7943 N.ar    1  UNL1       -0.0429
     26 N          -0.0594    3.3295   27.6620 N.ar    1  UNL1       -0.2113
     27 C           0.5712    4.0743   28.8012 C.3     1  UNL1        0.1573
     28 C           6.2615   -2.1912   21.5250 C.3     1  UNL1        0.1181
     29 N           5.9406   -2.8907   20.2375 N.3     1  UNL1       -0.2696
     30 C           6.6339   -1.5568   18.1185 C.3     1  UNL1        0.0188
     31 C           6.8360   -2.7178   19.0466 C.3     1  UNL1        0.0722
     32 C           4.7243   -3.7632   20.1410 C.3     1  UNL1        0.0725
     33 C           3.4396   -3.2024   19.6069 C.3     1  UNL1        0.0220
     34 C           3.3233   -1.7345   19.3213 C.3     1  UNL1        0.0278
     35 C           2.4978   -0.8592   20.2171 C.ar    1  UNL1       -0.0220
     36 C           1.1649   -0.3535   19.7506 C.ar    1  UNL1       -0.0020
     37 C           0.3395    0.5218   20.6464 C.ar    1  UNL1        0.0293
     38 C           0.8469    0.8914   22.0087 C.ar    1  UNL1        0.1401
     39 F           0.0214    1.7667   22.9045 F       1  UNL1       -0.2042
     40 C           2.1798    0.3857   22.4752 C.ar    1  UNL1        0.0293
     41 C           3.0052   -0.4896   21.5794 C.ar    1  UNL1       -0.0020
@<TRIPOS>BOND
     1    30    31    1
     2    31    29    1
     3    29    32    1
     4    32    33    1
     5    33    34    1
     6    34    35    1
     7    35    36   ar
     8    36    37   ar
     9    37    38   ar
    10    38    39    1
    11    38    40   ar
    12    40    41   ar
    13    29    28    1
    14    28     1    1
    15     1     2    1
    16     2     3    1
    17     3     4    2
    18     3     5   am
    19     5     6    1
    20     5     7    1
    21     7     8    1
    22     8     9    1
    23     8    10    1
    24    10    11   am
    25    11    12    2
    26    11    13   am
    27    13    16    1
    28    16    17   ar
    29    17    18   ar
    30    18    19   ar
    31    19    20   ar
    32    20    22    1
    33    22    23   ar
    34    23    24   ar
    35    24    25   ar
    36    25    26   ar
    37    26    27    1
    38    20    21   ar
    39    41    35   ar
    40     8     1    1
    41    21    16   ar
    42    26    22   ar
    43    10    14    1
    44    13    15    1
