@<TRIPOS>MOLECULE
*****
 28 32 0 0 0
SMALL
GASTEIGER

@<TRIPOS>ATOM
      1 O           9.1781   -5.3176   20.8606 O.2     1  UNL1       -0.2638
      2 C           8.0252   -4.6047   21.5029 C.2     1  UNL1        0.3160
      3 N           7.0842   -3.7922   20.6636 N.am    1  UNL1       -0.1720
      4 C           5.9312   -3.0793   21.3059 C.ar    1  UNL1        0.0775
      5 C           4.9903   -2.2669   20.4666 C.ar    1  UNL1        0.0167
      6 C           3.8374   -1.5539   21.1090 C.ar    1  UNL1        0.0013
      7 C           3.6255   -1.6535   22.5906 C.ar    1  UNL1        0.0002
      8 C           4.5665   -2.4659   23.4299 C.ar    1  UNL1        0.0051
      9 C           5.7194   -3.1788   22.7875 C.ar    1  UNL1        0.0623
     10 C           6.6604   -3.9913   23.6268 C.2     1  UNL1        0.2419
     11 N           6.7045   -4.2717   25.0997 N.2     1  UNL1       -0.0302
     12 C           7.8847   -5.1580   25.3677 C.2     1  UNL1        0.3787
     13 N           8.5699   -5.4252   24.0604 N.2     1  UNL1       -0.0255
     14 C           7.8133   -4.7042   22.9845 C.2     1  UNL1        0.2907
     15 C           8.3056   -5.6845   26.7077 C.ar    1  UNL1        0.1263
     16 C           9.0277   -4.7905   27.6717 C.ar    1  UNL1        0.1484
     17 F           9.3288   -3.3699   27.2957 F       1  UNL1       -0.2039
     18 C           9.4486   -5.3170   29.0117 C.ar    1  UNL1        0.0300
     19 C           9.1475   -6.7376   29.3876 C.ar    1  UNL1        0.0032
     20 C           8.4254   -7.6316   28.4236 C.ar    1  UNL1        0.0118
     21 C           8.0045   -7.1050   27.0837 C.ar    1  UNL1        0.0673
     22 CL          7.2824   -7.9991   26.1196 Cl      1  UNL1       -0.0819
     23 C           2.8963   -0.7415   20.2697 C.ar    1  UNL1        0.0000
     24 C           3.3632   -0.1609   18.9678 C.ar    1  UNL1        0.0000
     25 C           2.4223    0.6516   18.1285 C.ar    1  UNL1        0.0000
     26 C           1.0143    0.8835   18.5911 C.ar    1  UNL1        0.0000
     27 C           0.5474    0.3029   19.8930 C.ar    1  UNL1        0.0000
     28 C           1.4885   -0.5096   20.7323 C.ar    1  UNL1        0.0000
@<TRIPOS>BOND
     1     1     2    2
     2     2     3    1
     3     3     4    2
     4     4     5   ar
     5     5     6   ar
     6     6    23    1
     7    23    24   ar
     8    24    25   ar
     9    25    26   ar
    10    26    27   ar
    11    27    28   ar
    12     6     7   ar
    13     7     8   ar
    14     8     9   ar
    15     9    10    2
    16    10    11    1
    17    11    12    2
    18    12    15    1
    19    15    16   ar
    20    16    17    1
    21    16    18   ar
    22    18    19   ar
    23    19    20   ar
    24    20    21   ar
    25    21    22    1
    26    12    13    1
    27    13    14    2
    28    14     2    1
    29     9     4   ar
    30    14    10    1
    31    28    23   ar
    32    21    15   ar
@<TRIPOS>MOLECULE
*****
 28 32 0 0 0
SMALL
GASTEIGER

@<TRIPOS>ATOM
      1 O           0.0441    5.9670   17.9434 O.2     1  UNL1       -0.2638
      2 C           0.1166    4.5861   18.5249 C.2     1  UNL1        0.3160
      3 N           1.2859    3.7006   18.2110 N.am    1  UNL1       -0.1720
      4 C           1.3584    2.3198   18.7925 C.ar    1  UNL1        0.0775
      5 C           2.5277    1.4342   18.4787 C.ar    1  UNL1        0.0167
      6 C           2.6001    0.0535   19.0602 C.ar    1  UNL1        0.0013
      7 C           1.5032   -0.4418   19.9555 C.ar    1  UNL1        0.0002
      8 C           0.3339    0.4437   20.2694 C.ar    1  UNL1        0.0051
      9 C           0.2615    1.8245   19.6879 C.ar    1  UNL1        0.0623
     10 C          -0.9078    2.7101   20.0017 C.2     1  UNL1        0.2419
     11 N          -2.1297    2.4977   20.8453 N.2     1  UNL1       -0.0302
     12 C          -2.9574    3.7472   20.7852 C.2     1  UNL1        0.3787
     13 N          -2.2470    4.7319   19.9045 N.2     1  UNL1       -0.0255
     14 C          -0.9803    4.0909   19.4202 C.2     1  UNL1        0.2907
     15 C          -4.2658    3.9725   21.4834 C.ar    1  UNL1        0.1263
     16 C          -5.4998    4.2731   20.6853 C.ar    1  UNL1        0.1484
     17 F          -5.4254    4.3484   19.1890 F       1  UNL1       -0.2039
     18 C          -6.8081    4.4984   21.3835 C.ar    1  UNL1        0.0300
     19 C          -6.8825    4.4231   22.8797 C.ar    1  UNL1        0.0032
     20 C          -5.6486    4.1225   23.6778 C.ar    1  UNL1        0.0118
     21 C          -4.3402    3.8972   22.9797 C.ar    1  UNL1        0.0673
     22 CL         -3.1062    3.5966   23.7778 Cl      1  UNL1       -0.0819
     23 C           3.7695   -0.8321   18.7463 C.ar    1  UNL1        0.0000
     24 C           3.6942   -2.3029   19.0314 C.ar    1  UNL1        0.0000
     25 C           4.8634   -3.1885   18.7176 C.ar    1  UNL1        0.0000
     26 C           6.1081   -2.6033   18.1187 C.ar    1  UNL1        0.0000
     27 C           6.1833   -1.1326   17.8337 C.ar    1  UNL1        0.0000
     28 C           5.0140   -0.2470   18.1475 C.ar    1  UNL1        0.0000
@<TRIPOS>BOND
     1     1     2    2
     2     2     3    1
     3     3     4    2
     4     4     5   ar
     5     5     6   ar
     6     6    23    1
     7    23    24   ar
     8    24    25   ar
     9    25    26   ar
    10    26    27   ar
    11    27    28   ar
    12     6     7   ar
    13     7     8   ar
    14     8     9   ar
    15     9    10    2
    16    10    11    1
    17    11    12    2
    18    12    15    1
    19    15    16   ar
    20    16    17    1
    21    16    18   ar
    22    18    19   ar
    23    19    20   ar
    24    20    21   ar
    25    21    22    1
    26    12    13    1
    27    13    14    2
    28    14     2    1
    29     9     4   ar
    30    14    10    1
    31    28    23   ar
    32    21    15   ar
@<TRIPOS>MOLECULE
*****
 28 32 0 0 0
SMALL
GASTEIGER

@<TRIPOS>ATOM
      1 O           0.2822    5.6914   17.8453 O.2     1  UNL1       -0.2638
      2 C           0.2721    4.3449   18.5063 C.2     1  UNL1        0.3160
      3 N           1.3705    3.3630   18.2248 N.am    1  UNL1       -0.1720
      4 C           1.3604    2.0165   18.8858 C.ar    1  UNL1        0.0775
      5 C           2.4588    1.0346   18.6044 C.ar    1  UNL1        0.0167
      6 C           2.4486   -0.3119   19.2654 C.ar    1  UNL1        0.0013
      7 C           1.3400   -0.6764   20.2077 C.ar    1  UNL1        0.0002
      8 C           0.2416    0.3055   20.4892 C.ar    1  UNL1        0.0051
      9 C           0.2518    1.6519   19.8282 C.ar    1  UNL1        0.0623
     10 C          -0.8467    2.6339   20.1096 C.2     1  UNL1        0.2419
     11 N          -2.0617    2.5568   20.9858 N.2     1  UNL1       -0.0302
     12 C          -2.8025    3.8556   20.8664 C.2     1  UNL1        0.3787
     13 N          -2.0453    4.7354   19.9164 N.2     1  UNL1       -0.0255
     14 C          -0.8365    3.9804   19.4486 C.2     1  UNL1        0.2907
     15 C          -4.0768    4.2121   21.5730 C.ar    1  UNL1        0.1263
     16 C          -4.0375    4.6943   22.9928 C.ar    1  UNL1        0.1484
     17 F          -2.7239    4.8201   23.7061 F       1  UNL1       -0.2039
     18 C          -5.3117    5.0507   23.6993 C.ar    1  UNL1        0.0300
     19 C          -6.6253    4.9249   22.9860 C.ar    1  UNL1        0.0032
     20 C          -6.6646    4.4427   21.5662 C.ar    1  UNL1        0.0118
     21 C          -5.3903    4.0863   20.8597 C.ar    1  UNL1        0.0673
     22 CL         -5.4296    3.6040   19.4398 Cl      1  UNL1       -0.0819
     23 C           3.5471   -1.2939   18.9839 C.ar    1  UNL1        0.0000
     24 C           3.3896   -2.7307   19.3850 C.ar    1  UNL1        0.0000
     25 C           4.4880   -3.7126   19.1037 C.ar    1  UNL1        0.0000
     26 C           5.7440   -3.2579   18.4212 C.ar    1  UNL1        0.0000
     27 C           5.9015   -1.8211   18.0201 C.ar    1  UNL1        0.0000
     28 C           4.8030   -0.8391   18.3015 C.ar    1  UNL1        0.0000
@<TRIPOS>BOND
     1     1     2    2
     2     2     3    1
     3     3     4    2
     4     4     5   ar
     5     5     6   ar
     6     6    23    1
     7    23    24   ar
     8    24    25   ar
     9    25    26   ar
    10    26    27   ar
    11    27    28   ar
    12     6     7   ar
    13     7     8   ar
    14     8     9   ar
    15     9    10    2
    16    10    11    1
    17    11    12    2
    18    12    15    1
    19    15    16   ar
    20    16    17    1
    21    16    18   ar
    22    18    19   ar
    23    19    20   ar
    24    20    21   ar
    25    21    22    1
    26    12    13    1
    27    13    14    2
    28    14     2    1
    29     9     4   ar
    30    14    10    1
    31    28    23   ar
    32    21    15   ar
@<TRIPOS>MOLECULE
*****
 28 32 0 0 0
SMALL
GASTEIGER

@<TRIPOS>ATOM
      1 O          -5.3158  -14.6782   25.7065 O.2     1  UNL1       -0.2638
      2 C          -6.0977  -15.6301   24.8505 C.2     1  UNL1        0.3160
      3 N          -7.5669  -15.8177   25.0869 N.am    1  UNL1       -0.1720
      4 C          -8.3488  -16.7696   24.2309 C.ar    1  UNL1        0.0775
      5 C          -9.8181  -16.9573   24.4674 C.ar    1  UNL1        0.0167
      6 C         -10.5999  -17.9092   23.6114 C.ar    1  UNL1        0.0013
      7 C          -9.9124  -18.6734   22.5190 C.ar    1  UNL1        0.0002
      8 C          -8.4431  -18.4857   22.2826 C.ar    1  UNL1        0.0051
      9 C          -7.6613  -17.5338   23.1385 C.ar    1  UNL1        0.0623
     10 C          -6.1919  -17.3461   22.9021 C.2     1  UNL1        0.2419
     11 N          -5.2493  -17.9568   21.9079 N.2     1  UNL1       -0.0302
     12 C          -3.8849  -17.3824   22.1495 C.2     1  UNL1        0.3787
     13 N          -3.9843  -16.4167   23.2929 N.2     1  UNL1       -0.0255
     14 C          -5.4102  -16.3943   23.7581 C.2     1  UNL1        0.2907
     15 C          -2.6396  -17.7153   21.3822 C.ar    1  UNL1        0.1263
     16 C          -1.5918  -16.6650   21.1609 C.ar    1  UNL1        0.1484
     17 F          -1.7892  -15.2819   21.7067 F       1  UNL1       -0.2039
     18 C          -0.3466  -16.9979   20.3936 C.ar    1  UNL1        0.0300
     19 C          -0.1493  -18.3811   19.8478 C.ar    1  UNL1        0.0032
     20 C          -1.1971  -19.4313   20.0691 C.ar    1  UNL1        0.0118
     21 C          -2.4422  -19.0984   20.8364 C.ar    1  UNL1        0.0673
     22 CL         -3.4901  -20.1487   21.0578 Cl      1  UNL1       -0.0819
     23 C         -12.0692  -18.0969   23.8478 C.ar    1  UNL1        0.0000
     24 C         -12.5672  -18.4748   25.2114 C.ar    1  UNL1        0.0000
     25 C         -14.0365  -18.6625   25.4478 C.ar    1  UNL1        0.0000
     26 C         -15.0079  -18.4723   24.3207 C.ar    1  UNL1        0.0000
     27 C         -14.5099  -18.0944   22.9572 C.ar    1  UNL1        0.0000
     28 C         -13.0405  -17.9067   22.7208 C.ar    1  UNL1        0.0000
@<TRIPOS>BOND
     1     1     2    2
     2     2     3    1
     3     3     4    2
     4     4     5   ar
     5     5     6   ar
     6     6    23    1
     7    23    24   ar
     8    24    25   ar
     9    25    26   ar
    10    26    27   ar
    11    27    28   ar
    12     6     7   ar
    13     7     8   ar
    14     8     9   ar
    15     9    10    2
    16    10    11    1
    17    11    12    2
    18    12    15    1
    19    15    16   ar
    20    16    17    1
    21    16    18   ar
    22    18    19   ar
    23    19    20   ar
    24    20    21   ar
    25    21    22    1
    26    12    13    1
    27    13    14    2
    28    14     2    1
    29     9     4   ar
    30    14    10    1
    31    28    23   ar
    32    21    15   ar
@<TRIPOS>MOLECULE
*****
 28 32 0 0 0
SMALL
GASTEIGER

@<TRIPOS>ATOM
      1 O           6.9512   -2.2241   17.2331 O.2     1  UNL1       -0.2638
      2 C           6.4391   -2.2025   18.6429 C.2     1  UNL1        0.3160
      3 N           6.9958   -3.1566   19.6577 N.am    1  UNL1       -0.1720
      4 C           6.4837   -3.1351   21.0675 C.ar    1  UNL1        0.0775
      5 C           7.0403   -4.0892   22.0822 C.ar    1  UNL1        0.0167
      6 C           6.5282   -4.0676   23.4919 C.ar    1  UNL1        0.0013
      7 C           5.4595   -3.0920   23.8868 C.ar    1  UNL1        0.0002
      8 C           4.9028   -2.1379   22.8720 C.ar    1  UNL1        0.0051
      9 C           5.4149   -2.1595   21.4624 C.ar    1  UNL1        0.0623
     10 C           4.8583   -1.2054   20.4475 C.2     1  UNL1        0.2419
     11 N           3.8076   -0.1391   20.5428 N.2     1  UNL1       -0.0302
     12 C           3.6703    0.4983   19.1919 C.2     1  UNL1        0.3787
     13 N           4.6361   -0.1740   18.2618 N.2     1  UNL1       -0.0255
     14 C           5.3704   -1.2269   19.0378 C.2     1  UNL1        0.2907
     15 C           2.7318    1.6125   18.8340 C.ar    1  UNL1        0.1263
     16 C           1.2546    1.3588   18.7743 C.ar    1  UNL1        0.1484
     17 F           0.7159   -0.0090   19.0724 F       1  UNL1       -0.2039
     18 C           0.3163    2.4730   18.4164 C.ar    1  UNL1        0.0300
     19 C           0.8551    3.8407   18.1182 C.ar    1  UNL1        0.0032
     20 C           2.3322    4.0944   18.1780 C.ar    1  UNL1        0.0118
     21 C           3.2706    2.9803   18.5359 C.ar    1  UNL1        0.0673
     22 CL          4.7478    3.2339   18.5956 Cl      1  UNL1       -0.0819
     23 C           7.0849   -5.0217   24.5068 C.ar    1  UNL1        0.0000
     24 C           6.8164   -4.8048   25.9665 C.ar    1  UNL1        0.0000
     25 C           7.3730   -5.7588   26.9814 C.ar    1  UNL1        0.0000
     26 C           8.1981   -6.9299   26.5365 C.ar    1  UNL1        0.0000
     27 C           8.4666   -7.1469   25.0768 C.ar    1  UNL1        0.0000
     28 C           7.9099   -6.1927   24.0619 C.ar    1  UNL1        0.0000
@<TRIPOS>BOND
     1     1     2    2
     2     2     3    1
     3     3     4    2
     4     4     5   ar
     5     5     6   ar
     6     6    23    1
     7    23    24   ar
     8    24    25   ar
     9    25    26   ar
    10    26    27   ar
    11    27    28   ar
    12     6     7   ar
    13     7     8   ar
    14     8     9   ar
    15     9    10    2
    16    10    11    1
    17    11    12    2
    18    12    15    1
    19    15    16   ar
    20    16    17    1
    21    16    18   ar
    22    18    19   ar
    23    19    20   ar
    24    20    21   ar
    25    21    22    1
    26    12    13    1
    27    13    14    2
    28    14     2    1
    29     9     4   ar
    30    14    10    1
    31    28    23   ar
    32    21    15   ar
@<TRIPOS>MOLECULE
*****
 28 32 0 0 0
SMALL
GASTEIGER

@<TRIPOS>ATOM
      1 O           8.2620   -6.6740   29.9907 O.2     1  UNL1       -0.2638
      2 C           7.6419   -5.5617   29.1980 C.2     1  UNL1        0.3160
      3 N           7.5228   -5.6789   27.7074 N.am    1  UNL1       -0.1720
      4 C           6.9027   -4.5666   26.9147 C.ar    1  UNL1        0.0775
      5 C           6.7836   -4.6838   25.4241 C.ar    1  UNL1        0.0167
      6 C           6.1635   -3.5716   24.6315 C.ar    1  UNL1        0.0013
      7 C           5.6624   -2.3421   25.3295 C.ar    1  UNL1        0.0002
      8 C           5.7815   -2.2248   26.8201 C.ar    1  UNL1        0.0051
      9 C           6.4016   -3.3371   27.6127 C.ar    1  UNL1        0.0623
     10 C           6.5207   -3.2199   29.1035 C.2     1  UNL1        0.2419
     11 N           6.1193   -2.1367   30.0602 N.2     1  UNL1       -0.0302
     12 C           6.4913   -2.5796   31.4443 C.2     1  UNL1        0.3787
     13 N           7.1226   -3.9364   31.3428 N.2     1  UNL1       -0.0255
     14 C           7.1408   -4.3322   29.8960 C.2     1  UNL1        0.2907
     15 C           6.2707   -1.8020   32.7080 C.ar    1  UNL1        0.1263
     16 C           4.9587   -1.8982   33.4284 C.ar    1  UNL1        0.1484
     17 F           3.8671   -2.7721   32.8853 F       1  UNL1       -0.2039
     18 C           4.7381   -1.1207   34.6920 C.ar    1  UNL1        0.0300
     19 C           5.8297   -0.2469   35.2352 C.ar    1  UNL1        0.0032
     20 C           7.1418   -0.1506   34.5147 C.ar    1  UNL1        0.0118
     21 C           7.3623   -0.9282   33.2511 C.ar    1  UNL1        0.0673
     22 CL          8.6744   -0.8320   32.5305 Cl      1  UNL1       -0.0819
     23 C           6.0444   -3.6887   23.1407 C.ar    1  UNL1        0.0000
     24 C           4.7005   -3.5741   22.4844 C.ar    1  UNL1        0.0000
     25 C           4.5814   -3.6912   20.9938 C.ar    1  UNL1        0.0000
     26 C           5.8063   -3.9231   20.1594 C.ar    1  UNL1        0.0000
     27 C           7.1502   -4.0378   20.8157 C.ar    1  UNL1        0.0000
     28 C           7.2692   -3.9206   22.3064 C.ar    1  UNL1        0.0000
@<TRIPOS>BOND
     1     1     2    2
     2     2     3    1
     3     3     4    2
     4     4     5   ar
     5     5     6   ar
     6     6    23    1
     7    23    24   ar
     8    24    25   ar
     9    25    26   ar
    10    26    27   ar
    11    27    28   ar
    12     6     7   ar
    13     7     8   ar
    14     8     9   ar
    15     9    10    2
    16    10    11    1
    17    11    12    2
    18    12    15    1
    19    15    16   ar
    20    16    17    1
    21    16    18   ar
    22    18    19   ar
    23    19    20   ar
    24    20    21   ar
    25    21    22    1
    26    12    13    1
    27    13    14    2
    28    14     2    1
    29     9     4   ar
    30    14    10    1
    31    28    23   ar
    32    21    15   ar
@<TRIPOS>MOLECULE
*****
 28 32 0 0 0
SMALL
GASTEIGER

@<TRIPOS>ATOM
      1 O           0.8671    3.4077   25.1149 O.2     1  UNL1       -0.2638
      2 C           0.7843    2.5963   23.8560 C.2     1  UNL1        0.3160
      3 N           1.8178    1.5474   23.5704 N.am    1  UNL1       -0.1720
      4 C           1.7349    0.7360   22.3114 C.ar    1  UNL1        0.0775
      5 C           2.7684   -0.3130   22.0258 C.ar    1  UNL1        0.0167
      6 C           2.6856   -1.1243   20.7669 C.ar    1  UNL1        0.0013
      7 C           1.5692   -0.8867   19.7936 C.ar    1  UNL1        0.0002
      8 C           0.5357    0.1623   20.0792 C.ar    1  UNL1        0.0051
      9 C           0.6186    0.9736   21.3381 C.ar    1  UNL1        0.0623
     10 C          -0.4149    2.0226   21.6238 C.2     1  UNL1        0.2419
     11 N          -1.6210    2.4782   20.8571 N.2     1  UNL1       -0.0302
     12 C          -2.2835    3.5712   21.6422 C.2     1  UNL1        0.3787
     13 N          -1.4870    3.7910   22.8941 N.2     1  UNL1       -0.0255
     14 C          -0.3321    2.8339   22.8827 C.2     1  UNL1        0.2907
     15 C          -3.5248    4.3140   21.2451 C.ar    1  UNL1        0.1263
     16 C          -4.8663    3.8416   21.7216 C.ar    1  UNL1        0.1484
     17 F          -4.9667    2.6263   22.5952 F       1  UNL1       -0.2039
     18 C          -6.1075    4.5844   21.3245 C.ar    1  UNL1        0.0300
     19 C          -6.0071    5.7996   20.4510 C.ar    1  UNL1        0.0032
     20 C          -4.6656    6.2721   19.9745 C.ar    1  UNL1        0.0118
     21 C          -3.4244    5.5293   20.3716 C.ar    1  UNL1        0.0673
     22 CL         -2.0828    6.0018   19.8951 Cl      1  UNL1       -0.0819
     23 C           3.7191   -2.1733   20.4813 C.ar    1  UNL1        0.0000
     24 C           4.9338   -2.2866   21.3540 C.ar    1  UNL1        0.0000
     25 C           5.9673   -3.3355   21.0684 C.ar    1  UNL1        0.0000
     26 C           5.7861   -4.2712   19.9100 C.ar    1  UNL1        0.0000
     27 C           4.5714   -4.1579   19.0373 C.ar    1  UNL1        0.0000
     28 C           3.5379   -3.1089   19.3230 C.ar    1  UNL1        0.0000
@<TRIPOS>BOND
     1     1     2    2
     2     2     3    1
     3     3     4    2
     4     4     5   ar
     5     5     6   ar
     6     6    23    1
     7    23    24   ar
     8    24    25   ar
     9    25    26   ar
    10    26    27   ar
    11    27    28   ar
    12     6     7   ar
    13     7     8   ar
    14     8     9   ar
    15     9    10    2
    16    10    11    1
    17    11    12    2
    18    12    15    1
    19    15    16   ar
    20    16    17    1
    21    16    18   ar
    22    18    19   ar
    23    19    20   ar
    24    20    21   ar
    25    21    22    1
    26    12    13    1
    27    13    14    2
    28    14     2    1
    29     9     4   ar
    30    14    10    1
    31    28    23   ar
    32    21    15   ar
@<TRIPOS>MOLECULE
*****
 28 32 0 0 0
SMALL
GASTEIGER

@<TRIPOS>ATOM
      1 O           1.0605    3.4413   25.0261 O.2     1  UNL1       -0.2638
      2 C           0.9358    2.6157   23.7799 C.2     1  UNL1        0.3160
      3 N           1.9606    1.5650   23.4706 N.am    1  UNL1       -0.1720
      4 C           1.8360    0.7395   22.2244 C.ar    1  UNL1        0.0775
      5 C           2.8608   -0.3112   21.9151 C.ar    1  UNL1        0.0167
      6 C           2.7361   -1.1366   20.6689 C.ar    1  UNL1        0.0013
      7 C           1.5865   -0.9114   19.7320 C.ar    1  UNL1        0.0002
      8 C           0.5617    0.1393   20.0413 C.ar    1  UNL1        0.0051
      9 C           0.6864    0.9648   21.2875 C.ar    1  UNL1        0.0623
     10 C          -0.3384    2.0155   21.5968 C.2     1  UNL1        0.2419
     11 N          -1.5709    2.4610   20.8670 N.2     1  UNL1       -0.0302
     12 C          -2.2079    3.5619   21.6623 C.2     1  UNL1        0.3787
     13 N          -1.3691    3.7967   22.8835 N.2     1  UNL1       -0.0255
     14 C          -0.2137    2.8410   22.8430 C.2     1  UNL1        0.2907
     15 C          -3.4633    4.2986   21.2999 C.ar    1  UNL1        0.1263
     16 C          -3.4198    5.3987   20.2812 C.ar    1  UNL1        0.1484
     17 F          -2.1210    5.7622   19.6249 F       1  UNL1       -0.2039
     18 C          -4.6752    6.1353   19.9189 C.ar    1  UNL1        0.0300
     19 C          -5.9741    5.7718   20.5752 C.ar    1  UNL1        0.0032
     20 C          -6.0176    4.6717   21.5939 C.ar    1  UNL1        0.0118
     21 C          -4.7622    3.9351   21.9562 C.ar    1  UNL1        0.0673
     22 CL         -4.8057    2.8349   22.9749 Cl      1  UNL1       -0.0819
     23 C           3.7610   -2.1874   20.3596 C.ar    1  UNL1        0.0000
     24 C           3.4720   -3.2357   19.3263 C.ar    1  UNL1        0.0000
     25 C           4.4968   -4.2864   19.0170 C.ar    1  UNL1        0.0000
     26 C           5.8106   -4.2889   19.7409 C.ar    1  UNL1        0.0000
     27 C           6.0995   -3.2407   20.7742 C.ar    1  UNL1        0.0000
     28 C           5.0747   -2.1899   21.0835 C.ar    1  UNL1        0.0000
@<TRIPOS>BOND
     1     1     2    2
     2     2     3    1
     3     3     4    2
     4     4     5   ar
     5     5     6   ar
     6     6    23    1
     7    23    24   ar
     8    24    25   ar
     9    25    26   ar
    10    26    27   ar
    11    27    28   ar
    12     6     7   ar
    13     7     8   ar
    14     8     9   ar
    15     9    10    2
    16    10    11    1
    17    11    12    2
    18    12    15    1
    19    15    16   ar
    20    16    17    1
    21    16    18   ar
    22    18    19   ar
    23    19    20   ar
    24    20    21   ar
    25    21    22    1
    26    12    13    1
    27    13    14    2
    28    14     2    1
    29     9     4   ar
    30    14    10    1
    31    28    23   ar
    32    21    15   ar
@<TRIPOS>MOLECULE
*****
 28 32 0 0 0
SMALL
GASTEIGER

@<TRIPOS>ATOM
      1 O           2.8105    0.8704   28.9133 O.2     1  UNL1       -0.2638
      2 C           3.2543    0.1394   27.6808 C.2     1  UNL1        0.3160
      3 N           2.6789    0.5041   26.3445 N.am    1  UNL1       -0.1720
      4 C           3.1227   -0.2269   25.1120 C.ar    1  UNL1        0.0775
      5 C           2.5473    0.1378   23.7757 C.ar    1  UNL1        0.0167
      6 C           2.9911   -0.5931   22.5434 C.ar    1  UNL1        0.0013
      7 C           4.0103   -1.6887   22.6474 C.ar    1  UNL1        0.0002
      8 C           4.5858   -2.0534   23.9837 C.ar    1  UNL1        0.0051
      9 C           4.1419   -1.3224   25.2160 C.ar    1  UNL1        0.0623
     10 C           4.7174   -1.6871   26.5525 C.2     1  UNL1        0.2419
     11 N           5.7301   -2.7148   26.9625 N.2     1  UNL1       -0.0302
     12 C           5.9123   -2.6190   28.4483 C.2     1  UNL1        0.3787
     13 N           5.0121   -1.5321   28.9565 N.2     1  UNL1       -0.0255
     14 C           4.2736   -0.9562   27.7848 C.2     1  UNL1        0.2907
     15 C           6.8330   -3.4621   29.2799 C.ar    1  UNL1        0.1263
     16 C           6.7292   -4.9577   29.2314 C.ar    1  UNL1        0.1484
     17 F           5.7046   -5.6102   28.3514 F       1  UNL1       -0.2039
     18 C           7.6499   -5.8007   30.0630 C.ar    1  UNL1        0.0300
     19 C           8.6744   -5.1481   30.9431 C.ar    1  UNL1        0.0032
     20 C           8.7783   -3.6525   30.9915 C.ar    1  UNL1        0.0118
     21 C           7.8576   -2.8095   30.1599 C.ar    1  UNL1        0.0673
     22 CL          7.9614   -1.3138   30.2084 Cl      1  UNL1       -0.0819
     23 C           2.4156   -0.2285   21.2069 C.ar    1  UNL1        0.0000
     24 C           1.0139    0.2969   21.1121 C.ar    1  UNL1        0.0000
     25 C           0.4384    0.6616   19.7757 C.ar    1  UNL1        0.0000
     26 C           1.2647    0.5008   18.5341 C.ar    1  UNL1        0.0000
     27 C           2.6665   -0.0246   18.6290 C.ar    1  UNL1        0.0000
     28 C           3.2419   -0.3893   19.9654 C.ar    1  UNL1        0.0000
@<TRIPOS>BOND
     1     1     2    2
     2     2     3    1
     3     3     4    2
     4     4     5   ar
     5     5     6   ar
     6     6    23    1
     7    23    24   ar
     8    24    25   ar
     9    25    26   ar
    10    26    27   ar
    11    27    28   ar
    12     6     7   ar
    13     7     8   ar
    14     8     9   ar
    15     9    10    2
    16    10    11    1
    17    11    12    2
    18    12    15    1
    19    15    16   ar
    20    16    17    1
    21    16    18   ar
    22    18    19   ar
    23    19    20   ar
    24    20    21   ar
    25    21    22    1
    26    12    13    1
    27    13    14    2
    28    14     2    1
    29     9     4   ar
    30    14    10    1
    31    28    23   ar
    32    21    15   ar
