@<TRIPOS>MOLECULE
*****
 32 35 0 0 0
SMALL
GASTEIGER

@<TRIPOS>ATOM
      1 C          -9.9714  -20.0395   19.1794 C.3     1  UNL1        0.0203
      2 C          -9.4657  -19.4000   20.4385 C.3     1  UNL1        0.0888
      3 N          -8.0063  -19.4653   20.7790 N.3     1  UNL1       -0.2713
      4 C          -7.5587  -20.1584   22.0316 C.3     1  UNL1        0.0749
      5 C          -6.0993  -20.2237   22.3721 C.3     1  UNL1        0.0485
      6 C          -5.0875  -19.5960   21.4599 C.3     1  UNL1        0.1096
      7 O          -4.1789  -20.1362   22.5242 O.3     1  UNL1       -0.3826
      8 C          -5.5351  -18.9029   20.2071 C.3     1  UNL1        0.0485
      9 C          -6.9945  -18.8375   19.8667 C.3     1  UNL1        0.0749
     10 H          -4.7071  -20.5833   23.2039 H       1  UNL1        0.2107
     11 C          -3.7601  -19.1558   20.9173 C.ar    1  UNL1        0.0019
     12 C          -3.5704  -18.9958   19.4380 C.ar    1  UNL1        0.0003
     13 C          -2.2431  -18.5556   18.8953 C.ar    1  UNL1        0.0294
     14 C          -1.1054  -18.2756   19.8321 C.ar    1  UNL1        0.1401
     15 F           0.2219  -17.8354   19.2894 F       1  UNL1       -0.2042
     16 C          -1.2951  -18.4356   21.3113 C.ar    1  UNL1        0.0294
     17 C          -2.6225  -18.8758   21.8540 C.ar    1  UNL1        0.0003
     18 C         -10.4193  -18.6952   21.3571 C.3     1  UNL1        0.1472
     19 O         -11.8600  -18.5422   20.9687 O.3     1  UNL1       -0.3787
     20 H         -12.3348  -18.0668   21.6684 H       1  UNL1        0.2108
     21 C          -9.9322  -18.1434   22.6641 C.ar    1  UNL1        0.0054
     22 C         -10.4128  -18.7375   23.9548 C.ar    1  UNL1       -0.0007
     23 C          -9.9257  -18.1857   25.2618 C.ar    1  UNL1        0.0143
     24 C          -8.9579  -17.0397   25.2780 C.ar    1  UNL1        0.0526
     25 C          -8.4773  -16.4456   23.9873 C.ar    1  UNL1        0.0346
     26 C          -8.9644  -16.9974   22.6804 C.ar    1  UNL1       -0.0014
     27 C          -7.5096  -15.2996   24.0036 C.3     1  UNL1        0.2379
     28 O          -7.0225  -14.7478   25.3105 O.3     1  UNL1       -0.4294
     29 C          -7.5031  -15.3419   26.6013 C.2     1  UNL1        0.4057
     30 O          -7.0160  -14.7901   27.9082 O.2     1  UNL1       -0.2261
     31 N          -8.4708  -16.4879   26.5851 N.am    1  UNL1       -0.2501
     32 H          -8.7863  -16.8778   27.4322 H       1  UNL1        0.1582
@<TRIPOS>BOND
     1     1     2    1
     2     2    18    1
     3    18    19    1
     4    18    21    1
     5    21    22   ar
     6    22    23   ar
     7    23    24   ar
     8    24    25   ar
     9    25    26   ar
    10    25    27    1
    11    27    28    1
    12    28    29    1
    13    29    30    2
    14    29    31   am
    15     2     3    1
    16     3     4    1
    17     4     5    1
    18     5     6    1
    19     6     7    1
    20     6    11    1
    21    11    12   ar
    22    12    13   ar
    23    13    14   ar
    24    14    15    1
    25    14    16   ar
    26    16    17   ar
    27     6     8    1
    28     8     9    1
    29    26    21   ar
    30     9     3    1
    31    31    24    1
    32    17    11   ar
    33    19    20    1
    34    31    32    1
    35     7    10    1
@<TRIPOS>MOLECULE
*****
 32 35 0 0 0
SMALL
GASTEIGER

@<TRIPOS>ATOM
      1 C          -8.3418  -19.5573   18.8176 C.3     1  UNL1        0.0203
      2 C          -7.5364  -19.5177   20.0825 C.3     1  UNL1        0.0888
      3 N          -7.9078  -18.5633   21.1785 N.3     1  UNL1       -0.2713
      4 C          -9.2508  -17.8952   21.1681 C.3     1  UNL1        0.0749
      5 C          -9.6222  -16.9408   22.2641 C.3     1  UNL1        0.0485
      6 C          -8.6507  -16.6546   23.3705 C.3     1  UNL1        0.1096
      7 O          -9.7942  -15.7817   23.7956 O.3     1  UNL1       -0.3826
      8 C          -7.3077  -17.3227   23.3810 C.3     1  UNL1        0.0485
      9 C          -6.9363  -18.2771   22.2850 C.3     1  UNL1        0.0749
     10 H         -10.5192  -15.8646   23.1566 H       1  UNL1        0.2107
     11 C          -8.0763  -16.0652   24.6246 C.ar    1  UNL1        0.0019
     12 C          -6.6525  -15.5939   24.6481 C.ar    1  UNL1        0.0003
     13 C          -6.0780  -15.0046   25.9021 C.ar    1  UNL1        0.0294
     14 C          -6.9276  -14.8864   27.1328 C.ar    1  UNL1        0.1401
     15 F          -6.3531  -14.2970   28.3868 F       1  UNL1       -0.2042
     16 C          -8.3514  -15.3577   27.1093 C.ar    1  UNL1        0.0294
     17 C          -8.9258  -15.9471   25.8552 C.ar    1  UNL1        0.0003
     18 C          -6.3597  -20.4324   20.2513 C.3     1  UNL1        0.1472
     19 O          -6.5500  -21.9189   20.1872 O.3     1  UNL1       -0.3787
     20 H          -5.6956  -22.3601   20.3149 H       1  UNL1        0.2108
     21 C          -4.9926  -19.8607   20.4843 C.ar    1  UNL1        0.0054
     22 C          -4.4291  -19.8063   21.8733 C.ar    1  UNL1       -0.0007
     23 C          -3.0621  -19.2346   22.1062 C.ar    1  UNL1        0.0143
     24 C          -2.2585  -18.7172   20.9501 C.ar    1  UNL1        0.0526
     25 C          -2.8220  -18.7716   19.5610 C.ar    1  UNL1        0.0346
     26 C          -4.1891  -19.3433   19.3282 C.ar    1  UNL1       -0.0014
     27 C          -2.0185  -18.2542   18.4049 C.3     1  UNL1        0.2379
     28 O          -0.6514  -17.6825   18.6378 O.3     1  UNL1       -0.4294
     29 C          -0.0879  -17.6281   20.0269 C.2     1  UNL1        0.4057
     30 O           1.2792  -17.0564   20.2598 O.2     1  UNL1       -0.2261
     31 N          -0.8914  -18.1455   21.1830 N.am    1  UNL1       -0.2501
     32 H          -0.5215  -18.1098   22.0947 H       1  UNL1        0.1582
@<TRIPOS>BOND
     1     1     2    1
     2     2    18    1
     3    18    19    1
     4    18    21    1
     5    21    22   ar
     6    22    23   ar
     7    23    24   ar
     8    24    25   ar
     9    25    26   ar
    10    25    27    1
    11    27    28    1
    12    28    29    1
    13    29    30    2
    14    29    31   am
    15     2     3    1
    16     3     4    1
    17     4     5    1
    18     5     6    1
    19     6     7    1
    20     6    11    1
    21    11    12   ar
    22    12    13   ar
    23    13    14   ar
    24    14    15    1
    25    14    16   ar
    26    16    17   ar
    27     6     8    1
    28     8     9    1
    29    26    21   ar
    30     9     3    1
    31    31    24    1
    32    17    11   ar
    33    19    20    1
    34    31    32    1
    35     7    10    1
@<TRIPOS>MOLECULE
*****
 32 35 0 0 0
SMALL
GASTEIGER

@<TRIPOS>ATOM
      1 C         -10.9787  -18.8760   19.3604 C.3     1  UNL1        0.0203
      2 C          -9.7532  -19.2251   20.1518 C.3     1  UNL1        0.0888
      3 N          -9.6671  -18.8555   21.6030 N.3     1  UNL1       -0.2713
      4 C         -10.4521  -19.6276   22.6215 C.3     1  UNL1        0.0749
      5 C         -10.3660  -19.2580   24.0727 C.3     1  UNL1        0.0485
      6 C          -9.4948  -18.1162   24.5054 C.3     1  UNL1        0.1096
      7 O         -10.0435  -18.5434   25.8345 O.3     1  UNL1       -0.3826
      8 C          -8.7097  -17.3440   23.4869 C.3     1  UNL1        0.0485
      9 C          -8.7958  -17.7136   22.0357 C.3     1  UNL1        0.0749
     10 H         -10.6422  -19.2964   25.7103 H       1  UNL1        0.2107
     11 C          -8.8141  -17.1227   25.3997 C.ar    1  UNL1        0.0019
     12 C          -7.9697  -16.0345   24.8060 C.ar    1  UNL1        0.0003
     13 C          -7.2890  -15.0410   25.7002 C.ar    1  UNL1        0.0294
     14 C          -7.4528  -15.1358   27.1883 C.ar    1  UNL1        0.1401
     15 F          -6.7721  -14.1424   28.0825 F       1  UNL1       -0.2042
     16 C          -8.2972  -16.2241   27.7820 C.ar    1  UNL1        0.0294
     17 C          -8.9779  -17.2176   26.8877 C.ar    1  UNL1        0.0003
     18 C          -8.6139  -19.9439   19.4920 C.3     1  UNL1        0.1472
     19 O          -8.8582  -20.7677   18.2626 O.3     1  UNL1       -0.3787
     20 H          -8.0227  -21.1613   17.9658 H       1  UNL1        0.2108
     21 C          -7.2302  -19.8388   20.0617 C.ar    1  UNL1        0.0054
     22 C          -6.9171  -20.4600   21.3906 C.ar    1  UNL1       -0.0007
     23 C          -5.5335  -20.3549   21.9602 C.ar    1  UNL1        0.0143
     24 C          -4.4630  -19.6286   21.2010 C.ar    1  UNL1        0.0526
     25 C          -4.7761  -19.0073   19.8721 C.ar    1  UNL1        0.0346
     26 C          -6.1597  -19.1124   19.3025 C.ar    1  UNL1       -0.0014
     27 C          -3.7056  -18.2810   19.1129 C.3     1  UNL1        0.2379
     28 O          -2.3220  -18.1759   19.6825 O.3     1  UNL1       -0.4294
     29 C          -2.0088  -18.7971   21.0114 C.2     1  UNL1        0.4057
     30 O          -0.6252  -18.6920   21.5811 O.2     1  UNL1       -0.2261
     31 N          -3.0793  -19.5235   21.7707 N.am    1  UNL1       -0.2501
     32 H          -2.8738  -19.9313   22.6429 H       1  UNL1        0.1582
@<TRIPOS>BOND
     1     1     2    1
     2     2    18    1
     3    18    19    1
     4    18    21    1
     5    21    22   ar
     6    22    23   ar
     7    23    24   ar
     8    24    25   ar
     9    25    26   ar
    10    25    27    1
    11    27    28    1
    12    28    29    1
    13    29    30    2
    14    29    31   am
    15     2     3    1
    16     3     4    1
    17     4     5    1
    18     5     6    1
    19     6     7    1
    20     6    11    1
    21    11    12   ar
    22    12    13   ar
    23    13    14   ar
    24    14    15    1
    25    14    16   ar
    26    16    17   ar
    27     6     8    1
    28     8     9    1
    29    26    21   ar
    30     9     3    1
    31    31    24    1
    32    17    11   ar
    33    19    20    1
    34    31    32    1
    35     7    10    1
@<TRIPOS>MOLECULE
*****
 32 35 0 0 0
SMALL
GASTEIGER

@<TRIPOS>ATOM
      1 C           3.9272   -4.9965   19.1604 C.3     1  UNL1        0.0203
      2 C           4.8424   -3.8740   19.5508 C.3     1  UNL1        0.0888
      3 N           5.5931   -3.9349   20.8480 N.3     1  UNL1       -0.2713
      4 C           7.0747   -4.1691   20.8468 C.3     1  UNL1        0.0749
      5 C           7.8254   -4.2301   22.1440 C.3     1  UNL1        0.0485
      6 C           7.0946   -4.0569   23.4423 C.3     1  UNL1        0.1096
      7 O           8.4908   -4.2548   23.9538 O.3     1  UNL1       -0.3826
      8 C           5.6129   -3.8226   23.4436 C.3     1  UNL1        0.0485
      9 C           4.8622   -3.7617   22.1464 C.3     1  UNL1        0.0749
     10 H           9.0941   -4.3834   23.2052 H       1  UNL1        0.2107
     11 C           6.8486   -3.9523   24.9184 C.ar    1  UNL1        0.0019
     12 C           6.4822   -2.6308   25.5259 C.ar    1  UNL1        0.0003
     13 C           6.2362   -2.5262   27.0019 C.ar    1  UNL1        0.0294
     14 C           6.3566   -3.7434   27.8704 C.ar    1  UNL1        0.1401
     15 F           6.1106   -3.6388   29.3463 F       1  UNL1       -0.2042
     16 C           6.7230   -5.0649   27.2628 C.ar    1  UNL1        0.0294
     17 C           6.9690   -5.1694   25.7868 C.ar    1  UNL1        0.0003
     18 C           5.0069   -2.6905   18.6440 C.3     1  UNL1        0.1472
     19 O           6.1404   -2.6495   17.6624 O.3     1  UNL1       -0.3787
     20 H           6.1015   -1.8219   17.1580 H       1  UNL1        0.2108
     21 C           4.0377   -1.5480   18.7186 C.ar    1  UNL1        0.0054
     22 C           4.2066   -0.3611   17.8171 C.ar    1  UNL1       -0.0007
     23 C           3.2375    0.7813   17.8918 C.ar    1  UNL1        0.0143
     24 C           2.0995    0.7369   18.8680 C.ar    1  UNL1        0.0526
     25 C           1.9306   -0.4500   19.7696 C.ar    1  UNL1        0.0346
     26 C           2.8997   -1.5924   19.6949 C.ar    1  UNL1       -0.0014
     27 C           0.7926   -0.4944   20.7458 C.3     1  UNL1        0.2379
     28 O          -0.1765    0.6480   20.8205 O.3     1  UNL1       -0.4294
     29 C          -0.0076    1.8350   19.9190 C.2     1  UNL1        0.4057
     30 O          -0.9767    2.9774   19.9937 O.2     1  UNL1       -0.2261
     31 N           1.1304    1.8794   18.9427 N.am    1  UNL1       -0.2501
     32 H           1.2412    2.6584   18.3510 H       1  UNL1        0.1582
@<TRIPOS>BOND
     1     1     2    1
     2     2    18    1
     3    18    19    1
     4    18    21    1
     5    21    22   ar
     6    22    23   ar
     7    23    24   ar
     8    24    25   ar
     9    25    26   ar
    10    25    27    1
    11    27    28    1
    12    28    29    1
    13    29    30    2
    14    29    31   am
    15     2     3    1
    16     3     4    1
    17     4     5    1
    18     5     6    1
    19     6     7    1
    20     6    11    1
    21    11    12   ar
    22    12    13   ar
    23    13    14   ar
    24    14    15    1
    25    14    16   ar
    26    16    17   ar
    27     6     8    1
    28     8     9    1
    29    26    21   ar
    30     9     3    1
    31    31    24    1
    32    17    11   ar
    33    19    20    1
    34    31    32    1
    35     7    10    1
@<TRIPOS>MOLECULE
*****
 32 35 0 0 0
SMALL
GASTEIGER

@<TRIPOS>ATOM
      1 C           9.0404   -2.6661   22.2633 C.3     1  UNL1        0.0203
      2 C           8.0333   -3.7131   21.8895 C.3     1  UNL1        0.0888
      3 N           6.8302   -3.3396   21.0753 N.3     1  UNL1       -0.2713
      4 C           6.3337   -4.2639   20.0033 C.3     1  UNL1        0.0749
      5 C           5.1306   -3.8904   19.1891 C.3     1  UNL1        0.0485
      6 C           4.4240   -2.5927   19.4467 C.3     1  UNL1        0.1096
      7 O           3.5803   -3.1312   18.3295 O.3     1  UNL1       -0.3826
      8 C           4.9205   -1.6683   20.5187 C.3     1  UNL1        0.0485
      9 C           6.1236   -2.0417   21.3330 C.3     1  UNL1        0.0749
     10 H           3.9265   -3.9929   18.0493 H       1  UNL1        0.2107
     11 C           3.4244   -1.4819   19.3164 C.ar    1  UNL1        0.0019
     12 C           3.6001   -0.4353   18.2563 C.ar    1  UNL1        0.0003
     13 C           2.6005    0.6755   18.1259 C.ar    1  UNL1        0.0294
     14 C           1.4251    0.7397   19.0558 C.ar    1  UNL1        0.1401
     15 F           0.4256    1.8505   18.9254 F       1  UNL1       -0.2042
     16 C           1.2494   -0.3069   20.1159 C.ar    1  UNL1        0.0294
     17 C           2.2490   -1.4177   20.2462 C.ar    1  UNL1        0.0003
     18 C           8.2294   -5.1335   22.3300 C.3     1  UNL1        0.1472
     19 O           8.6595   -6.1736   21.3385 O.3     1  UNL1       -0.3787
     20 H           8.7388   -7.0317   21.7839 H       1  UNL1        0.2108
     21 C           7.9953   -5.5138   23.7620 C.ar    1  UNL1        0.0054
     22 C           8.1746   -6.9375   24.1989 C.ar    1  UNL1       -0.0007
     23 C           7.9405   -7.3177   25.6308 C.ar    1  UNL1        0.0143
     24 C           7.5271   -6.2742   26.6260 C.ar    1  UNL1        0.0526
     25 C           7.3477   -4.8506   26.1891 C.ar    1  UNL1        0.0346
     26 C           7.5818   -4.4703   24.7571 C.ar    1  UNL1       -0.0014
     27 C           6.9342   -3.8071   27.1842 C.3     1  UNL1        0.2379
     28 O           6.7001   -4.1873   28.6162 O.3     1  UNL1       -0.4294
     29 C           6.8795   -5.6111   29.0531 C.2     1  UNL1        0.4057
     30 O           6.6454   -5.9913   30.4851 O.2     1  UNL1       -0.2261
     31 N           7.2930   -6.6545   28.0580 N.am    1  UNL1       -0.2501
     32 H           7.4107   -7.5890   28.3447 H       1  UNL1        0.1582
@<TRIPOS>BOND
     1     1     2    1
     2     2    18    1
     3    18    19    1
     4    18    21    1
     5    21    22   ar
     6    22    23   ar
     7    23    24   ar
     8    24    25   ar
     9    25    26   ar
    10    25    27    1
    11    27    28    1
    12    28    29    1
    13    29    30    2
    14    29    31   am
    15     2     3    1
    16     3     4    1
    17     4     5    1
    18     5     6    1
    19     6     7    1
    20     6    11    1
    21    11    12   ar
    22    12    13   ar
    23    13    14   ar
    24    14    15    1
    25    14    16   ar
    26    16    17   ar
    27     6     8    1
    28     8     9    1
    29    26    21   ar
    30     9     3    1
    31    31    24    1
    32    17    11   ar
    33    19    20    1
    34    31    32    1
    35     7    10    1
@<TRIPOS>MOLECULE
*****
 32 35 0 0 0
SMALL
GASTEIGER

@<TRIPOS>ATOM
      1 C           0.1562    1.3530   25.0916 C.3     1  UNL1        0.0203
      2 C          -0.0024    2.1643   23.8398 C.3     1  UNL1        0.0888
      3 N           0.4471    1.6058   22.5222 N.3     1  UNL1       -0.2713
      4 C          -0.2850    1.9693   21.2646 C.3     1  UNL1        0.0749
      5 C           0.1644    1.4108   19.9470 C.3     1  UNL1        0.0485
      6 C           1.3461    0.4888   19.8870 C.3     1  UNL1        0.1096
      7 O           0.9801    0.5381   18.4332 O.3     1  UNL1       -0.3826
      8 C           2.0783    0.1253   21.1448 C.3     1  UNL1        0.0485
      9 C           1.6288    0.6838   22.4624 C.3     1  UNL1        0.0749
     10 H           0.2090    1.1142   18.3132 H       1  UNL1        0.2107
     11 C           2.4006   -0.4161   19.3222 C.ar    1  UNL1        0.0019
     12 C           2.7673   -1.6806   20.0409 C.ar    1  UNL1        0.0003
     13 C           3.8219   -2.5855   19.4761 C.ar    1  UNL1        0.0294
     14 C           4.5097   -2.2259   18.1925 C.ar    1  UNL1        0.1401
     15 F           5.5643   -3.1308   17.6277 F       1  UNL1       -0.2042
     16 C           4.1430   -0.9614   17.4738 C.ar    1  UNL1        0.0294
     17 C           3.0885   -0.0565   18.0386 C.ar    1  UNL1        0.0003
     18 C          -0.6103    3.5340   23.9057 C.3     1  UNL1        0.1472
     19 O           0.2599    4.7481   23.7695 O.3     1  UNL1       -0.3787
     20 H          -0.2869    5.5467   23.8345 H       1  UNL1        0.2108
     21 C          -2.0885    3.6895   24.1078 C.ar    1  UNL1        0.0054
     22 C          -2.6561    3.7251   25.4958 C.ar    1  UNL1       -0.0007
     23 C          -4.1342    3.8806   25.6979 C.ar    1  UNL1        0.0143
     24 C          -5.0448    4.0006   24.5119 C.ar    1  UNL1        0.0526
     25 C          -4.4772    3.9650   23.1239 C.ar    1  UNL1        0.0346
     26 C          -2.9991    3.8095   22.9219 C.ar    1  UNL1       -0.0014
     27 C          -5.3878    4.0850   21.9380 C.3     1  UNL1        0.2379
     28 O          -6.8659    4.2405   22.1400 O.3     1  UNL1       -0.4294
     29 C          -7.4336    4.2761   23.5281 C.2     1  UNL1        0.4057
     30 O          -8.9117    4.4316   23.7301 O.2     1  UNL1       -0.2261
     31 N          -6.5230    4.1561   24.7140 N.am    1  UNL1       -0.2501
     32 H          -6.8955    4.1795   25.6250 H       1  UNL1        0.1582
@<TRIPOS>BOND
     1     1     2    1
     2     2    18    1
     3    18    19    1
     4    18    21    1
     5    21    22   ar
     6    22    23   ar
     7    23    24   ar
     8    24    25   ar
     9    25    26   ar
    10    25    27    1
    11    27    28    1
    12    28    29    1
    13    29    30    2
    14    29    31   am
    15     2     3    1
    16     3     4    1
    17     4     5    1
    18     5     6    1
    19     6     7    1
    20     6    11    1
    21    11    12   ar
    22    12    13   ar
    23    13    14   ar
    24    14    15    1
    25    14    16   ar
    26    16    17   ar
    27     6     8    1
    28     8     9    1
    29    26    21   ar
    30     9     3    1
    31    31    24    1
    32    17    11   ar
    33    19    20    1
    34    31    32    1
    35     7    10    1
@<TRIPOS>MOLECULE
*****
 32 35 0 0 0
SMALL
GASTEIGER

@<TRIPOS>ATOM
      1 C          -0.4042    5.4027   19.0454 C.3     1  UNL1        0.0203
      2 C          -0.9370    4.0265   18.7761 C.3     1  UNL1        0.0888
      3 N          -0.1325    2.8216   19.1644 N.3     1  UNL1       -0.2713
      4 C          -0.3193    2.1988   20.5162 C.3     1  UNL1        0.0749
      5 C           0.4853    0.9938   20.9044 C.3     1  UNL1        0.0485
      6 C           1.4766    0.4116   19.9410 C.3     1  UNL1        0.1096
      7 O           1.6557   -0.5265   21.0977 O.3     1  UNL1       -0.3826
      8 C           1.6634    1.0344   18.5892 C.3     1  UNL1        0.0485
      9 C           0.8589    2.2393   18.2009 C.3     1  UNL1        0.0749
     10 H           1.0613   -0.2675   21.8192 H       1  UNL1        0.2107
     11 C           2.5301   -0.4964   19.3792 C.ar    1  UNL1        0.0019
     12 C           3.3333   -0.0664   18.1877 C.ar    1  UNL1        0.0003
     13 C           4.3868   -0.9743   17.6259 C.ar    1  UNL1        0.0294
     14 C           4.6372   -2.3125   18.2558 C.ar    1  UNL1        0.1401
     15 F           5.6907   -3.2205   17.6940 F       1  UNL1       -0.2042
     16 C           3.8341   -2.7426   19.4474 C.ar    1  UNL1        0.0294
     17 C           2.7805   -1.8346   20.0091 C.ar    1  UNL1        0.0003
     18 C          -2.2742    3.8554   18.1186 C.3     1  UNL1        0.1472
     19 O          -2.3547    3.5147   16.6600 O.3     1  UNL1       -0.3787
     20 H          -3.2852    3.4407   16.3961 H       1  UNL1        0.2108
     21 C          -3.5311    4.0251   18.9196 C.ar    1  UNL1        0.0054
     22 C          -4.7962    4.4666   18.2454 C.ar    1  UNL1       -0.0007
     23 C          -6.0530    4.6362   19.0464 C.ar    1  UNL1        0.0143
     24 C          -6.0447    4.3643   20.5216 C.ar    1  UNL1        0.0526
     25 C          -4.7796    3.9228   21.1957 C.ar    1  UNL1        0.0346
     26 C          -3.5228    3.7532   20.3947 C.ar    1  UNL1       -0.0014
     27 C          -4.7713    3.6509   22.6708 C.3     1  UNL1        0.2379
     28 O          -6.0281    3.8205   23.4718 O.3     1  UNL1       -0.4294
     29 C          -7.2933    4.2620   22.7977 C.2     1  UNL1        0.4057
     30 O          -8.5501    4.4316   23.5987 O.2     1  UNL1       -0.2261
     31 N          -7.3016    4.5339   21.3226 N.am    1  UNL1       -0.2501
     32 H          -8.1320    4.8237   20.8801 H       1  UNL1        0.1582
@<TRIPOS>BOND
     1     1     2    1
     2     2    18    1
     3    18    19    1
     4    18    21    1
     5    21    22   ar
     6    22    23   ar
     7    23    24   ar
     8    24    25   ar
     9    25    26   ar
    10    25    27    1
    11    27    28    1
    12    28    29    1
    13    29    30    2
    14    29    31   am
    15     2     3    1
    16     3     4    1
    17     4     5    1
    18     5     6    1
    19     6     7    1
    20     6    11    1
    21    11    12   ar
    22    12    13   ar
    23    13    14   ar
    24    14    15    1
    25    14    16   ar
    26    16    17   ar
    27     6     8    1
    28     8     9    1
    29    26    21   ar
    30     9     3    1
    31    31    24    1
    32    17    11   ar
    33    19    20    1
    34    31    32    1
    35     7    10    1
@<TRIPOS>MOLECULE
*****
 32 35 0 0 0
SMALL
GASTEIGER

@<TRIPOS>ATOM
      1 C           2.2161    2.7678   21.4091 C.3     1  UNL1        0.0203
      2 C           1.1757    1.7931   21.8756 C.3     1  UNL1        0.0888
      3 N           0.3043    2.1306   23.0490 N.3     1  UNL1       -0.2713
      4 C           0.5753    1.5101   24.3875 C.3     1  UNL1        0.0749
      5 C          -0.2961    1.8476   25.5608 C.3     1  UNL1        0.0485
      6 C          -1.4384    2.8056   25.3957 C.3     1  UNL1        0.1096
      7 O          -1.5814    2.4783   26.8526 O.3     1  UNL1       -0.3826
      8 C          -1.7095    3.4261   24.0572 C.3     1  UNL1        0.0485
      9 C          -0.8381    3.0886   22.8838 C.3     1  UNL1        0.0749
     10 H          -0.8896    1.8499   27.1123 H       1  UNL1        0.2107
     11 C          -2.6305    3.6499   25.7366 C.ar    1  UNL1        0.0019
     12 C          -3.9219    3.4570   24.9985 C.ar    1  UNL1        0.0003
     13 C          -5.1140    4.3013   25.3392 C.ar    1  UNL1        0.0294
     14 C          -5.0145    5.3386   26.4183 C.ar    1  UNL1        0.1401
     15 F          -6.2066    6.1828   26.7591 F       1  UNL1       -0.2042
     16 C          -3.7231    5.5315   27.1564 C.ar    1  UNL1        0.0294
     17 C          -2.5310    4.6871   26.8156 C.ar    1  UNL1        0.0003
     18 C           1.0067    0.4810   21.1687 C.3     1  UNL1        0.1472
     19 O          -0.2526    0.1974   20.4047 O.3     1  UNL1       -0.3787
     20 H          -0.1997   -0.6877   20.0113 H       1  UNL1        0.2108
     21 C           2.0970   -0.5477   21.2259 C.ar    1  UNL1        0.0054
     22 C           2.4756   -1.3087   19.9900 C.ar    1  UNL1       -0.0007
     23 C           3.5659   -2.3373   20.0472 C.ar    1  UNL1        0.0143
     24 C           4.2775   -2.6048   21.3402 C.ar    1  UNL1        0.0526
     25 C           3.8989   -1.8438   22.5761 C.ar    1  UNL1        0.0346
     26 C           2.8087   -0.8152   22.5189 C.ar    1  UNL1       -0.0014
     27 C           4.6106   -2.1113   23.8692 C.3     1  UNL1        0.2379
     28 O           5.7008   -3.1399   23.9264 O.3     1  UNL1       -0.4294
     29 C           6.0795   -3.9010   22.6904 C.2     1  UNL1        0.4057
     30 O           7.1698   -4.9296   22.7476 O.2     1  UNL1       -0.2261
     31 N           5.3679   -3.6335   21.3974 N.am    1  UNL1       -0.2501
     32 H           5.6164   -4.1330   20.5862 H       1  UNL1        0.1582
@<TRIPOS>BOND
     1     1     2    1
     2     2    18    1
     3    18    19    1
     4    18    21    1
     5    21    22   ar
     6    22    23   ar
     7    23    24   ar
     8    24    25   ar
     9    25    26   ar
    10    25    27    1
    11    27    28    1
    12    28    29    1
    13    29    30    2
    14    29    31   am
    15     2     3    1
    16     3     4    1
    17     4     5    1
    18     5     6    1
    19     6     7    1
    20     6    11    1
    21    11    12   ar
    22    12    13   ar
    23    13    14   ar
    24    14    15    1
    25    14    16   ar
    26    16    17   ar
    27     6     8    1
    28     8     9    1
    29    26    21   ar
    30     9     3    1
    31    31    24    1
    32    17    11   ar
    33    19    20    1
    34    31    32    1
    35     7    10    1
@<TRIPOS>MOLECULE
*****
 32 35 0 0 0
SMALL
GASTEIGER

@<TRIPOS>ATOM
      1 C           6.2096    0.9151   18.3257 C.3     1  UNL1        0.0203
      2 C           5.6829   -0.4751   18.5253 C.3     1  UNL1        0.0888
      3 N           6.5155   -1.4970   19.2414 N.3     1  UNL1       -0.2713
      4 C           7.8964   -1.8166   18.7507 C.3     1  UNL1        0.0749
      5 C           8.7289   -2.8384   19.4667 C.3     1  UNL1        0.0485
      6 C           8.1806   -3.5406   20.6735 C.3     1  UNL1        0.1096
      7 O           9.5344   -4.1814   20.5921 O.3     1  UNL1       -0.3826
      8 C           6.7996   -3.2209   21.1642 C.3     1  UNL1        0.0485
      9 C           5.9670   -2.1991   20.4482 C.3     1  UNL1        0.0749
     10 H          10.0202   -3.8160   19.8362 H       1  UNL1        0.2107
     11 C           8.1023   -4.4653   21.8520 C.ar    1  UNL1        0.0019
     12 C           7.3692   -4.0419   23.0902 C.ar    1  UNL1        0.0003
     13 C           7.2910   -4.9666   24.2687 C.ar    1  UNL1        0.0294
     14 C           7.9459   -6.3148   24.2089 C.ar    1  UNL1        0.1401
     15 F           7.8677   -7.2394   25.3874 F       1  UNL1       -0.2042
     16 C           8.6790   -6.7382   22.9707 C.ar    1  UNL1        0.0294
     17 C           8.7573   -5.8135   21.7922 C.ar    1  UNL1        0.0003
     18 C           4.3237   -0.8435   18.0089 C.3     1  UNL1        0.1472
     19 O           4.1933   -1.7337   16.8087 O.3     1  UNL1       -0.3787
     20 H           3.2541   -1.8716   16.6089 H       1  UNL1        0.2108
     21 C           3.0947   -0.3217   18.6927 C.ar    1  UNL1        0.0054
     22 C           2.5037   -1.0726   19.8489 C.ar    1  UNL1       -0.0007
     23 C           1.2749   -0.5507   20.5326 C.ar    1  UNL1        0.0143
     24 C           0.6370    0.7220   20.0601 C.ar    1  UNL1        0.0526
     25 C           1.2280    1.4729   18.9040 C.ar    1  UNL1        0.0346
     26 C           2.4569    0.9511   18.2202 C.ar    1  UNL1       -0.0014
     27 C           0.5902    2.7457   18.4315 C.3     1  UNL1        0.2379
     28 O          -0.6387    3.2676   19.1152 O.3     1  UNL1       -0.4294
     29 C          -1.2298    2.5166   20.2715 C.2     1  UNL1        0.4057
     30 O          -2.4586    3.0385   20.9552 O.2     1  UNL1       -0.2261
     31 N          -0.5919    1.2439   20.7439 N.am    1  UNL1       -0.2501
     32 H          -0.9798    0.7510   21.5028 H       1  UNL1        0.1582
@<TRIPOS>BOND
     1     1     2    1
     2     2    18    1
     3    18    19    1
     4    18    21    1
     5    21    22   ar
     6    22    23   ar
     7    23    24   ar
     8    24    25   ar
     9    25    26   ar
    10    25    27    1
    11    27    28    1
    12    28    29    1
    13    29    30    2
    14    29    31   am
    15     2     3    1
    16     3     4    1
    17     4     5    1
    18     5     6    1
    19     6     7    1
    20     6    11    1
    21    11    12   ar
    22    12    13   ar
    23    13    14   ar
    24    14    15    1
    25    14    16   ar
    26    16    17   ar
    27     6     8    1
    28     8     9    1
    29    26    21   ar
    30     9     3    1
    31    31    24    1
    32    17    11   ar
    33    19    20    1
    34    31    32    1
    35     7    10    1
