@<TRIPOS>MOLECULE
*****
 34 39 0 0 0
SMALL
GASTEIGER

@<TRIPOS>ATOM
      1 C           3.8093   -0.3486   29.2753 C.ar    1  UNL1        0.1535
      2 C           5.0799    0.2049   29.8489 C.ar    1  UNL1        0.0379
      3 C           5.2385    0.3332   31.3351 C.ar    1  UNL1        0.0287
      4 C           4.1265   -0.0921   32.2475 C.ar    1  UNL1        0.1578
      5 N           2.8558   -0.6456   31.6738 N.ar    1  UNL1       -0.1420
      6 N           2.6972   -0.7739   30.1877 N.ar    1  UNL1       -0.1328
      7 F           2.0013   -0.1411   19.6089 F       1  UNL1       -0.2044
      8 C           2.8574   -1.1182   20.3589 C.ar    1  UNL1        0.1390
      9 C           3.5549   -2.2235   19.6228 C.ar    1  UNL1        0.0295
     10 C           4.4110   -3.2006   20.3728 C.ar    1  UNL1        0.0054
     11 C           4.5696   -3.0723   21.8588 C.ar    1  UNL1        0.0367
     12 C           3.8721   -1.9670   22.5950 C.ar    1  UNL1        0.1363
     13 C           3.0160   -0.9899   21.8450 C.ar    1  UNL1        0.0393
     14 C           2.3186    0.1154   22.5811 C.3     1  UNL1        0.0353
     15 C           2.4772    0.2437   24.0672 C.3     1  UNL1        0.0450
     16 C           3.3333   -0.7334   24.8171 C.3     1  UNL1        0.1367
     17 C           2.6359    0.3719   25.5532 C.3     1  UNL1        0.0615
     18 C           2.7945    0.5002   27.0392 C.3     1  UNL1        0.0958
     19 N           3.6506   -0.4769   27.7892 N.pl3   1  UNL1       -0.2916
     20 C           4.3481   -1.5822   27.0531 C.3     1  UNL1        0.0958
     21 C           4.1894   -1.7104   25.5671 C.3     1  UNL1        0.0615
     22 O           4.0308   -1.8387   24.0810 O.3     1  UNL1       -0.4827
     23 C           4.2851    0.0362   33.7335 C.ar    1  UNL1        0.2691
     24 N           4.7905   -1.0285   34.6614 N.ar    1  UNL1       -0.1055
     25 N           4.7838   -0.4710   36.0540 N.ar    1  UNL1       -0.1110
     26 C           4.2743    0.9382   35.9867 C.ar    1  UNL1        0.2310
     27 O           3.9661    1.2517   34.5526 O.2     1  UNL1       -0.4178
     28 C           4.1032    1.8703   37.1494 C.3     1  UNL1        0.1148
     29 C           2.7991    1.9148   37.8893 C.ar    1  UNL1        0.0063
     30 C           2.3935    0.7657   38.7639 C.ar    1  UNL1       -0.0006
     31 C           1.0895    0.8102   39.5039 C.ar    1  UNL1        0.0204
     32 C           0.1911    2.0039   39.3691 C.ar    1  UNL1        0.0989
     33 N           0.5967    3.1530   38.4945 N.ar    1  UNL1       -0.2426
     34 C           1.9007    3.1085   37.7546 C.ar    1  UNL1        0.0951
@<TRIPOS>BOND
     1     7     8    1
     2     8     9   ar
     3     9    10   ar
     4    10    11   ar
     5    11    12   ar
     6    12    13   ar
     7    13    14    1
     8    14    15    1
     9    15    16    1
    10    16    17    1
    11    17    18    1
    12    18    19    1
    13    19     1    1
    14     1     2   ar
    15     2     3   ar
    16     3     4   ar
    17     4    23    1
    18    23    24   ar
    19    24    25   ar
    20    25    26   ar
    21    26    28    1
    22    28    29    1
    23    29    30   ar
    24    30    31   ar
    25    31    32   ar
    26    32    33   ar
    27    33    34   ar
    28    26    27   ar
    29     4     5   ar
    30     5     6   ar
    31    19    20    1
    32    20    21    1
    33    16    22    1
    34    13     8   ar
    35    21    16    1
    36    22    12    1
    37     6     1   ar
    38    27    23   ar
    39    34    29   ar
@<TRIPOS>MOLECULE
*****
 34 39 0 0 0
SMALL
GASTEIGER

@<TRIPOS>ATOM
      1 C           3.4468   -0.2418   28.6077 C.ar    1  UNL1        0.1535
      2 C           4.6967    0.3624   29.1756 C.ar    1  UNL1        0.0379
      3 C           4.8987    0.4102   30.6612 C.ar    1  UNL1        0.0287
      4 C           3.8507   -0.1462   31.5789 C.ar    1  UNL1        0.1578
      5 N           2.6007   -0.7504   31.0109 N.ar    1  UNL1       -0.1420
      6 N           2.3988   -0.7982   29.5254 N.ar    1  UNL1       -0.1328
      7 F           3.0174   -1.5006   18.8618 F       1  UNL1       -0.2044
      8 C           2.2348   -0.5287   19.6942 C.ar    1  UNL1        0.1390
      9 C           1.2502    0.3953   19.0411 C.ar    1  UNL1        0.0295
     10 C           0.4675    1.3672   19.8735 C.ar    1  UNL1        0.0054
     11 C           0.6695    1.4150   21.3590 C.ar    1  UNL1        0.0367
     12 C           1.6542    0.4910   22.0123 C.ar    1  UNL1        0.1363
     13 C           2.4368   -0.4809   21.1799 C.ar    1  UNL1        0.0393
     14 C           3.4214   -1.4050   21.8330 C.3     1  UNL1        0.0353
     15 C           3.6234   -1.3572   23.3186 C.3     1  UNL1        0.0450
     16 C           2.8408   -0.3853   24.1510 C.3     1  UNL1        0.1367
     17 C           3.8254   -1.3093   24.8041 C.3     1  UNL1        0.0615
     18 C           4.0274   -1.2615   26.2897 C.3     1  UNL1        0.0958
     19 N           3.2447   -0.2896   27.1221 N.pl3   1  UNL1       -0.2916
     20 C           2.2601    0.6345   26.4690 C.3     1  UNL1        0.0958
     21 C           2.0581    0.5866   24.9834 C.3     1  UNL1        0.0615
     22 O           1.8561    0.5388   23.4978 O.3     1  UNL1       -0.4827
     23 C           4.0527   -0.0984   33.0644 C.ar    1  UNL1        0.2691
     24 N           4.3271   -1.2737   33.9552 N.ar    1  UNL1       -0.1055
     25 N           4.4597   -0.7686   35.3613 N.ar    1  UNL1       -0.1110
     26 C           4.2673    0.7189   35.3396 C.ar    1  UNL1        0.2310
     27 O           4.0157    1.1331   33.9200 O.2     1  UNL1       -0.4178
     28 C           4.3175    1.6319   36.5287 C.3     1  UNL1        0.1148
     29 C           3.1025    1.8090   37.3902 C.ar    1  UNL1        0.0063
     30 C           2.7573    0.7760   38.4215 C.ar    1  UNL1       -0.0006
     31 C           1.5423    0.9531   39.2830 C.ar    1  UNL1        0.0204
     32 C           0.6723    2.1632   39.1132 C.ar    1  UNL1        0.0989
     33 N           1.0175    3.1963   38.0818 N.ar    1  UNL1       -0.2426
     34 C           2.2326    3.0191   37.2203 C.ar    1  UNL1        0.0951
@<TRIPOS>BOND
     1     7     8    1
     2     8     9   ar
     3     9    10   ar
     4    10    11   ar
     5    11    12   ar
     6    12    13   ar
     7    13    14    1
     8    14    15    1
     9    15    16    1
    10    16    17    1
    11    17    18    1
    12    18    19    1
    13    19     1    1
    14     1     2   ar
    15     2     3   ar
    16     3     4   ar
    17     4    23    1
    18    23    24   ar
    19    24    25   ar
    20    25    26   ar
    21    26    28    1
    22    28    29    1
    23    29    30   ar
    24    30    31   ar
    25    31    32   ar
    26    32    33   ar
    27    33    34   ar
    28    26    27   ar
    29     4     5   ar
    30     5     6   ar
    31    19    20    1
    32    20    21    1
    33    16    22    1
    34    13     8   ar
    35    21    16    1
    36    22    12    1
    37     6     1   ar
    38    27    23   ar
    39    34    29   ar
@<TRIPOS>MOLECULE
*****
 34 39 0 0 0
SMALL
GASTEIGER

@<TRIPOS>ATOM
      1 C           3.9225   -1.0848   27.4422 C.ar    1  UNL1        0.1535
      2 C           5.2591   -1.2663   28.0982 C.ar    1  UNL1        0.0379
      3 C           5.3603   -1.3127   29.5941 C.ar    1  UNL1        0.0287
      4 C           4.1248   -1.1777   30.4339 C.ar    1  UNL1        0.1578
      5 N           2.7881   -0.9963   29.7778 N.ar    1  UNL1       -0.1420
      6 N           2.6870   -0.9498   28.2820 N.ar    1  UNL1       -0.1328
      7 F           2.2817    0.0615   17.8118 F       1  UNL1       -0.2044
      8 C           3.3152   -0.8060   18.4670 C.ar    1  UNL1        0.1390
      9 C           4.2475   -1.6271   17.6263 C.ar    1  UNL1        0.0295
     10 C           5.2810   -2.4946   18.2815 C.ar    1  UNL1        0.0054
     11 C           5.3822   -2.5411   19.7774 C.ar    1  UNL1        0.0367
     12 C           4.4499   -1.7200   20.6181 C.ar    1  UNL1        0.1363
     13 C           3.4164   -0.8525   19.9629 C.ar    1  UNL1        0.0393
     14 C           2.4841   -0.0314   20.8035 C.3     1  UNL1        0.0353
     15 C           2.5853   -0.0779   22.2994 C.3     1  UNL1        0.0450
     16 C           3.6188   -0.9454   22.9546 C.3     1  UNL1        0.1367
     17 C           2.6866   -0.1244   23.7953 C.3     1  UNL1        0.0615
     18 C           2.7878   -0.1708   25.2911 C.3     1  UNL1        0.0958
     19 N           3.8213   -1.0384   25.9463 N.pl3   1  UNL1       -0.2916
     20 C           4.7535   -1.8594   25.1056 C.3     1  UNL1        0.0958
     21 C           4.6523   -1.8130   23.6098 C.3     1  UNL1        0.0615
     22 O           4.5511   -1.7665   22.1139 O.3     1  UNL1       -0.4827
     23 C           4.2259   -1.2242   31.9298 C.ar    1  UNL1        0.2691
     24 N           3.7519   -2.3414   32.8113 N.ar    1  UNL1       -0.1055
     25 N           4.0518   -1.9693   34.2331 N.ar    1  UNL1       -0.1110
     26 C           4.7113   -0.6220   34.2303 C.ar    1  UNL1        0.2310
     27 O           4.8189   -0.1615   32.8068 O.2     1  UNL1       -0.4178
     28 C           5.1808    0.1324   35.4388 C.3     1  UNL1        0.1148
     29 C           4.2053    0.9351   36.2476 C.ar    1  UNL1        0.0063
     30 C           4.1508    0.7693   37.7374 C.ar    1  UNL1       -0.0006
     31 C           3.1753    1.5720   38.5461 C.ar    1  UNL1        0.0204
     32 C           2.2544    2.5406   37.8650 C.ar    1  UNL1        0.0989
     33 N           2.3090    2.7064   36.3752 N.ar    1  UNL1       -0.2426
     34 C           3.2844    1.9037   35.5665 C.ar    1  UNL1        0.0951
@<TRIPOS>BOND
     1     7     8    1
     2     8     9   ar
     3     9    10   ar
     4    10    11   ar
     5    11    12   ar
     6    12    13   ar
     7    13    14    1
     8    14    15    1
     9    15    16    1
    10    16    17    1
    11    17    18    1
    12    18    19    1
    13    19     1    1
    14     1     2   ar
    15     2     3   ar
    16     3     4   ar
    17     4    23    1
    18    23    24   ar
    19    24    25   ar
    20    25    26   ar
    21    26    28    1
    22    28    29    1
    23    29    30   ar
    24    30    31   ar
    25    31    32   ar
    26    32    33   ar
    27    33    34   ar
    28    26    27   ar
    29     4     5   ar
    30     5     6   ar
    31    19    20    1
    32    20    21    1
    33    16    22    1
    34    13     8   ar
    35    21    16    1
    36    22    12    1
    37     6     1   ar
    38    27    23   ar
    39    34    29   ar
@<TRIPOS>MOLECULE
*****
 34 39 0 0 0
SMALL
GASTEIGER

@<TRIPOS>ATOM
      1 C           2.7228    0.9464   28.6798 C.ar    1  UNL1        0.1535
      2 C           2.9746    2.3900   29.0000 C.ar    1  UNL1        0.0379
      3 C           2.8508    2.8775   30.4132 C.ar    1  UNL1        0.0287
      4 C           2.4752    1.9213   31.5062 C.ar    1  UNL1        0.1578
      5 N           2.2234    0.4777   31.1860 N.ar    1  UNL1       -0.1420
      6 N           2.3472   -0.0098   29.7728 N.ar    1  UNL1       -0.1328
      7 F           2.7713   -1.2457   19.0911 F       1  UNL1       -0.2044
      8 C           3.4656   -1.9783   20.2007 C.ar    1  UNL1        0.1390
      9 C           4.2836   -3.1984   19.8972 C.ar    1  UNL1        0.0295
     10 C           4.9779   -3.9310   21.0068 C.ar    1  UNL1        0.0054
     11 C           4.8541   -3.4436   22.4199 C.ar    1  UNL1        0.0367
     12 C           4.0360   -2.2235   22.7235 C.ar    1  UNL1        0.1363
     13 C           3.3418   -1.4908   21.6139 C.ar    1  UNL1        0.0393
     14 C           2.5237   -0.2707   21.9175 C.3     1  UNL1        0.0353
     15 C           2.3999    0.2167   23.3307 C.3     1  UNL1        0.0450
     16 C           3.0942   -0.5159   24.4403 C.3     1  UNL1        0.1367
     17 C           2.2761    0.7042   24.7438 C.3     1  UNL1        0.0615
     18 C           2.1524    1.1916   26.1570 C.3     1  UNL1        0.0958
     19 N           2.8466    0.4589   27.2666 N.pl3   1  UNL1       -0.2916
     20 C           3.6647   -0.7611   26.9631 C.3     1  UNL1        0.0958
     21 C           3.7885   -1.2485   25.5499 C.3     1  UNL1        0.0615
     22 O           3.9123   -1.7360   24.1367 O.3     1  UNL1       -0.4827
     23 C           2.3514    2.4087   32.9193 C.ar    1  UNL1        0.2691
     24 N           1.3967    3.4564   33.4102 N.ar    1  UNL1       -0.1055
     25 N           1.6158    3.6293   34.8840 N.ar    1  UNL1       -0.1110
     26 C           2.7059    2.6883   35.3040 C.ar    1  UNL1        0.2310
     27 O           3.1605    1.9341   34.0898 O.2     1  UNL1       -0.4178
     28 C           3.2465    2.5296   36.6942 C.3     1  UNL1        0.1148
     29 C           2.3461    2.0658   37.8006 C.ar    1  UNL1        0.0063
     30 C           2.6006    0.7490   38.4723 C.ar    1  UNL1       -0.0006
     31 C           1.7003    0.2851   39.5788 C.ar    1  UNL1        0.0204
     32 C           0.5454    1.1380   40.0134 C.ar    1  UNL1        0.0989
     33 N           0.2910    2.4548   39.3417 N.ar    1  UNL1       -0.2426
     34 C           1.1913    2.9187   38.2353 C.ar    1  UNL1        0.0951
@<TRIPOS>BOND
     1     7     8    1
     2     8     9   ar
     3     9    10   ar
     4    10    11   ar
     5    11    12   ar
     6    12    13   ar
     7    13    14    1
     8    14    15    1
     9    15    16    1
    10    16    17    1
    11    17    18    1
    12    18    19    1
    13    19     1    1
    14     1     2   ar
    15     2     3   ar
    16     3     4   ar
    17     4    23    1
    18    23    24   ar
    19    24    25   ar
    20    25    26   ar
    21    26    28    1
    22    28    29    1
    23    29    30   ar
    24    30    31   ar
    25    31    32   ar
    26    32    33   ar
    27    33    34   ar
    28    26    27   ar
    29     4     5   ar
    30     5     6   ar
    31    19    20    1
    32    20    21    1
    33    16    22    1
    34    13     8   ar
    35    21    16    1
    36    22    12    1
    37     6     1   ar
    38    27    23   ar
    39    34    29   ar
@<TRIPOS>MOLECULE
*****
 34 39 0 0 0
SMALL
GASTEIGER

@<TRIPOS>ATOM
      1 C           5.7889   -2.2782   32.5918 C.ar    1  UNL1        0.1535
      2 C           6.7354   -1.2790   33.1883 C.ar    1  UNL1        0.0379
      3 C           6.2908   -0.4136   34.3300 C.ar    1  UNL1        0.0287
      4 C           4.8998   -0.5474   34.8752 C.ar    1  UNL1        0.1578
      5 N           3.9533   -1.5467   34.2786 N.ar    1  UNL1       -0.1420
      6 N           4.3979   -2.4120   33.1370 N.ar    1  UNL1       -0.1328
      7 F           9.0577   -8.8183   26.0120 F       1  UNL1       -0.2044
      8 C           8.4564   -7.4709   25.7419 C.ar    1  UNL1        0.1390
      9 C           8.2996   -6.9890   24.3301 C.ar    1  UNL1        0.0295
     10 C           7.6983   -5.6416   24.0600 C.ar    1  UNL1        0.0054
     11 C           7.2537   -4.7762   25.2016 C.ar    1  UNL1        0.0367
     12 C           7.4105   -5.2581   26.6134 C.ar    1  UNL1        0.1363
     13 C           8.0118   -6.6055   26.8836 C.ar    1  UNL1        0.0393
     14 C           8.1686   -7.0874   28.2953 C.3     1  UNL1        0.0353
     15 C           7.7240   -6.2219   29.4370 C.3     1  UNL1        0.0450
     16 C           7.1227   -4.8746   29.1669 C.3     1  UNL1        0.1367
     17 C           7.2794   -5.3565   30.5786 C.3     1  UNL1        0.0615
     18 C           6.8349   -4.4910   31.7203 C.3     1  UNL1        0.0958
     19 N           6.2335   -3.1437   31.4501 N.pl3   1  UNL1       -0.2916
     20 C           6.0768   -2.6617   30.0383 C.3     1  UNL1        0.0958
     21 C           6.5213   -3.5272   28.8967 C.3     1  UNL1        0.0615
     22 O           6.9659   -4.3926   27.7550 O.3     1  UNL1       -0.4827
     23 C           4.4552    0.3180   36.0168 C.ar    1  UNL1        0.2691
     24 N           5.1289    0.4307   37.3522 N.ar    1  UNL1       -0.1055
     25 N           4.3489    1.4050   38.1843 N.ar    1  UNL1       -0.1110
     26 C           3.1930    1.8945   37.3630 C.ar    1  UNL1        0.2310
     27 O           3.2587    1.2227   36.0235 O.2     1  UNL1       -0.4178
     28 C           2.1539    2.8823   37.8039 C.3     1  UNL1        0.1148
     29 C           2.3079    4.3351   37.4637 C.ar    1  UNL1        0.0063
     30 C           1.2943    5.0122   36.5897 C.ar    1  UNL1       -0.0006
     31 C           1.4483    6.4650   36.2494 C.ar    1  UNL1        0.0204
     32 C           2.6160    7.2406   36.7833 C.ar    1  UNL1        0.0989
     33 N           3.6297    6.5634   37.6573 N.ar    1  UNL1       -0.2426
     34 C           3.4756    5.1107   37.9975 C.ar    1  UNL1        0.0951
@<TRIPOS>BOND
     1     7     8    1
     2     8     9   ar
     3     9    10   ar
     4    10    11   ar
     5    11    12   ar
     6    12    13   ar
     7    13    14    1
     8    14    15    1
     9    15    16    1
    10    16    17    1
    11    17    18    1
    12    18    19    1
    13    19     1    1
    14     1     2   ar
    15     2     3   ar
    16     3     4   ar
    17     4    23    1
    18    23    24   ar
    19    24    25   ar
    20    25    26   ar
    21    26    28    1
    22    28    29    1
    23    29    30   ar
    24    30    31   ar
    25    31    32   ar
    26    32    33   ar
    27    33    34   ar
    28    26    27   ar
    29     4     5   ar
    30     5     6   ar
    31    19    20    1
    32    20    21    1
    33    16    22    1
    34    13     8   ar
    35    21    16    1
    36    22    12    1
    37     6     1   ar
    38    27    23   ar
    39    34    29   ar
@<TRIPOS>MOLECULE
*****
 34 39 0 0 0
SMALL
GASTEIGER

@<TRIPOS>ATOM
      1 C           3.3395    0.2505   28.7861 C.ar    1  UNL1        0.1535
      2 C           3.9462    1.5628   29.1858 C.ar    1  UNL1        0.0379
      3 C           3.7493    2.0872   30.5774 C.ar    1  UNL1        0.0287
      4 C           2.9457    1.2994   31.5691 C.ar    1  UNL1        0.1578
      5 N           2.3389   -0.0130   31.1692 N.ar    1  UNL1       -0.1420
      6 N           2.5359   -0.5373   29.7778 N.ar    1  UNL1       -0.1328
      7 F           5.5247   -3.9807   20.1795 F       1  UNL1       -0.2044
      8 C           4.5209   -2.8962   20.4372 C.ar    1  UNL1        0.1390
      9 C           3.7140   -2.3362   19.3035 C.ar    1  UNL1        0.0295
     10 C           2.7103   -1.2518   19.5612 C.ar    1  UNL1        0.0054
     11 C           2.5133   -0.7274   20.9527 C.ar    1  UNL1        0.0367
     12 C           3.3202   -1.2873   22.0865 C.ar    1  UNL1        0.1363
     13 C           4.3240   -2.3718   21.8288 C.ar    1  UNL1        0.0393
     14 C           5.1309   -2.9317   22.9625 C.3     1  UNL1        0.0353
     15 C           4.9340   -2.4073   24.3540 C.3     1  UNL1        0.0450
     16 C           3.9302   -1.3229   24.6117 C.3     1  UNL1        0.1367
     17 C           4.7371   -1.8828   25.7454 C.3     1  UNL1        0.0615
     18 C           4.5402   -1.3584   27.1368 C.3     1  UNL1        0.0958
     19 N           3.5364   -0.2739   27.3946 N.pl3   1  UNL1       -0.2916
     20 C           2.7295    0.2860   26.2608 C.3     1  UNL1        0.0958
     21 C           2.9264   -0.2384   24.8694 C.3     1  UNL1        0.0615
     22 O           3.1233   -0.7629   23.4779 O.3     1  UNL1       -0.4827
     23 C           2.7488    1.8238   32.9605 C.ar    1  UNL1        0.2691
     24 N           1.7512    2.8632   33.3781 N.ar    1  UNL1       -0.1055
     25 N           1.9007    3.0827   34.8544 N.ar    1  UNL1       -0.1110
     26 C           2.9908    2.1788   35.3492 C.ar    1  UNL1        0.2310
     27 O           3.5149    1.4008   34.1787 O.2     1  UNL1       -0.4178
     28 C           3.4722    2.0717   36.7658 C.3     1  UNL1        0.1148
     29 C           2.4920    1.8277   37.8747 C.ar    1  UNL1        0.0063
     30 C           2.4380    0.4876   38.5465 C.ar    1  UNL1       -0.0006
     31 C           1.4578    0.2435   39.6553 C.ar    1  UNL1        0.0204
     32 C           0.5315    1.3395   40.0923 C.ar    1  UNL1        0.0989
     33 N           0.5855    2.6795   39.4205 N.ar    1  UNL1       -0.2426
     34 C           1.5657    2.9236   38.3117 C.ar    1  UNL1        0.0951
@<TRIPOS>BOND
     1     7     8    1
     2     8     9   ar
     3     9    10   ar
     4    10    11   ar
     5    11    12   ar
     6    12    13   ar
     7    13    14    1
     8    14    15    1
     9    15    16    1
    10    16    17    1
    11    17    18    1
    12    18    19    1
    13    19     1    1
    14     1     2   ar
    15     2     3   ar
    16     3     4   ar
    17     4    23    1
    18    23    24   ar
    19    24    25   ar
    20    25    26   ar
    21    26    28    1
    22    28    29    1
    23    29    30   ar
    24    30    31   ar
    25    31    32   ar
    26    32    33   ar
    27    33    34   ar
    28    26    27   ar
    29     4     5   ar
    30     5     6   ar
    31    19    20    1
    32    20    21    1
    33    16    22    1
    34    13     8   ar
    35    21    16    1
    36    22    12    1
    37     6     1   ar
    38    27    23   ar
    39    34    29   ar
@<TRIPOS>MOLECULE
*****
 34 39 0 0 0
SMALL
GASTEIGER

@<TRIPOS>ATOM
      1 C           2.2370    1.6198   28.7141 C.ar    1  UNL1        0.1535
      2 C           3.5156    1.7269   29.4910 C.ar    1  UNL1        0.0379
      3 C           3.4855    2.1464   30.9309 C.ar    1  UNL1        0.0287
      4 C           2.1767    2.4588   31.5938 C.ar    1  UNL1        0.1578
      5 N           0.8980    2.3516   30.8168 N.ar    1  UNL1       -0.1420
      6 N           0.9282    1.9321   29.3770 N.ar    1  UNL1       -0.1328
      7 F           3.3566   -1.9789   19.6286 F       1  UNL1       -0.2044
      8 C           2.4181   -0.8974   20.0751 C.ar    1  UNL1        0.1390
      9 C           1.5097   -0.2354   19.0819 C.ar    1  UNL1        0.0295
     10 C           0.5711    0.8462   19.5284 C.ar    1  UNL1        0.0054
     11 C           0.5409    1.2657   20.9682 C.ar    1  UNL1        0.0367
     12 C           1.4493    0.6037   21.9615 C.ar    1  UNL1        0.1363
     13 C           2.3879   -0.4778   21.5150 C.ar    1  UNL1        0.0393
     14 C           3.2963   -1.1398   22.5082 C.3     1  UNL1        0.0353
     15 C           3.2661   -0.7203   23.9481 C.3     1  UNL1        0.0450
     16 C           2.3276    0.3612   24.3947 C.3     1  UNL1        0.1367
     17 C           3.2359   -0.3008   25.3879 C.3     1  UNL1        0.0615
     18 C           3.2057    0.1187   26.8277 C.3     1  UNL1        0.0958
     19 N           2.2672    1.2003   27.2742 N.pl3   1  UNL1       -0.2916
     20 C           1.3588    1.8623   26.2810 C.3     1  UNL1        0.0958
     21 C           1.3890    1.4427   24.8412 C.3     1  UNL1        0.0615
     22 O           1.4192    1.0232   23.4013 O.3     1  UNL1       -0.4827
     23 C           2.1465    2.8783   33.0336 C.ar    1  UNL1        0.2691
     24 N           1.2492    3.9225   33.6291 N.ar    1  UNL1       -0.1055
     25 N           1.5564    4.0168   35.0942 N.ar    1  UNL1       -0.1110
     26 C           2.6436    3.0309   35.4042 C.ar    1  UNL1        0.2310
     27 O           3.0083    2.3273   34.1307 O.2     1  UNL1       -0.4178
     28 C           3.2582    2.7908   36.7513 C.3     1  UNL1        0.1148
     29 C           2.4231    2.2410   37.8695 C.ar    1  UNL1        0.0063
     30 C           1.1984    2.9785   38.3235 C.ar    1  UNL1       -0.0006
     31 C           0.3633    2.4288   39.4416 C.ar    1  UNL1        0.0204
     32 C           0.7529    1.1415   40.1058 C.ar    1  UNL1        0.0989
     33 N           1.9776    0.4040   39.6519 N.ar    1  UNL1       -0.2426
     34 C           2.8128    0.9538   38.5337 C.ar    1  UNL1        0.0951
@<TRIPOS>BOND
     1     7     8    1
     2     8     9   ar
     3     9    10   ar
     4    10    11   ar
     5    11    12   ar
     6    12    13   ar
     7    13    14    1
     8    14    15    1
     9    15    16    1
    10    16    17    1
    11    17    18    1
    12    18    19    1
    13    19     1    1
    14     1     2   ar
    15     2     3   ar
    16     3     4   ar
    17     4    23    1
    18    23    24   ar
    19    24    25   ar
    20    25    26   ar
    21    26    28    1
    22    28    29    1
    23    29    30   ar
    24    30    31   ar
    25    31    32   ar
    26    32    33   ar
    27    33    34   ar
    28    26    27   ar
    29     4     5   ar
    30     5     6   ar
    31    19    20    1
    32    20    21    1
    33    16    22    1
    34    13     8   ar
    35    21    16    1
    36    22    12    1
    37     6     1   ar
    38    27    23   ar
    39    34    29   ar
@<TRIPOS>MOLECULE
*****
 34 39 0 0 0
SMALL
GASTEIGER

@<TRIPOS>ATOM
      1 C           3.7037   -0.8628   27.4047 C.ar    1  UNL1        0.1535
      2 C           2.4775   -0.6306   28.2369 C.ar    1  UNL1        0.0379
      3 C           2.5681   -0.6715   29.7337 C.ar    1  UNL1        0.0287
      4 C           3.8849   -0.9447   30.3982 C.ar    1  UNL1        0.1578
      5 N           5.1111   -1.1768   29.5659 N.ar    1  UNL1       -0.1420
      6 N           5.0205   -1.1359   28.0692 N.ar    1  UNL1       -0.1328
      7 F           2.1765    0.2981   17.7574 F       1  UNL1       -0.2044
      8 C           3.1603   -0.6170   18.4245 C.ar    1  UNL1        0.1390
      9 C           4.0534   -1.4910   17.5949 C.ar    1  UNL1        0.0295
     10 C           5.0371   -2.4060   18.2619 C.ar    1  UNL1        0.0054
     11 C           5.1277   -2.4470   19.7586 C.ar    1  UNL1        0.0367
     12 C           4.2346   -1.5729   20.5883 C.ar    1  UNL1        0.1363
     13 C           3.2508   -0.6579   19.9212 C.ar    1  UNL1        0.0393
     14 C           2.3577    0.2162   20.7508 C.3     1  UNL1        0.0353
     15 C           2.4482    0.1752   22.2476 C.3     1  UNL1        0.0450
     16 C           3.4320   -0.7398   22.9146 C.3     1  UNL1        0.1367
     17 C           2.5388    0.1342   23.7442 C.3     1  UNL1        0.0615
     18 C           2.6294    0.0932   25.2409 C.3     1  UNL1        0.0958
     19 N           3.6132   -0.8218   25.9080 N.pl3   1  UNL1       -0.2916
     20 C           4.5063   -1.6959   25.0784 C.3     1  UNL1        0.0958
     21 C           4.4157   -1.6549   23.5817 C.3     1  UNL1        0.0615
     22 O           4.3251   -1.6139   22.0850 O.3     1  UNL1       -0.4827
     23 C           3.9755   -0.9856   31.8948 C.ar    1  UNL1        0.2691
     24 N           3.8547   -2.2105   32.7523 N.ar    1  UNL1       -0.1055
     25 N           4.0074   -1.7908   34.1842 N.ar    1  UNL1       -0.1110
     26 C           4.2224   -0.3065   34.2118 C.ar    1  UNL1        0.2310
     27 O           4.2027    0.1911   32.7969 O.2     1  UNL1       -0.4178
     28 C           4.4221    0.5328   35.4389 C.3     1  UNL1        0.1148
     29 C           5.7876    0.6599   36.0466 C.ar    1  UNL1        0.0063
     30 C           6.0022    1.5597   37.2274 C.ar    1  UNL1       -0.0006
     31 C           7.3677    1.6867   37.8351 C.ar    1  UNL1        0.0204
     32 C           8.5185    0.9139   37.2620 C.ar    1  UNL1        0.0989
     33 N           8.3039    0.0141   36.0812 N.ar    1  UNL1       -0.2426
     34 C           6.9384   -0.1129   35.4735 C.ar    1  UNL1        0.0951
@<TRIPOS>BOND
     1     7     8    1
     2     8     9   ar
     3     9    10   ar
     4    10    11   ar
     5    11    12   ar
     6    12    13   ar
     7    13    14    1
     8    14    15    1
     9    15    16    1
    10    16    17    1
    11    17    18    1
    12    18    19    1
    13    19     1    1
    14     1     2   ar
    15     2     3   ar
    16     3     4   ar
    17     4    23    1
    18    23    24   ar
    19    24    25   ar
    20    25    26   ar
    21    26    28    1
    22    28    29    1
    23    29    30   ar
    24    30    31   ar
    25    31    32   ar
    26    32    33   ar
    27    33    34   ar
    28    26    27   ar
    29     4     5   ar
    30     5     6   ar
    31    19    20    1
    32    20    21    1
    33    16    22    1
    34    13     8   ar
    35    21    16    1
    36    22    12    1
    37     6     1   ar
    38    27    23   ar
    39    34    29   ar
@<TRIPOS>MOLECULE
*****
 34 39 0 0 0
SMALL
GASTEIGER

@<TRIPOS>ATOM
      1 C           5.6003   -2.0218   32.2095 C.ar    1  UNL1        0.1535
      2 C           6.5528   -1.3677   33.1659 C.ar    1  UNL1        0.0379
      3 C           6.0389   -0.4073   34.1972 C.ar    1  UNL1        0.0287
      4 C           4.5724   -0.1010   34.2720 C.ar    1  UNL1        0.1578
      5 N           3.6198   -0.7552   33.3155 N.ar    1  UNL1       -0.1420
      6 N           4.1338   -1.7156   32.2843 N.ar    1  UNL1       -0.1328
      7 F           9.3164   -9.0757   26.4489 F       1  UNL1       -0.2044
      8 C           8.6840   -7.7843   26.0219 C.ar    1  UNL1        0.1390
      9 C           8.5655   -7.4533   24.5637 C.ar    1  UNL1        0.0295
     10 C           7.9331   -6.1618   24.1368 C.ar    1  UNL1        0.0054
     11 C           7.4192   -5.2014   25.1680 C.ar    1  UNL1        0.0367
     12 C           7.5376   -5.5324   26.6262 C.ar    1  UNL1        0.1363
     13 C           8.1700   -6.8239   27.0532 C.ar    1  UNL1        0.0393
     14 C           8.2885   -7.1549   28.5114 C.3     1  UNL1        0.0353
     15 C           7.7745   -6.1945   29.5427 C.3     1  UNL1        0.0450
     16 C           7.1421   -4.9030   29.1157 C.3     1  UNL1        0.1367
     17 C           7.2606   -5.2341   30.5739 C.3     1  UNL1        0.0615
     18 C           6.7466   -4.2737   31.6051 C.3     1  UNL1        0.0958
     19 N           6.1142   -2.9822   31.1782 N.pl3   1  UNL1       -0.2916
     20 C           5.9958   -2.6512   29.7200 C.3     1  UNL1        0.0958
     21 C           6.5097   -3.6116   28.6888 C.3     1  UNL1        0.0615
     22 O           7.0237   -4.5720   27.6575 O.3     1  UNL1       -0.4827
     23 C           4.0584    0.8593   35.3032 C.ar    1  UNL1        0.2691
     24 N           3.1369    2.0154   35.0498 N.ar    1  UNL1       -0.1055
     25 N           2.8846    2.7029   36.3589 N.ar    1  UNL1       -0.1110
     26 C           3.6503    1.9715   37.4215 C.ar    1  UNL1        0.2310
     27 O           4.3757    0.8322   36.7690 O.2     1  UNL1       -0.4178
     28 C           3.6845    2.3187   38.8804 C.3     1  UNL1        0.1148
     29 C           4.5280    3.4627   39.3595 C.ar    1  UNL1        0.0063
     30 C           5.7688    3.1962   40.1592 C.ar    1  UNL1       -0.0006
     31 C           6.6124    4.3402   40.6383 C.ar    1  UNL1        0.0204
     32 C           6.2152    5.7507   40.3178 C.ar    1  UNL1        0.0989
     33 N           4.9744    6.0172   39.5182 N.ar    1  UNL1       -0.2426
     34 C           4.1308    4.8732   39.0390 C.ar    1  UNL1        0.0951
@<TRIPOS>BOND
     1     7     8    1
     2     8     9   ar
     3     9    10   ar
     4    10    11   ar
     5    11    12   ar
     6    12    13   ar
     7    13    14    1
     8    14    15    1
     9    15    16    1
    10    16    17    1
    11    17    18    1
    12    18    19    1
    13    19     1    1
    14     1     2   ar
    15     2     3   ar
    16     3     4   ar
    17     4    23    1
    18    23    24   ar
    19    24    25   ar
    20    25    26   ar
    21    26    28    1
    22    28    29    1
    23    29    30   ar
    24    30    31   ar
    25    31    32   ar
    26    32    33   ar
    27    33    34   ar
    28    26    27   ar
    29     4     5   ar
    30     5     6   ar
    31    19    20    1
    32    20    21    1
    33    16    22    1
    34    13     8   ar
    35    21    16    1
    36    22    12    1
    37     6     1   ar
    38    27    23   ar
    39    34    29   ar
