@<TRIPOS>MOLECULE
*****
 19 21 0 0 0
SMALL
GASTEIGER

@<TRIPOS>ATOM
      1 C         -11.5938  -18.2090   22.2478 C.3     1  UNL1        0.0457
      2 C         -10.4346  -18.2939   21.2996 C.3     1  UNL1        0.0712
      3 N         -10.3384  -17.3408   20.1454 N.3     1  UNL1       -0.2974
      4 C         -11.4014  -16.3027   19.9393 C.3     1  UNL1        0.0689
      5 C         -12.5606  -16.2178   20.8875 C.3     1  UNL1        0.0212
      6 C         -12.6568  -17.1709   22.0417 C.3     1  UNL1        0.0239
      7 C         -12.7530  -18.1240   23.1960 C.3     1  UNL1        0.0083
      8 H         -10.3115  -17.9070   19.2974 H       1  UNL1        0.1232
      9 C         -11.3738  -17.8192   21.6132 C.ar    1  UNL1       -0.0217
     10 C         -11.3996  -18.9696   20.6508 C.ar    1  UNL1       -0.0034
     11 C         -10.1167  -19.6179   20.2224 C.ar    1  UNL1        0.0119
     12 C          -8.8079  -19.1160   20.7562 C.ar    1  UNL1        0.0682
     13 CL         -7.5249  -19.7644   20.3277 Cl      1  UNL1       -0.0814
     14 C          -8.7820  -17.9657   21.7185 C.ar    1  UNL1        0.0679
     15 CL         -7.4731  -17.4637   22.2524 Cl      1  UNL1       -0.0814
     16 C         -10.0650  -17.3173   22.1471 C.ar    1  UNL1        0.0080
     17 C         -11.0356  -19.3585   23.0331 C.3     1  UNL1        0.1438
     18 C          -9.9437  -18.9446   25.3540 C.3     1  UNL1        0.1741
     19 O         -11.1270  -19.3587   24.5303 O.3     1  UNL1       -0.3510
@<TRIPOS>BOND
     1    18    19    1
     2    19    17    1
     3     1    17    1
     4     1     2    1
     5     2     3    1
     6     3     4    1
     7     4     5    1
     8     5     6    1
     9     6     9    1
    10     9    10   ar
    11    10    11   ar
    12    11    12   ar
    13    12    13    1
    14    12    14   ar
    15    14    15    1
    16    14    16   ar
    17     6     7    1
    18     6     1    1
    19    16     9   ar
    20     7     1    1
    21     3     8    1
@<TRIPOS>MOLECULE
*****
 19 21 0 0 0
SMALL
GASTEIGER

@<TRIPOS>ATOM
      1 C         -11.5362  -18.0619   22.0050 C.3     1  UNL1        0.0457
      2 C         -10.1160  -18.3315   22.4055 C.3     1  UNL1        0.0712
      3 N          -9.7959  -18.7182   23.8189 N.3     1  UNL1       -0.2974
      4 C         -10.8959  -18.8353   24.8320 C.3     1  UNL1        0.0689
      5 C         -12.3161  -18.5656   24.4315 C.3     1  UNL1        0.0212
      6 C         -12.6362  -18.1789   23.0181 C.3     1  UNL1        0.0239
      7 C         -12.9564  -17.7922   21.6045 C.3     1  UNL1        0.0083
      8 H          -9.1416  -18.0208   24.1740 H       1  UNL1        0.1232
      9 C         -11.1812  -18.2670   22.6644 C.ar    1  UNL1       -0.0217
     10 C         -10.6027  -19.5660   22.1869 C.ar    1  UNL1       -0.0034
     11 C          -9.1476  -19.6541   21.8332 C.ar    1  UNL1        0.0119
     12 C          -8.2710  -18.4432   21.9571 C.ar    1  UNL1        0.0682
     13 CL         -6.8159  -18.5313   21.6035 Cl      1  UNL1       -0.0814
     14 C          -8.8495  -17.1442   22.4347 C.ar    1  UNL1        0.0679
     15 CL         -7.9729  -15.9334   22.5586 Cl      1  UNL1       -0.0814
     16 C         -10.3046  -17.0561   22.7883 C.ar    1  UNL1        0.0080
     17 C         -11.0859  -17.7710   20.6041 C.3     1  UNL1        0.1438
     18 C         -11.5348  -15.6023   19.2457 C.3     1  UNL1        0.1741
     19 O         -11.9617  -16.9713   19.6856 O.3     1  UNL1       -0.3510
@<TRIPOS>BOND
     1    18    19    1
     2    19    17    1
     3     1    17    1
     4     1     2    1
     5     2     3    1
     6     3     4    1
     7     4     5    1
     8     5     6    1
     9     6     9    1
    10     9    10   ar
    11    10    11   ar
    12    11    12   ar
    13    12    13    1
    14    12    14   ar
    15    14    15    1
    16    14    16   ar
    17     6     7    1
    18     6     1    1
    19    16     9   ar
    20     7     1    1
    21     3     8    1
@<TRIPOS>MOLECULE
*****
 19 21 0 0 0
SMALL
GASTEIGER

@<TRIPOS>ATOM
      1 C         -11.2918  -17.6999   23.1263 C.3     1  UNL1        0.0457
      2 C          -9.9429  -17.2274   22.6712 C.3     1  UNL1        0.0712
      3 N          -9.8191  -16.3975   21.4279 N.3     1  UNL1       -0.2974
      4 C         -11.0442  -16.0401   20.6396 C.3     1  UNL1        0.0689
      5 C         -12.3931  -16.5126   21.0947 C.3     1  UNL1        0.0212
      6 C         -12.5169  -17.3425   22.3380 C.3     1  UNL1        0.0239
      7 C         -12.6408  -18.1724   23.5814 C.3     1  UNL1        0.0083
      8 H          -9.1999  -16.9048   20.7957 H       1  UNL1        0.1232
      9 C         -11.0308  -17.2760   22.5303 C.ar    1  UNL1       -0.0217
     10 C         -10.1329  -18.1985   21.7604 C.ar    1  UNL1       -0.0034
     11 C          -8.6468  -18.1321   21.9527 C.ar    1  UNL1        0.0119
     12 C          -8.0585  -17.1431   22.9149 C.ar    1  UNL1        0.0682
     13 CL         -6.5723  -17.0767   23.1072 Cl      1  UNL1       -0.0814
     14 C          -8.9564  -16.2207   23.6849 C.ar    1  UNL1        0.0679
     15 CL         -8.3681  -15.2317   24.6472 Cl      1  UNL1       -0.0814
     16 C         -10.4425  -16.2871   23.4926 C.ar    1  UNL1        0.0080
     17 C         -10.6560  -18.3854   24.2992 C.3     1  UNL1        0.1438
     18 C          -9.6512  -20.7777   24.4314 C.3     1  UNL1        0.1741
     19 O         -10.8374  -19.8616   24.4939 O.3     1  UNL1       -0.3510
@<TRIPOS>BOND
     1    18    19    1
     2    19    17    1
     3     1    17    1
     4     1     2    1
     5     2     3    1
     6     3     4    1
     7     4     5    1
     8     5     6    1
     9     6     9    1
    10     9    10   ar
    11    10    11   ar
    12    11    12   ar
    13    12    13    1
    14    12    14   ar
    15    14    15    1
    16    14    16   ar
    17     6     7    1
    18     6     1    1
    19    16     9   ar
    20     7     1    1
    21     3     8    1
@<TRIPOS>MOLECULE
*****
 19 21 0 0 0
SMALL
GASTEIGER

@<TRIPOS>ATOM
      1 C         -10.6071  -17.1157   21.9848 C.3     1  UNL1        0.0457
      2 C         -10.7877  -18.2757   22.9183 C.3     1  UNL1        0.0712
      3 N         -12.1208  -18.5208   23.5608 N.3     1  UNL1       -0.2974
      4 C         -13.2732  -17.6058   23.2697 C.3     1  UNL1        0.0689
      5 C         -13.0926  -16.4458   22.3361 C.3     1  UNL1        0.0212
      6 C         -11.7595  -16.2007   21.6936 C.3     1  UNL1        0.0239
      7 C         -10.4264  -15.9556   21.0511 C.3     1  UNL1        0.0083
      8 H         -11.9709  -18.4939   24.5694 H       1  UNL1        0.1232
      9 C         -11.1985  -17.3987   22.4007 C.ar    1  UNL1       -0.0217
     10 C         -11.2126  -18.7403   21.7299 C.ar    1  UNL1       -0.0034
     11 C         -10.6516  -19.9383   22.4370 C.ar    1  UNL1        0.0119
     12 C         -10.0764  -19.7948   23.8149 C.ar    1  UNL1        0.0682
     13 CL         -9.5154  -20.9929   24.5220 Cl      1  UNL1       -0.0814
     14 C         -10.0623  -18.4533   24.4857 C.ar    1  UNL1        0.0679
     15 CL         -9.4871  -18.3097   25.8636 Cl      1  UNL1       -0.0814
     16 C         -10.6233  -17.2552   23.7786 C.ar    1  UNL1        0.0080
     17 C          -9.1721  -17.5024   21.7819 C.3     1  UNL1        0.1438
     18 C          -7.3515  -16.1144   23.0103 C.3     1  UNL1        0.1741
     19 O          -8.1070  -16.4465   21.7576 O.3     1  UNL1       -0.3510
@<TRIPOS>BOND
     1    18    19    1
     2    19    17    1
     3     1    17    1
     4     1     2    1
     5     2     3    1
     6     3     4    1
     7     4     5    1
     8     5     6    1
     9     6     9    1
    10     9    10   ar
    11    10    11   ar
    12    11    12   ar
    13    12    13    1
    14    12    14   ar
    15    14    15    1
    16    14    16   ar
    17     6     7    1
    18     6     1    1
    19    16     9   ar
    20     7     1    1
    21     3     8    1
@<TRIPOS>MOLECULE
*****
 19 21 0 0 0
SMALL
GASTEIGER

@<TRIPOS>ATOM
      1 C         -10.5431  -18.1055   23.4206 C.3     1  UNL1        0.0457
      2 C         -11.3101  -17.4904   22.2878 C.3     1  UNL1        0.0712
      3 N         -12.8095  -17.4665   22.3229 N.3     1  UNL1       -0.2974
      4 C         -13.5419  -18.0578   23.4908 C.3     1  UNL1        0.0689
      5 C         -12.7749  -18.6729   24.6237 C.3     1  UNL1        0.0212
      6 C         -11.2755  -18.6967   24.5886 C.3     1  UNL1        0.0239
      7 C          -9.7761  -18.7206   24.5535 C.3     1  UNL1        0.0083
      8 H         -13.1314  -17.9626   21.4918 H       1  UNL1        0.1232
      9 C         -11.2955  -18.0002   23.2602 C.ar    1  UNL1       -0.0217
     10 C         -11.4424  -16.5087   23.1975 C.ar    1  UNL1       -0.0034
     11 C         -11.4624  -15.8123   21.8692 C.ar    1  UNL1        0.0119
     12 C         -11.3355  -16.6072   20.6035 C.ar    1  UNL1        0.0682
     13 CL        -11.3556  -15.9107   19.2752 Cl      1  UNL1       -0.0814
     14 C         -11.1887  -18.0987   20.6662 C.ar    1  UNL1        0.0679
     15 CL        -11.0619  -18.8937   19.4005 Cl      1  UNL1       -0.0814
     16 C         -11.1687  -18.7952   21.9946 C.ar    1  UNL1        0.0080
     17 C          -9.2546  -17.7779   22.7261 C.3     1  UNL1        0.1438
     18 C          -7.7283  -15.7540   23.2958 C.3     1  UNL1        0.1741
     19 O          -8.1133  -17.1892   23.5013 O.3     1  UNL1       -0.3510
@<TRIPOS>BOND
     1    18    19    1
     2    19    17    1
     3     1    17    1
     4     1     2    1
     5     2     3    1
     6     3     4    1
     7     4     5    1
     8     5     6    1
     9     6     9    1
    10     9    10   ar
    11    10    11   ar
    12    11    12   ar
    13    12    13    1
    14    12    14   ar
    15    14    15    1
    16    14    16   ar
    17     6     7    1
    18     6     1    1
    19    16     9   ar
    20     7     1    1
    21     3     8    1
@<TRIPOS>MOLECULE
*****
 19 21 0 0 0
SMALL
GASTEIGER

@<TRIPOS>ATOM
      1 C         -11.5116  -18.0736   22.2850 C.3     1  UNL1        0.0457
      2 C         -10.4052  -18.2285   23.2859 C.3     1  UNL1        0.0712
      3 N          -9.1014  -18.8445   22.8731 N.3     1  UNL1       -0.2974
      4 C          -8.9039  -19.3056   21.4595 C.3     1  UNL1        0.0689
      5 C         -10.0103  -19.1507   20.4586 C.3     1  UNL1        0.0212
      6 C         -11.3142  -18.5347   20.8713 C.3     1  UNL1        0.0239
      7 C         -12.6181  -17.9187   21.2840 C.3     1  UNL1        0.0083
      8 H          -8.9578  -19.6583   23.4711 H       1  UNL1        0.1232
      9 C         -10.7894  -18.3580   22.2653 C.ar    1  UNL1       -0.0217
     10 C         -10.9216  -19.4701   23.2632 C.ar    1  UNL1       -0.0034
     11 C         -10.3969  -19.2933   24.6572 C.ar    1  UNL1        0.0119
     12 C          -9.7398  -18.0044   25.0534 C.ar    1  UNL1        0.0682
     13 CL         -9.2150  -17.8277   26.4475 Cl      1  UNL1       -0.0814
     14 C          -9.6075  -16.8923   24.0556 C.ar    1  UNL1        0.0679
     15 CL         -8.9504  -15.6034   24.4518 Cl      1  UNL1       -0.0814
     16 C         -10.1323  -17.0691   22.6615 C.ar    1  UNL1        0.0080
     17 C         -12.3785  -17.4518   23.3394 C.3     1  UNL1        0.1438
     18 C         -14.2345  -18.4005   24.8903 C.3     1  UNL1        0.1741
     19 O         -13.7842  -17.9366   23.5367 O.3     1  UNL1       -0.3510
@<TRIPOS>BOND
     1    18    19    1
     2    19    17    1
     3     1    17    1
     4     1     2    1
     5     2     3    1
     6     3     4    1
     7     4     5    1
     8     5     6    1
     9     6     9    1
    10     9    10   ar
    11    10    11   ar
    12    11    12   ar
    13    12    13    1
    14    12    14   ar
    15    14    15    1
    16    14    16   ar
    17     6     7    1
    18     6     1    1
    19    16     9   ar
    20     7     1    1
    21     3     8    1
@<TRIPOS>MOLECULE
*****
 19 21 0 0 0
SMALL
GASTEIGER

@<TRIPOS>ATOM
      1 C          -9.0672  -18.2286   22.4411 C.3     1  UNL1        0.0457
      2 C         -10.5486  -18.4439   22.5363 C.3     1  UNL1        0.0712
      3 N         -11.2831  -19.1124   21.4122 N.3     1  UNL1       -0.2974
      4 C         -10.5362  -19.5655   20.1929 C.3     1  UNL1        0.0689
      5 C          -9.0548  -19.3503   20.0977 C.3     1  UNL1        0.0212
      6 C          -8.3203  -18.6818   21.2218 C.3     1  UNL1        0.0239
      7 C          -7.5858  -18.0133   22.3460 C.3     1  UNL1        0.0083
      8 H         -11.9953  -18.4552   21.0939 H       1  UNL1        0.1232
      9 C          -9.6068  -18.5445   21.9807 C.ar    1  UNL1       -0.0217
     10 C         -10.0629  -19.6472   22.8896 C.ar    1  UNL1       -0.0034
     11 C         -11.3494  -19.5099   23.6485 C.ar    1  UNL1        0.0119
     12 C         -12.1799  -18.2699   23.4986 C.ar    1  UNL1        0.0682
     13 CL        -13.4665  -18.1326   24.2576 Cl      1  UNL1       -0.0814
     14 C         -11.7240  -17.1671   22.5897 C.ar    1  UNL1        0.0679
     15 CL        -12.5545  -15.9271   22.4398 Cl      1  UNL1       -0.0814
     16 C         -10.4374  -17.3044   21.8308 C.ar    1  UNL1        0.0080
     17 C          -9.0744  -17.5811   23.7941 C.3     1  UNL1        0.1438
     18 C          -8.3390  -15.4834   25.1391 C.3     1  UNL1        0.1741
     19 O          -8.0305  -16.5621   24.1434 O.3     1  UNL1       -0.3510
@<TRIPOS>BOND
     1    18    19    1
     2    19    17    1
     3     1    17    1
     4     1     2    1
     5     2     3    1
     6     3     4    1
     7     4     5    1
     8     5     6    1
     9     6     9    1
    10     9    10   ar
    11    10    11   ar
    12    11    12   ar
    13    12    13    1
    14    12    14   ar
    15    14    15    1
    16    14    16   ar
    17     6     7    1
    18     6     1    1
    19    16     9   ar
    20     7     1    1
    21     3     8    1
@<TRIPOS>MOLECULE
*****
 19 21 0 0 0
SMALL
GASTEIGER

@<TRIPOS>ATOM
      1 C         -10.1406  -18.5115   22.8445 C.3     1  UNL1        0.0457
      2 C          -9.6543  -17.1248   23.1457 C.3     1  UNL1        0.0712
      3 N         -10.5970  -15.9621   23.0495 N.3     1  UNL1       -0.2974
      4 C         -12.0260  -16.1860   22.6521 C.3     1  UNL1        0.0689
      5 C         -12.5123  -17.5726   22.3509 C.3     1  UNL1        0.0212
      6 C         -11.5696  -18.7353   22.4471 C.3     1  UNL1        0.0239
      7 C         -10.6269  -19.8982   22.5432 C.3     1  UNL1        0.0083
      8 H         -10.1994  -15.3163   22.3674 H       1  UNL1        0.1232
      9 C         -10.4638  -17.8055   22.8504 C.ar    1  UNL1       -0.0217
     10 C          -9.6797  -17.0733   21.8020 C.ar    1  UNL1       -0.0034
     11 C          -8.5740  -16.1435   22.2054 C.ar    1  UNL1        0.0119
     12 C          -8.2523  -15.9458   23.6571 C.ar    1  UNL1        0.0682
     13 CL         -7.1465  -15.0159   24.0604 Cl      1  UNL1       -0.0814
     14 C          -9.0364  -16.6779   24.7054 C.ar    1  UNL1        0.0679
     15 CL         -8.7148  -16.4802   26.1572 Cl      1  UNL1       -0.0814
     16 C         -10.1422  -17.6078   24.3021 C.ar    1  UNL1        0.0080
     17 C          -8.7714  -19.0535   23.1294 C.3     1  UNL1        0.1438
     18 C          -6.6373  -19.8984   21.9120 C.3     1  UNL1        0.1741
     19 O          -8.1152  -19.9847   22.1535 O.3     1  UNL1       -0.3510
@<TRIPOS>BOND
     1    18    19    1
     2    19    17    1
     3     1    17    1
     4     1     2    1
     5     2     3    1
     6     3     4    1
     7     4     5    1
     8     5     6    1
     9     6     9    1
    10     9    10   ar
    11    10    11   ar
    12    11    12   ar
    13    12    13    1
    14    12    14   ar
    15    14    15    1
    16    14    16   ar
    17     6     7    1
    18     6     1    1
    19    16     9   ar
    20     7     1    1
    21     3     8    1
@<TRIPOS>MOLECULE
*****
 19 21 0 0 0
SMALL
GASTEIGER

@<TRIPOS>ATOM
      1 C         -10.4394  -17.7768   22.6121 C.3     1  UNL1        0.0457
      2 C          -9.2490  -18.5660   22.1540 C.3     1  UNL1        0.0712
      3 N          -8.8802  -19.8408   22.8532 N.3     1  UNL1       -0.2974
      4 C          -9.7018  -20.3262   24.0105 C.3     1  UNL1        0.0689
      5 C         -10.8922  -19.5370   24.4685 C.3     1  UNL1        0.0212
      6 C         -11.2610  -18.2622   23.7693 C.3     1  UNL1        0.0239
      7 C         -11.6299  -16.9874   23.0701 C.3     1  UNL1        0.0083
      8 H          -7.9274  -19.7227   23.1976 H       1  UNL1        0.1232
      9 C         -10.0994  -18.4377   22.8368 C.ar    1  UNL1       -0.0217
     10 C          -8.7437  -17.9244   23.2225 C.ar    1  UNL1       -0.0034
     11 C          -7.5821  -18.0998   22.2899 C.ar    1  UNL1        0.0119
     12 C          -7.7760  -18.7885   20.9716 C.ar    1  UNL1        0.0682
     13 CL         -6.6143  -18.9639   20.0390 Cl      1  UNL1       -0.0814
     14 C          -9.1316  -19.3018   20.5858 C.ar    1  UNL1        0.0679
     15 CL         -9.3255  -19.9905   19.2675 Cl      1  UNL1       -0.0814
     16 C         -10.2933  -19.1264   21.5184 C.ar    1  UNL1        0.0080
     17 C         -10.1780  -16.7605   21.5402 C.3     1  UNL1        0.1438
     18 C         -11.5945  -15.8473   19.5629 C.3     1  UNL1        0.1741
     19 O         -11.2977  -15.9012   21.0323 O.3     1  UNL1       -0.3510
@<TRIPOS>BOND
     1    18    19    1
     2    19    17    1
     3     1    17    1
     4     1     2    1
     5     2     3    1
     6     3     4    1
     7     4     5    1
     8     5     6    1
     9     6     9    1
    10     9    10   ar
    11    10    11   ar
    12    11    12   ar
    13    12    13    1
    14    12    14   ar
    15    14    15    1
    16    14    16   ar
    17     6     7    1
    18     6     1    1
    19    16     9   ar
    20     7     1    1
    21     3     8    1
