@<TRIPOS>MOLECULE
*****
 26 28 0 0 0
SMALL
GASTEIGER

@<TRIPOS>ATOM
      1 C          -7.5755  -18.7483   22.5655 C.ar    1  UNL1        0.0019
      2 C          -8.2383  -20.0307   22.9730 C.ar    1  UNL1        0.0032
      3 C          -9.5143  -19.9981   23.7608 C.ar    1  UNL1        0.0369
      4 C         -10.1276  -18.6832   24.1411 C.ar    1  UNL1        0.1386
      5 C          -9.4648  -17.4008   23.7336 C.ar    1  UNL1        0.0369
      6 C          -8.1888  -17.4334   22.9458 C.ar    1  UNL1        0.0032
      7 N          -3.7473  -18.8461   20.2021 N.ar    1  UNL1       -0.1862
      8 N          -5.0678  -18.9199   19.4944 N.ar    1  UNL1       -0.1630
      9 C          -6.3438  -18.8873   20.2822 C.ar    1  UNL1        0.1204
     10 C          -6.2994  -18.7809   21.7777 C.ar    1  UNL1        0.0257
     11 C          -4.9790  -18.7072   22.4854 C.ar    1  UNL1        0.0639
     12 C          -3.7029  -18.7398   21.6976 C.ar    1  UNL1        0.2786
     13 O          -2.3824  -18.6660   22.4055 O.2     1  UNL1       -0.2654
     14 C          -2.4713  -18.8787   19.4143 C.3     1  UNL1        0.2761
     15 C          -0.2080  -17.6805   19.8521 C.3     1  UNL1        0.1765
     16 O          -1.6126  -17.6520   19.3265 O.3     1  UNL1       -0.3284
     17 O         -11.4037  -18.6506   24.9289 O.3     1  UNL1       -0.4754
     18 C         -12.7238  -18.6233   24.2174 C.3     1  UNL1        0.2068
     19 C         -13.0158  -17.5421   23.2195 C.3     1  UNL1        0.0646
     20 C         -13.1361  -17.8787   21.7626 C.3     1  UNL1        0.0759
     21 N         -11.9253  -18.3121   20.9906 N.3     1  UNL1       -0.2738
     22 C         -11.4145  -19.7171   20.8673 C.3     1  UNL1        0.0721
     23 C         -10.1862  -19.6900   20.0068 C.3     1  UNL1        0.0187
     24 C          -9.9378  -18.2682   19.5982 C.3     1  UNL1        0.0174
     25 C         -11.0127  -17.4167   20.2062 C.3     1  UNL1        0.0576
     26 C         -11.1506  -15.9306   20.0561 C.3     1  UNL1        0.0173
@<TRIPOS>BOND
     1    15    16    1
     2    16    14    1
     3    14     7    1
     4     7     8   ar
     5     8     9   ar
     6     9    10   ar
     7    10     1    1
     8     1     2   ar
     9     2     3   ar
    10     3     4   ar
    11     4    17    1
    12    17    18    1
    13    18    19    1
    14    19    20    1
    15    20    21    1
    16    21    22    1
    17    22    23    1
    18    23    24    1
    19    24    25    1
    20    25    26    1
    21     4     5   ar
    22     5     6   ar
    23    10    11   ar
    24    11    12   ar
    25    12    13    2
    26    12     7   ar
    27     6     1   ar
    28    25    21    1
@<TRIPOS>MOLECULE
*****
 26 28 0 0 0
SMALL
GASTEIGER

@<TRIPOS>ATOM
      1 C          -7.6563  -19.5459   21.3569 C.ar    1  UNL1        0.0019
      2 C          -8.4214  -19.3403   20.0832 C.ar    1  UNL1        0.0032
      3 C          -9.9212  -19.3319   20.1021 C.ar    1  UNL1        0.0369
      4 C         -10.6561  -19.5293   21.3948 C.ar    1  UNL1        0.1386
      5 C          -9.8910  -19.7349   22.6685 C.ar    1  UNL1        0.0369
      6 C          -8.3912  -19.7433   22.6495 C.ar    1  UNL1        0.0032
      7 N          -3.1568  -19.5710   21.3000 N.ar    1  UNL1       -0.1862
      8 N          -3.9239  -20.4108   20.3221 N.ar    1  UNL1       -0.1630
      9 C          -5.4237  -20.4024   20.3411 C.ar    1  UNL1        0.1204
     10 C          -6.1565  -19.5543   21.3379 C.ar    1  UNL1        0.0257
     11 C          -5.3894  -18.7145   22.3157 C.ar    1  UNL1        0.0639
     12 C          -3.8895  -18.7228   22.2968 C.ar    1  UNL1        0.2786
     13 O          -3.1224  -17.8829   23.2747 O.2     1  UNL1       -0.2654
     14 C          -1.6569  -19.5793   21.2810 C.3     1  UNL1        0.2761
     15 C          -1.5384  -17.7126   19.4779 C.3     1  UNL1        0.1765
     16 O          -0.9170  -18.8860   20.1757 O.3     1  UNL1       -0.3284
     17 O         -12.1559  -19.5209   21.4138 O.3     1  UNL1       -0.4754
     18 C         -12.8964  -18.2300   21.6010 C.3     1  UNL1        0.2068
     19 C         -12.8852  -17.5457   22.9357 C.3     1  UNL1        0.0646
     20 C         -12.1634  -16.2415   23.1038 C.3     1  UNL1        0.0759
     21 N         -10.6705  -16.1878   22.9687 N.3     1  UNL1       -0.2738
     22 C          -9.6775  -16.3727   24.0777 C.3     1  UNL1        0.0721
     23 C          -8.3017  -16.2390   23.4953 C.3     1  UNL1        0.0187
     24 C          -8.4443  -15.9713   22.0262 C.3     1  UNL1        0.0174
     25 C          -9.9083  -15.9397   21.7008 C.3     1  UNL1        0.0576
     26 C         -10.5052  -15.7018   20.3454 C.3     1  UNL1        0.0173
@<TRIPOS>BOND
     1    15    16    1
     2    16    14    1
     3    14     7    1
     4     7     8   ar
     5     8     9   ar
     6     9    10   ar
     7    10     1    1
     8     1     2   ar
     9     2     3   ar
    10     3     4   ar
    11     4    17    1
    12    17    18    1
    13    18    19    1
    14    19    20    1
    15    20    21    1
    16    21    22    1
    17    22    23    1
    18    23    24    1
    19    24    25    1
    20    25    26    1
    21     4     5   ar
    22     5     6   ar
    23    10    11   ar
    24    11    12   ar
    25    12    13    2
    26    12     7   ar
    27     6     1   ar
    28    25    21    1
@<TRIPOS>MOLECULE
*****
 26 28 0 0 0
SMALL
GASTEIGER

@<TRIPOS>ATOM
      1 C          -8.1313  -18.8819   23.0181 C.ar    1  UNL1        0.0019
      2 C          -8.7779  -17.5487   23.2513 C.ar    1  UNL1        0.0032
      3 C         -10.1292  -17.4735   23.8981 C.ar    1  UNL1        0.0369
      4 C         -10.8338  -18.7315   24.3116 C.ar    1  UNL1        0.1386
      5 C         -10.1872  -20.0646   24.0784 C.ar    1  UNL1        0.0369
      6 C          -8.8359  -20.1398   23.4316 C.ar    1  UNL1        0.0032
      7 N          -4.0774  -19.1075   21.0777 N.ar    1  UNL1       -0.1862
      8 N          -4.3732  -18.0250   22.0730 N.ar    1  UNL1       -0.1630
      9 C          -5.7245  -17.9498   22.7198 C.ar    1  UNL1        0.1204
     10 C          -6.7800  -18.9571   22.3713 C.ar    1  UNL1        0.0257
     11 C          -6.4841  -20.0395   21.3759 C.ar    1  UNL1        0.0639
     12 C          -5.1328  -20.1147   20.7291 C.ar    1  UNL1        0.2786
     13 O          -4.8369  -21.1972   19.7337 O.2     1  UNL1       -0.2654
     14 C          -2.7261  -19.1827   20.4309 C.3     1  UNL1        0.2761
     15 C          -0.7128  -17.5690   20.1268 C.3     1  UNL1        0.1765
     16 O          -1.5725  -18.4208   21.0129 O.3     1  UNL1       -0.3284
     17 O         -12.1851  -18.6563   24.9584 O.3     1  UNL1       -0.4754
     18 C         -13.3655  -18.1640   24.1746 C.3     1  UNL1        0.2068
     19 C         -13.1595  -17.2502   23.0031 C.3     1  UNL1        0.0646
     20 C         -13.2341  -17.7927   21.6065 C.3     1  UNL1        0.0759
     21 N         -11.9865  -18.2546   20.9137 N.3     1  UNL1       -0.2738
     22 C         -11.4645  -19.6605   20.8822 C.3     1  UNL1        0.0721
     23 C         -10.1972  -19.6666   20.0798 C.3     1  UNL1        0.0187
     24 C          -9.9359  -18.2644   19.6154 C.3     1  UNL1        0.0174
     25 C         -11.0417  -17.3918   20.1308 C.3     1  UNL1        0.0576
     26 C         -11.1787  -15.9155   19.9032 C.3     1  UNL1        0.0173
@<TRIPOS>BOND
     1    15    16    1
     2    16    14    1
     3    14     7    1
     4     7     8   ar
     5     8     9   ar
     6     9    10   ar
     7    10     1    1
     8     1     2   ar
     9     2     3   ar
    10     3     4   ar
    11     4    17    1
    12    17    18    1
    13    18    19    1
    14    19    20    1
    15    20    21    1
    16    21    22    1
    17    22    23    1
    18    23    24    1
    19    24    25    1
    20    25    26    1
    21     4     5   ar
    22     5     6   ar
    23    10    11   ar
    24    11    12   ar
    25    12    13    2
    26    12     7   ar
    27     6     1   ar
    28    25    21    1
@<TRIPOS>MOLECULE
*****
 26 28 0 0 0
SMALL
GASTEIGER

@<TRIPOS>ATOM
      1 C          -4.2359  -16.4846   24.0584 C.ar    1  UNL1        0.0019
      2 C          -4.1293  -17.0671   25.4366 C.ar    1  UNL1        0.0032
      3 C          -5.0574  -16.6042   26.5203 C.ar    1  UNL1        0.0369
      4 C          -6.0920  -15.5588   26.2258 C.ar    1  UNL1        0.1386
      5 C          -6.1985  -14.9763   24.8477 C.ar    1  UNL1        0.0369
      6 C          -5.2705  -15.4392   23.7640 C.ar    1  UNL1        0.0032
      7 N          -1.4517  -17.8733   20.8073 N.ar    1  UNL1       -0.1862
      8 N          -1.6280  -16.4067   21.0680 N.ar    1  UNL1       -0.1630
      9 C          -2.5561  -15.9438   22.1517 C.ar    1  UNL1        0.1204
     10 C          -3.3078  -16.9475   22.9747 C.ar    1  UNL1        0.0257
     11 C          -3.1315  -18.4141   22.7140 C.ar    1  UNL1        0.0639
     12 C          -2.2034  -18.8769   21.6303 C.ar    1  UNL1        0.2786
     13 O          -2.0271  -20.3436   21.3697 O.2     1  UNL1       -0.2654
     14 C          -0.5236  -18.3361   19.7236 C.3     1  UNL1        0.2761
     15 C          -2.1996  -17.5211   17.9134 C.3     1  UNL1        0.1765
     16 O          -0.8470  -18.0513   18.2869 O.3     1  UNL1       -0.3284
     17 O          -7.0201  -15.0959   27.3096 O.3     1  UNL1       -0.4754
     18 C          -8.3777  -15.7179   27.4507 C.3     1  UNL1        0.2068
     19 C          -8.7238  -16.9491   26.6668 C.3     1  UNL1        0.0646
     20 C          -9.2444  -16.8243   25.2656 C.3     1  UNL1        0.0759
     21 N          -9.5390  -18.0564   24.4624 N.3     1  UNL1       -0.2738
     22 C         -10.5638  -19.1005   24.7935 C.3     1  UNL1        0.0721
     23 C         -10.5188  -20.1502   23.7229 C.3     1  UNL1        0.0187
     24 C          -9.4660  -19.7549   22.7302 C.3     1  UNL1        0.0174
     25 C          -8.8605  -18.4609   23.1873 C.3     1  UNL1        0.0576
     26 C          -7.7683  -17.7041   22.4913 C.3     1  UNL1        0.0173
@<TRIPOS>BOND
     1    15    16    1
     2    16    14    1
     3    14     7    1
     4     7     8   ar
     5     8     9   ar
     6     9    10   ar
     7    10     1    1
     8     1     2   ar
     9     2     3   ar
    10     3     4   ar
    11     4    17    1
    12    17    18    1
    13    18    19    1
    14    19    20    1
    15    20    21    1
    16    21    22    1
    17    22    23    1
    18    23    24    1
    19    24    25    1
    20    25    26    1
    21     4     5   ar
    22     5     6   ar
    23    10    11   ar
    24    11    12   ar
    25    12    13    2
    26    12     7   ar
    27     6     1   ar
    28    25    21    1
@<TRIPOS>MOLECULE
*****
 26 28 0 0 0
SMALL
GASTEIGER

@<TRIPOS>ATOM
      1 C          -7.5947  -17.2718   22.6297 C.ar    1  UNL1        0.0019
      2 C          -8.0174  -16.8401   24.0026 C.ar    1  UNL1        0.0032
      3 C          -9.3724  -16.2323   24.2138 C.ar    1  UNL1        0.0369
      4 C         -10.3047  -16.0562   23.0520 C.ar    1  UNL1        0.1386
      5 C          -9.8820  -16.4879   21.6791 C.ar    1  UNL1        0.0369
      6 C          -8.5270  -17.0957   21.4679 C.ar    1  UNL1        0.0032
      7 N          -3.5296  -19.0950   21.9963 N.ar    1  UNL1       -0.1862
      8 N          -3.7075  -17.9858   22.9902 N.ar    1  UNL1       -0.1630
      9 C          -5.0625  -17.3781   23.2014 C.ar    1  UNL1        0.1204
     10 C          -6.2396  -17.8795   22.4186 C.ar    1  UNL1        0.0257
     11 C          -6.0618  -18.9887   21.4246 C.ar    1  UNL1        0.0639
     12 C          -4.7068  -19.5965   21.2134 C.ar    1  UNL1        0.2786
     13 O          -4.5290  -20.7057   20.2194 O.2     1  UNL1       -0.2654
     14 C          -2.1746  -19.7028   21.7851 C.3     1  UNL1        0.2761
     15 C          -0.9300  -17.9272   20.3540 C.3     1  UNL1        0.1765
     16 O          -1.3729  -19.3440   20.5692 O.3     1  UNL1       -0.3284
     17 O         -11.6597  -15.4485   23.2631 O.3     1  UNL1       -0.4754
     18 C         -12.8222  -15.8997   22.4296 C.3     1  UNL1        0.2068
     19 C         -12.9579  -17.3449   22.0516 C.3     1  UNL1        0.0646
     20 C         -12.9859  -18.3997   23.1179 C.3     1  UNL1        0.0759
     21 N         -11.7174  -19.0894   23.5241 N.3     1  UNL1       -0.2738
     22 C         -11.1655  -19.1718   24.9165 C.3     1  UNL1        0.0721
     23 C          -9.8850  -19.9511   24.8622 C.3     1  UNL1        0.0187
     24 C          -9.6454  -20.3503   23.4363 C.3     1  UNL1        0.0174
     25 C         -10.7779  -19.8177   22.6093 C.3     1  UNL1        0.0576
     26 C         -10.9420  -19.9842   21.1276 C.3     1  UNL1        0.0173
@<TRIPOS>BOND
     1    15    16    1
     2    16    14    1
     3    14     7    1
     4     7     8   ar
     5     8     9   ar
     6     9    10   ar
     7    10     1    1
     8     1     2   ar
     9     2     3   ar
    10     3     4   ar
    11     4    17    1
    12    17    18    1
    13    18    19    1
    14    19    20    1
    15    20    21    1
    16    21    22    1
    17    22    23    1
    18    23    24    1
    19    24    25    1
    20    25    26    1
    21     4     5   ar
    22     5     6   ar
    23    10    11   ar
    24    11    12   ar
    25    12    13    2
    26    12     7   ar
    27     6     1   ar
    28    25    21    1
@<TRIPOS>MOLECULE
*****
 26 28 0 0 0
SMALL
GASTEIGER

@<TRIPOS>ATOM
      1 C           2.2525    1.3467   18.5482 C.ar    1  UNL1        0.0019
      2 C           2.2401    0.0713   17.7588 C.ar    1  UNL1        0.0032
      3 C           3.5279   -0.5158   17.2620 C.ar    1  UNL1        0.0369
      4 C           4.8281    0.1724   17.5546 C.ar    1  UNL1        0.1386
      5 C           4.8406    1.4477   18.3440 C.ar    1  UNL1        0.0369
      6 C           3.5528    2.0349   18.8408 C.ar    1  UNL1        0.0032
      7 N          -1.6108    3.1082   20.0386 N.ar    1  UNL1       -0.1862
      8 N          -0.9313    2.0223   20.8189 N.ar    1  UNL1       -0.1630
      9 C           0.3564    1.4351   20.3221 C.ar    1  UNL1        0.1204
     10 C           0.9648    1.9339   19.0450 C.ar    1  UNL1        0.0257
     11 C           0.2853    3.0198   18.2646 C.ar    1  UNL1        0.0639
     12 C          -1.0025    3.6070   18.7614 C.ar    1  UNL1        0.2786
     13 O          -1.6820    4.6930   17.9810 O.2     1  UNL1       -0.2654
     14 C          -2.8986    3.6954   20.5354 C.3     1  UNL1        0.2761
     15 C          -4.7267    3.1422   22.2966 C.3     1  UNL1        0.1765
     16 O          -3.9887    2.7957   21.0376 O.3     1  UNL1       -0.3284
     17 O           6.1159   -0.4148   17.0577 O.3     1  UNL1       -0.4754
     18 C           7.1428   -0.9054   18.0349 C.3     1  UNL1        0.2068
     19 C           7.0906   -2.3201   18.5307 C.3     1  UNL1        0.0646
     20 C           6.6275   -2.6085   19.9281 C.3     1  UNL1        0.0759
     21 N           5.3775   -1.9655   20.4517 N.3     1  UNL1       -0.2738
     22 C           5.3116   -0.7470   21.3239 C.3     1  UNL1        0.0721
     23 C           3.8673   -0.4565   21.6062 C.3     1  UNL1        0.0187
     24 C           3.0406   -1.4956   20.9084 C.3     1  UNL1        0.0174
     25 C           3.9740   -2.4281   20.1949 C.3     1  UNL1        0.0576
     26 C           3.5739   -3.6150   19.3695 C.3     1  UNL1        0.0173
@<TRIPOS>BOND
     1    15    16    1
     2    16    14    1
     3    14     7    1
     4     7     8   ar
     5     8     9   ar
     6     9    10   ar
     7    10     1    1
     8     1     2   ar
     9     2     3   ar
    10     3     4   ar
    11     4    17    1
    12    17    18    1
    13    18    19    1
    14    19    20    1
    15    20    21    1
    16    21    22    1
    17    22    23    1
    18    23    24    1
    19    24    25    1
    20    25    26    1
    21     4     5   ar
    22     5     6   ar
    23    10    11   ar
    24    11    12   ar
    25    12    13    2
    26    12     7   ar
    27     6     1   ar
    28    25    21    1
@<TRIPOS>MOLECULE
*****
 26 28 0 0 0
SMALL
GASTEIGER

@<TRIPOS>ATOM
      1 C           6.6687   -3.6122   20.4359 C.ar    1  UNL1        0.0019
      2 C           5.2713   -3.9868   20.0401 C.ar    1  UNL1        0.0032
      3 C           4.6170   -3.3135   18.8703 C.ar    1  UNL1        0.0369
      4 C           5.3602   -2.2655   18.0962 C.ar    1  UNL1        0.1386
      5 C           6.7577   -1.8908   18.4920 C.ar    1  UNL1        0.0369
      6 C           7.4119   -2.5641   19.6618 C.ar    1  UNL1        0.0032
      7 N           8.6315   -5.6322   23.9455 N.ar    1  UNL1       -0.1862
      8 N           9.2450   -5.7365   22.5807 N.ar    1  UNL1       -0.1630
      9 C           8.5907   -5.0631   21.4108 C.ar    1  UNL1        0.1204
     10 C           7.3230   -4.2855   21.6057 C.ar    1  UNL1        0.0257
     11 C           6.7094   -4.1813   22.9705 C.ar    1  UNL1        0.0639
     12 C           7.3637   -4.8546   24.1404 C.ar    1  UNL1        0.2786
     13 O           6.7501   -4.7503   25.5052 O.2     1  UNL1       -0.2654
     14 C           9.2857   -6.3056   25.1153 C.3     1  UNL1        0.2761
     15 C           7.7466   -8.0166   26.3209 C.3     1  UNL1        0.1765
     16 O           8.9366   -7.7240   25.4558 O.3     1  UNL1       -0.3284
     17 O           4.7060   -1.5921   16.9263 O.3     1  UNL1       -0.4754
     18 C           3.8107   -0.4089   17.1464 C.3     1  UNL1        0.2068
     19 C           4.3347    0.8074   17.8506 C.3     1  UNL1        0.0646
     20 C           3.7908    1.1877   19.1959 C.3     1  UNL1        0.0759
     21 N           3.9160    0.2389   20.3510 N.3     1  UNL1       -0.2738
     22 C           5.1243    0.0656   21.2227 C.3     1  UNL1        0.0721
     23 C           4.8099   -0.9836   22.2476 C.3     1  UNL1        0.0187
     24 C           3.4073   -1.4588   22.0093 C.3     1  UNL1        0.0174
     25 C           2.8548   -0.7032   20.8371 C.3     1  UNL1        0.0576
     26 C           1.4821   -0.8619   20.2535 C.3     1  UNL1        0.0173
@<TRIPOS>BOND
     1    15    16    1
     2    16    14    1
     3    14     7    1
     4     7     8   ar
     5     8     9   ar
     6     9    10   ar
     7    10     1    1
     8     1     2   ar
     9     2     3   ar
    10     3     4   ar
    11     4    17    1
    12    17    18    1
    13    18    19    1
    14    19    20    1
    15    20    21    1
    16    21    22    1
    17    22    23    1
    18    23    24    1
    19    24    25    1
    20    25    26    1
    21     4     5   ar
    22     5     6   ar
    23    10    11   ar
    24    11    12   ar
    25    12    13    2
    26    12     7   ar
    27     6     1   ar
    28    25    21    1
@<TRIPOS>MOLECULE
*****
 26 28 0 0 0
SMALL
GASTEIGER

@<TRIPOS>ATOM
      1 C           5.2838   -1.7602   22.5984 C.ar    1  UNL1        0.0019
      2 C           3.8067   -1.8207   22.3449 C.ar    1  UNL1        0.0032
      3 C           3.1552   -0.8003   21.4593 C.ar    1  UNL1        0.0369
      4 C           3.9809    0.2807   20.8271 C.ar    1  UNL1        0.1386
      5 C           5.4581    0.3412   21.0806 C.ar    1  UNL1        0.0369
      6 C           6.1096   -0.6792   21.9662 C.ar    1  UNL1        0.0032
      7 N           7.2382   -4.8214   25.2553 N.ar    1  UNL1       -0.1862
      8 N           6.5697   -3.6219   25.8588 N.ar    1  UNL1       -0.1630
      9 C           5.9183   -2.6015   24.9732 C.ar    1  UNL1        0.1204
     10 C           5.9353   -2.7806   23.4840 C.ar    1  UNL1        0.0257
     11 C           6.6038   -3.9801   22.8805 C.ar    1  UNL1        0.0639
     12 C           7.2552   -5.0005   23.7662 C.ar    1  UNL1        0.2786
     13 O           7.9237   -6.2001   23.1626 O.2     1  UNL1       -0.2654
     14 C           7.8897   -5.8419   26.1409 C.3     1  UNL1        0.2761
     15 C           8.0900   -8.3297   26.8621 C.3     1  UNL1        0.1765
     16 O           7.2803   -7.2044   26.2896 O.3     1  UNL1       -0.3284
     17 O           3.3295    1.3011   19.9415 O.3     1  UNL1       -0.4754
     18 C           3.4454    1.1837   18.4506 C.3     1  UNL1        0.2068
     19 C           2.9675   -0.0573   17.7566 C.3     1  UNL1        0.0646
     20 C           3.9460   -0.9394   17.0392 C.3     1  UNL1        0.0759
     21 N           5.0719   -1.5805   17.7949 N.3     1  UNL1       -0.2738
     22 C           6.5062   -1.1416   17.7804 C.3     1  UNL1        0.0721
     23 C           7.2820   -2.0630   18.6744 C.3     1  UNL1        0.0187
     24 C           6.3272   -3.0714   19.2414 C.3     1  UNL1        0.0174
     25 C           4.9613   -2.7732   18.6978 C.3     1  UNL1        0.0576
     26 C           3.7054   -3.5341   19.0036 C.3     1  UNL1        0.0173
@<TRIPOS>BOND
     1    15    16    1
     2    16    14    1
     3    14     7    1
     4     7     8   ar
     5     8     9   ar
     6     9    10   ar
     7    10     1    1
     8     1     2   ar
     9     2     3   ar
    10     3     4   ar
    11     4    17    1
    12    17    18    1
    13    18    19    1
    14    19    20    1
    15    20    21    1
    16    21    22    1
    17    22    23    1
    18    23    24    1
    19    24    25    1
    20    25    26    1
    21     4     5   ar
    22     5     6   ar
    23    10    11   ar
    24    11    12   ar
    25    12    13    2
    26    12     7   ar
    27     6     1   ar
    28    25    21    1
@<TRIPOS>MOLECULE
*****
 26 28 0 0 0
SMALL
GASTEIGER

@<TRIPOS>ATOM
      1 C           2.2777    0.5454   22.0209 C.ar    1  UNL1        0.0019
      2 C           1.5037   -0.4335   21.1888 C.ar    1  UNL1        0.0032
      3 C           1.7653   -0.5372   19.7155 C.ar    1  UNL1        0.0369
      4 C           2.8009    0.3381   19.0742 C.ar    1  UNL1        0.1386
      5 C           3.5749    1.3170   19.9063 C.ar    1  UNL1        0.0369
      6 C           3.3133    1.4207   21.3797 C.ar    1  UNL1        0.0032
      7 N           1.4929    0.8565   26.4410 N.ar    1  UNL1       -0.1862
      8 N           2.7976    0.3046   25.9480 N.ar    1  UNL1       -0.1630
      9 C           3.0592    0.2009   24.4746 C.ar    1  UNL1        0.1204
     10 C           2.0161    0.6491   23.4943 C.ar    1  UNL1        0.0257
     11 C           0.7114    1.2009   23.9874 C.ar    1  UNL1        0.0639
     12 C           0.4498    1.3046   25.4607 C.ar    1  UNL1        0.2786
     13 O          -0.8550    1.8565   25.9538 O.2     1  UNL1       -0.2654
     14 C           1.2313    0.9601   27.9144 C.3     1  UNL1        0.2761
     15 C          -0.8678   -0.3270   28.7434 C.3     1  UNL1        0.1765
     16 O           0.6237   -0.1964   28.6515 O.3     1  UNL1       -0.3284
     17 O           3.0625    0.2344   17.6008 O.3     1  UNL1       -0.4754
     18 C           3.9738   -0.8343   17.0743 C.3     1  UNL1        0.2068
     19 C           5.4163   -0.8593   17.4848 C.3     1  UNL1        0.0646
     20 C           5.9318   -1.9738   18.3463 C.3     1  UNL1        0.0759
     21 N           5.4649   -2.1018   19.7661 N.3     1  UNL1       -0.2738
     22 C           5.9801   -1.3192   20.9375 C.3     1  UNL1        0.0721
     23 C           5.2345   -1.7685   22.1591 C.3     1  UNL1        0.0187
     24 C           4.2586   -2.8287   21.7427 C.3     1  UNL1        0.0174
     25 C           4.4010   -3.0347   20.2637 C.3     1  UNL1        0.0576
     26 C           3.6170   -4.0035   19.4290 C.3     1  UNL1        0.0173
@<TRIPOS>BOND
     1    15    16    1
     2    16    14    1
     3    14     7    1
     4     7     8   ar
     5     8     9   ar
     6     9    10   ar
     7    10     1    1
     8     1     2   ar
     9     2     3   ar
    10     3     4   ar
    11     4    17    1
    12    17    18    1
    13    18    19    1
    14    19    20    1
    15    20    21    1
    16    21    22    1
    17    22    23    1
    18    23    24    1
    19    24    25    1
    20    25    26    1
    21     4     5   ar
    22     5     6   ar
    23    10    11   ar
    24    11    12   ar
    25    12    13    2
    26    12     7   ar
    27     6     1   ar
    28    25    21    1
