@<TRIPOS>MOLECULE
*****
 32 35 0 0 0
SMALL
GASTEIGER

@<TRIPOS>ATOM
      1 C          -1.4531  -18.4123   21.9361 C.3     1  UNL1        0.0137
      2 C          -2.9464  -18.4173   22.0783 C.3     1  UNL1        0.0932
      3 C          -2.7321  -17.0797   22.7224 C.3     1  UNL1        0.0137
      4 C          -2.8485  -19.7539   21.4046 C.2     1  UNL1        0.2302
      5 O          -1.5846  -20.4218   20.9501 O.2     1  UNL1       -0.2744
      6 N          -4.2365  -20.3054   21.2650 N.am    1  UNL1       -0.2692
      7 C          -5.1922  -19.3096   21.8525 C.ar    1  UNL1        0.1363
      8 N          -6.6854  -19.3147   21.9948 N.ar    1  UNL1       -0.1951
      9 C          -7.3813  -18.1529   22.6396 C.ar    1  UNL1        0.2553
     10 N          -6.5839  -16.9860   23.1423 N.ar    1  UNL1       -0.1957
     11 C          -5.0907  -16.9809   23.0001 C.ar    1  UNL1        0.1276
     12 N          -4.2934  -15.8140   23.5027 N.pl3   1  UNL1       -0.3427
     13 C          -4.3949  -18.1427   22.3552 C.ar    1  UNL1        0.0484
     14 H          -4.4778  -21.1692   20.8591 H       1  UNL1        0.1563
     15 H          -4.7502  -15.0515   23.9260 H       1  UNL1        0.1437
     16 H          -3.3134  -15.8107   23.4094 H       1  UNL1        0.1437
     17 N          -8.8746  -18.1579   22.7818 N.ar    1  UNL1       -0.1967
     18 N          -9.6584  -18.8983   23.8246 N.ar    1  UNL1       -0.1670
     19 C         -11.1144  -18.6215   23.5936 C.ar    1  UNL1        0.0808
     20 C         -11.2304  -17.7099   22.4080 C.ar    1  UNL1        0.0339
     21 C         -12.4177  -17.1037   21.7203 C.ar    1  UNL1        0.0141
     22 C         -12.2207  -16.2111   20.5311 C.ar    1  UNL1        0.0578
     23 CL        -13.4081  -15.6049   19.8435 Cl      1  UNL1       -0.0822
     24 C         -10.8364  -15.9246   20.0294 C.ar    1  UNL1        0.0129
     25 C          -9.6491  -16.5308   20.7170 C.ar    1  UNL1        0.0202
     26 C          -9.8461  -17.4234   21.9063 C.ar    1  UNL1        0.0871
     27 C         -12.2542  -19.1614   24.4055 C.3     1  UNL1        0.0564
     28 C         -13.2943  -18.2284   24.9512 C.3     1  UNL1        0.1097
     29 C         -14.7503  -18.5318   24.7563 C.3     1  UNL1        0.3982
     30 F         -16.2063  -18.8353   24.5614 F       1  UNL1       -0.1700
     31 F         -14.9112  -18.7109   26.2369 F       1  UNL1       -0.1700
     32 F         -14.5894  -18.3528   23.2758 F       1  UNL1       -0.1700
@<TRIPOS>BOND
     1     1     2    1
     2     2     3    1
     3     2     4    1
     4     4     5    2
     5     4     6   am
     6     6     7    1
     7     7     8   ar
     8     8     9   ar
     9     9    17    1
    10    17    18   ar
    11    18    19   ar
    12    19    27    1
    13    27    28    1
    14    28    29    1
    15    29    30    1
    16    29    31    1
    17    29    32    1
    18    19    20   ar
    19    20    21   ar
    20    21    22   ar
    21    22    23    1
    22    22    24   ar
    23    24    25   ar
    24    25    26   ar
    25     9    10   ar
    26    10    11   ar
    27    11    12    1
    28    11    13   ar
    29    13     2    1
    30    13     7   ar
    31    26    17   ar
    32    26    20   ar
    33     6    14    1
    34    12    15    1
    35    12    16    1
@<TRIPOS>MOLECULE
*****
 32 35 0 0 0
SMALL
GASTEIGER

@<TRIPOS>ATOM
      1 C          -9.0636   -5.8048   18.6469 C.3     1  UNL1        0.0137
      2 C         -10.5537   -5.7364   18.8052 C.3     1  UNL1        0.0932
      3 C         -10.3090   -4.2680   18.9890 C.3     1  UNL1        0.0137
      4 C         -10.4868   -7.2192   18.5884 C.2     1  UNL1        0.2302
      5 O          -9.2411   -8.0202   18.3506 O.2     1  UNL1       -0.2744
      6 N         -11.8844   -7.7602   18.6510 N.am    1  UNL1       -0.2692
      7 C         -12.8151   -6.6119   18.9066 C.ar    1  UNL1        0.1363
      8 N         -14.3051   -6.5436   19.0648 N.ar    1  UNL1       -0.1951
      9 C         -14.9727   -5.2245   19.3184 C.ar    1  UNL1        0.2553
     10 N         -14.1502   -3.9737   19.4137 N.ar    1  UNL1       -0.1957
     11 C         -12.6602   -4.0420   19.2554 C.ar    1  UNL1        0.1276
     12 N         -11.8377   -2.7912   19.3507 N.pl3   1  UNL1       -0.3427
     13 C         -11.9926   -5.3611   19.0019 C.ar    1  UNL1        0.0484
     14 H         -12.1452   -8.7034   18.5433 H       1  UNL1        0.1563
     15 H         -12.2759   -1.9255   19.5171 H       1  UNL1        0.1437
     16 H         -10.8597   -2.8361   19.2468 H       1  UNL1        0.1437
     17 N         -16.4628   -5.1562   19.4766 N.ar    1  UNL1       -0.1967
     18 N         -17.4031   -6.3249   19.4846 N.ar    1  UNL1       -0.1670
     19 C         -18.7956   -5.7982   19.6676 C.ar    1  UNL1        0.0808
     20 C         -18.7159   -4.3040   19.7727 C.ar    1  UNL1        0.0339
     21 C         -19.7699   -3.2534   19.9606 C.ar    1  UNL1        0.0141
     22 C         -19.3822   -1.8061   20.0305 C.ar    1  UNL1        0.0578
     23 CL        -20.4363   -0.7555   20.2184 Cl      1  UNL1       -0.0822
     24 C         -17.9404   -1.4093   19.9125 C.ar    1  UNL1        0.0129
     25 C         -16.8864   -2.4599   19.7245 C.ar    1  UNL1        0.0202
     26 C         -17.2742   -3.9072   19.6547 C.ar    1  UNL1        0.0871
     27 C         -20.0479   -6.6212   19.7339 C.3     1  UNL1        0.0564
     28 C         -19.9869   -8.0427   20.2087 C.3     1  UNL1        0.1097
     29 C         -19.3532   -9.0946   19.3473 C.3     1  UNL1        0.3982
     30 F         -18.7196  -10.1465   18.4860 F       1  UNL1       -0.1700
     31 F         -20.4612   -8.9434   18.3476 F       1  UNL1       -0.1700
     32 F         -18.2453   -9.2459   20.3471 F       1  UNL1       -0.1700
@<TRIPOS>BOND
     1     1     2    1
     2     2     3    1
     3     2     4    1
     4     4     5    2
     5     4     6   am
     6     6     7    1
     7     7     8   ar
     8     8     9   ar
     9     9    17    1
    10    17    18   ar
    11    18    19   ar
    12    19    27    1
    13    27    28    1
    14    28    29    1
    15    29    30    1
    16    29    31    1
    17    29    32    1
    18    19    20   ar
    19    20    21   ar
    20    21    22   ar
    21    22    23    1
    22    22    24   ar
    23    24    25   ar
    24    25    26   ar
    25     9    10   ar
    26    10    11   ar
    27    11    12    1
    28    11    13   ar
    29    13     2    1
    30    13     7   ar
    31    26    17   ar
    32    26    20   ar
    33     6    14    1
    34    12    15    1
    35    12    16    1
@<TRIPOS>MOLECULE
*****
 32 35 0 0 0
SMALL
GASTEIGER

@<TRIPOS>ATOM
      1 C           0.1525    2.3160   27.2822 C.3     1  UNL1        0.0137
      2 C           0.6733    2.2770   28.6884 C.3     1  UNL1        0.0932
      3 C           0.9520    0.8362   28.3780 C.3     1  UNL1        0.0137
      4 C           0.2857    3.7259   28.7049 C.2     1  UNL1        0.2302
      5 O          -0.3328    4.4862   27.5694 O.2     1  UNL1       -0.2744
      6 N           0.6252    4.2812   30.0564 N.am    1  UNL1       -0.2692
      7 C           1.2226    3.1754   30.8751 C.ar    1  UNL1        0.1363
      8 N           1.7434    3.1364   32.2813 N.ar    1  UNL1       -0.1951
      9 C           2.2939    1.8587   32.8419 C.ar    1  UNL1        0.2553
     10 N           2.3236    0.6200   31.9965 N.ar    1  UNL1       -0.1957
     11 C           1.8028    0.6590   30.5904 C.ar    1  UNL1        0.1276
     12 N           1.8325   -0.5797   29.7449 N.pl3   1  UNL1       -0.3427
     13 C           1.2523    1.9367   30.0297 C.ar    1  UNL1        0.0484
     14 H           0.4812    5.2085   30.3538 H       1  UNL1        0.1563
     15 H           2.1938   -1.4183   30.1129 H       1  UNL1        0.1437
     16 H           1.4907   -0.5541   28.8220 H       1  UNL1        0.1437
     17 N           2.8147    1.8196   34.2481 N.ar    1  UNL1       -0.1967
     18 N           2.1793    2.4685   35.4420 N.ar    1  UNL1       -0.1670
     19 C           3.0341    2.1747   36.6390 C.ar    1  UNL1        0.0808
     20 C           4.1979    1.3443   36.1850 C.ar    1  UNL1        0.0339
     21 C           5.3636    0.7596   36.9261 C.ar    1  UNL1        0.0141
     22 C           6.3935   -0.0445   36.1897 C.ar    1  UNL1        0.0578
     23 CL          7.5593   -0.6292   36.9309 Cl      1  UNL1       -0.0822
     24 C           6.2579   -0.2640   34.7120 C.ar    1  UNL1        0.0129
     25 C           5.0922    0.3207   33.9708 C.ar    1  UNL1        0.0202
     26 C           4.0622    1.1248   34.7073 C.ar    1  UNL1        0.0871
     27 C           2.7714    2.6313   38.0435 C.3     1  UNL1        0.0564
     28 C           1.4928    2.2505   38.7291 C.3     1  UNL1        0.1097
     29 C           1.2686    0.8326   39.1643 C.3     1  UNL1        0.3982
     30 F           1.0444   -0.5852   39.5996 F       1  UNL1       -0.1700
     31 F          -0.2126    1.0242   39.0254 F       1  UNL1       -0.1700
     32 F           2.7498    0.6411   39.3032 F       1  UNL1       -0.1700
@<TRIPOS>BOND
     1     1     2    1
     2     2     3    1
     3     2     4    1
     4     4     5    2
     5     4     6   am
     6     6     7    1
     7     7     8   ar
     8     8     9   ar
     9     9    17    1
    10    17    18   ar
    11    18    19   ar
    12    19    27    1
    13    27    28    1
    14    28    29    1
    15    29    30    1
    16    29    31    1
    17    29    32    1
    18    19    20   ar
    19    20    21   ar
    20    21    22   ar
    21    22    23    1
    22    22    24   ar
    23    24    25   ar
    24    25    26   ar
    25     9    10   ar
    26    10    11   ar
    27    11    12    1
    28    11    13   ar
    29    13     2    1
    30    13     7   ar
    31    26    17   ar
    32    26    20   ar
    33     6    14    1
    34    12    15    1
    35    12    16    1
@<TRIPOS>MOLECULE
*****
 32 35 0 0 0
SMALL
GASTEIGER

@<TRIPOS>ATOM
      1 C          -3.5817    6.1237   18.4091 C.3     1  UNL1        0.0137
      2 C          -2.5754    5.0552   18.7187 C.3     1  UNL1        0.0932
      3 C          -3.5282    4.6972   19.8205 C.3     1  UNL1        0.0137
      4 C          -1.8331    5.6365   17.5521 C.2     1  UNL1        0.2302
      5 O          -2.2783    6.7980   16.7139 O.2     1  UNL1       -0.2744
      6 N          -0.5672    4.8525   17.3711 N.am    1  UNL1       -0.2692
      7 C          -0.5272    3.7866   18.4257 C.ar    1  UNL1        0.1363
      8 N           0.4790    2.7181   18.7352 N.ar    1  UNL1       -0.1951
      9 C           0.2441    1.7749   19.8776 C.ar    1  UNL1        0.2553
     10 N          -0.9972    1.9002   20.7105 N.ar    1  UNL1       -0.1957
     11 C          -2.0034    2.9686   20.4010 C.ar    1  UNL1        0.1276
     12 N          -3.2446    3.0939   21.2339 N.pl3   1  UNL1       -0.3427
     13 C          -1.7684    3.9118   19.2586 C.ar    1  UNL1        0.0484
     14 H           0.1173    5.0098   16.6812 H       1  UNL1        0.1563
     15 H          -3.3988    2.4749   21.9837 H       1  UNL1        0.1437
     16 H          -3.9050    3.7952   21.0307 H       1  UNL1        0.1437
     17 N           1.2503    0.7064   20.1872 N.ar    1  UNL1       -0.1967
     18 N           1.8941   -0.2133   19.1923 N.ar    1  UNL1       -0.1670
     19 C           2.8311   -1.1181   19.9362 C.ar    1  UNL1        0.0808
     20 C           2.7663   -0.7577   21.3908 C.ar    1  UNL1        0.0339
     21 C           3.4708   -1.3105   22.5942 C.ar    1  UNL1        0.0141
     22 C           3.1982   -0.7359   23.9526 C.ar    1  UNL1        0.0578
     23 CL          3.9027   -1.2888   25.1560 Cl      1  UNL1       -0.0822
     24 C           2.2212    0.3918   24.1078 C.ar    1  UNL1        0.0129
     25 C           1.5168    0.9446   22.9044 C.ar    1  UNL1        0.0202
     26 C           1.7894    0.3699   21.5459 C.ar    1  UNL1        0.0871
     27 C           3.6832   -2.1944   19.3316 C.3     1  UNL1        0.0564
     28 C           3.3092   -3.6360   19.5101 C.3     1  UNL1        0.1097
     29 C           4.1843   -4.7137   18.9420 C.3     1  UNL1        0.3982
     30 F           5.0593   -5.7914   18.3738 F       1  UNL1       -0.1700
     31 F           4.9983   -3.6760   18.2275 F       1  UNL1       -0.1700
     32 F           3.3702   -5.7513   19.6565 F       1  UNL1       -0.1700
@<TRIPOS>BOND
     1     1     2    1
     2     2     3    1
     3     2     4    1
     4     4     5    2
     5     4     6   am
     6     6     7    1
     7     7     8   ar
     8     8     9   ar
     9     9    17    1
    10    17    18   ar
    11    18    19   ar
    12    19    27    1
    13    27    28    1
    14    28    29    1
    15    29    30    1
    16    29    31    1
    17    29    32    1
    18    19    20   ar
    19    20    21   ar
    20    21    22   ar
    21    22    23    1
    22    22    24   ar
    23    24    25   ar
    24    25    26   ar
    25     9    10   ar
    26    10    11   ar
    27    11    12    1
    28    11    13   ar
    29    13     2    1
    30    13     7   ar
    31    26    17   ar
    32    26    20   ar
    33     6    14    1
    34    12    15    1
    35    12    16    1
@<TRIPOS>MOLECULE
*****
 32 35 0 0 0
SMALL
GASTEIGER

@<TRIPOS>ATOM
      1 C           7.4172   -4.8498   29.2921 C.3     1  UNL1        0.0137
      2 C           6.8083   -3.8889   30.2698 C.3     1  UNL1        0.0932
      3 C           6.8975   -2.9176   29.1303 C.3     1  UNL1        0.0137
      4 C           6.8464   -5.0612   31.2049 C.2     1  UNL1        0.2302
      5 O           7.3609   -6.4321   30.8797 O.2     1  UNL1       -0.2744
      6 N           6.2797   -4.6217   32.5224 N.am    1  UNL1       -0.2692
      7 C           5.8913   -3.1779   32.4015 C.ar    1  UNL1        0.1363
      8 N           5.2824   -2.2171   33.3793 N.ar    1  UNL1       -0.1951
      9 C           5.0003   -0.8034   32.9648 C.ar    1  UNL1        0.2553
     10 N           5.3270   -0.3505   31.5726 N.ar    1  UNL1       -0.1957
     11 C           5.9359   -1.3113   30.5949 C.ar    1  UNL1        0.1276
     12 N           6.2626   -0.8584   29.2027 N.pl3   1  UNL1       -0.3427
     13 C           6.2181   -2.7250   31.0093 C.ar    1  UNL1        0.0484
     14 H           6.1801   -5.1824   33.3254 H       1  UNL1        0.1563
     15 H           6.0774    0.0694   28.9307 H       1  UNL1        0.1437
     16 H           6.6622   -1.4891   28.5610 H       1  UNL1        0.1437
     17 N           4.3913    0.1575   33.9426 N.ar    1  UNL1       -0.1967
     18 N           4.6563    0.2001   35.4184 N.ar    1  UNL1       -0.1670
     19 C           3.8393    1.3134   36.0041 C.ar    1  UNL1        0.0808
     20 C           3.0694    1.9589   34.8903 C.ar    1  UNL1        0.0339
     21 C           2.1018    3.1049   34.8715 C.ar    1  UNL1        0.0141
     22 C           1.4754    3.5366   33.5789 C.ar    1  UNL1        0.0578
     23 CL          0.5077    4.6826   33.5602 Cl      1  UNL1       -0.0822
     24 C           1.8166    2.8222   32.3047 C.ar    1  UNL1        0.0129
     25 C           2.7842    1.6762   32.3234 C.ar    1  UNL1        0.0202
     26 C           3.4106    1.2446   33.6162 C.ar    1  UNL1        0.0871
     27 C           3.7992    1.7113   37.4498 C.3     1  UNL1        0.0564
     28 C           3.0246    0.8855   38.4338 C.3     1  UNL1        0.1097
     29 C           1.6551    1.3205   38.8640 C.3     1  UNL1        0.3982
     30 F           0.2855    1.7554   39.2942 F       1  UNL1       -0.1700
     31 F           1.3406   -0.0849   39.2836 F       1  UNL1       -0.1700
     32 F           1.9696    2.7258   38.4443 F       1  UNL1       -0.1700
@<TRIPOS>BOND
     1     1     2    1
     2     2     3    1
     3     2     4    1
     4     4     5    2
     5     4     6   am
     6     6     7    1
     7     7     8   ar
     8     8     9   ar
     9     9    17    1
    10    17    18   ar
    11    18    19   ar
    12    19    27    1
    13    27    28    1
    14    28    29    1
    15    29    30    1
    16    29    31    1
    17    29    32    1
    18    19    20   ar
    19    20    21   ar
    20    21    22   ar
    21    22    23    1
    22    22    24   ar
    23    24    25   ar
    24    25    26   ar
    25     9    10   ar
    26    10    11   ar
    27    11    12    1
    28    11    13   ar
    29    13     2    1
    30    13     7   ar
    31    26    17   ar
    32    26    20   ar
    33     6    14    1
    34    12    15    1
    35    12    16    1
@<TRIPOS>MOLECULE
*****
 32 35 0 0 0
SMALL
GASTEIGER

@<TRIPOS>ATOM
      1 C           9.2607   -7.5949   28.7503 C.3     1  UNL1        0.0137
      2 C           8.6630   -6.8773   27.5765 C.3     1  UNL1        0.0932
      3 C           8.7079   -5.6836   28.4837 C.3     1  UNL1        0.0137
      4 C           8.7431   -8.2210   26.9147 C.2     1  UNL1        0.2302
      5 O           9.2695   -9.4803   27.5368 O.2     1  UNL1       -0.2744
      6 N           8.2042   -8.0844   25.5215 N.am    1  UNL1       -0.2692
      7 C           7.7911   -6.6562   25.3223 C.ar    1  UNL1        0.1363
      8 N           7.1934   -5.9387   24.1485 N.ar    1  UNL1       -0.1951
      9 C           6.8793   -4.4751   24.2447 C.ar    1  UNL1        0.2553
     10 N           7.1628   -3.7291   25.5148 N.ar    1  UNL1       -0.1957
     11 C           7.7605   -4.4466   26.6886 C.ar    1  UNL1        0.1276
     12 N           8.0441   -3.7006   27.9586 N.pl3   1  UNL1       -0.3427
     13 C           8.0747   -5.9102   26.5923 C.ar    1  UNL1        0.0484
     14 H           8.1340   -8.8054   24.8549 H       1  UNL1        0.1563
     15 H           7.8379   -2.7400   28.0218 H       1  UNL1        0.1437
     16 H           8.4364   -4.1716   28.7291 H       1  UNL1        0.1437
     17 N           6.2815   -3.7575   23.0709 N.ar    1  UNL1       -0.1967
     18 N           6.6515   -3.9608   21.6315 N.ar    1  UNL1       -0.1670
     19 C           5.8076   -3.0396   20.8014 C.ar    1  UNL1        0.0808
     20 C           4.9160   -2.2670   21.7277 C.ar    1  UNL1        0.0339
     21 C           3.8752   -1.2167   21.4753 C.ar    1  UNL1        0.0141
     22 C           3.1274   -0.6102   22.6253 C.ar    1  UNL1        0.0578
     23 CL          2.0866    0.4402   22.3729 Cl      1  UNL1       -0.0822
     24 C           3.4203   -1.0538   24.0280 C.ar    1  UNL1        0.0129
     25 C           4.4611   -2.1041   24.2805 C.ar    1  UNL1        0.0202
     26 C           5.2089   -2.7107   23.1303 C.ar    1  UNL1        0.0871
     27 C           5.8481   -2.9133   19.3073 C.3     1  UNL1        0.0564
     28 C           4.9956   -3.8066   18.4557 C.3     1  UNL1        0.1097
     29 C           3.9047   -4.6229   19.0830 C.3     1  UNL1        0.3982
     30 F           2.8138   -5.4392   19.7104 F       1  UNL1       -0.1700
     31 F           3.0516   -3.3945   19.1980 F       1  UNL1       -0.1700
     32 F           4.7578   -5.8513   18.9680 F       1  UNL1       -0.1700
@<TRIPOS>BOND
     1     1     2    1
     2     2     3    1
     3     2     4    1
     4     4     5    2
     5     4     6   am
     6     6     7    1
     7     7     8   ar
     8     8     9   ar
     9     9    17    1
    10    17    18   ar
    11    18    19   ar
    12    19    27    1
    13    27    28    1
    14    28    29    1
    15    29    30    1
    16    29    31    1
    17    29    32    1
    18    19    20   ar
    19    20    21   ar
    20    21    22   ar
    21    22    23    1
    22    22    24   ar
    23    24    25   ar
    24    25    26   ar
    25     9    10   ar
    26    10    11   ar
    27    11    12    1
    28    11    13   ar
    29    13     2    1
    30    13     7   ar
    31    26    17   ar
    32    26    20   ar
    33     6    14    1
    34    12    15    1
    35    12    16    1
@<TRIPOS>MOLECULE
*****
 32 35 0 0 0
SMALL
GASTEIGER

@<TRIPOS>ATOM
      1 C           2.6092   -0.0838   17.8670 C.3     1  UNL1        0.0137
      2 C           3.3872   -0.8527   18.8935 C.3     1  UNL1        0.0932
      3 C           2.4207   -0.2348   19.8599 C.3     1  UNL1        0.0137
      4 C           4.1911   -1.3099   17.7125 C.2     1  UNL1        0.2302
      5 O           3.9624   -0.9143   16.2838 O.2     1  UNL1       -0.2744
      6 N           5.2638   -2.2322   18.2111 N.am    1  UNL1       -0.2692
      7 C           5.1229   -2.3450   19.7002 C.ar    1  UNL1        0.1363
      8 N           5.9009   -3.1139   20.7266 N.ar    1  UNL1       -0.1951
      9 C           5.5190   -3.0302   22.1747 C.ar    1  UNL1        0.2553
     10 N           4.3592   -2.1777   22.5965 N.ar    1  UNL1       -0.1957
     11 C           3.5812   -1.4088   21.5701 C.ar    1  UNL1        0.1276
     12 N           2.4214   -0.5562   21.9918 N.pl3   1  UNL1       -0.3427
     13 C           3.9631   -1.4924   20.1220 C.ar    1  UNL1        0.0484
     14 H           5.9414   -2.6842   17.6581 H       1  UNL1        0.1563
     15 H           2.1708   -0.5012   22.9423 H       1  UNL1        0.1437
     16 H           1.9108   -0.0515   21.3182 H       1  UNL1        0.1437
     17 N           6.2970   -3.7992   23.2012 N.ar    1  UNL1       -0.1967
     18 N           7.1461   -5.0080   22.9406 N.ar    1  UNL1       -0.1670
     19 C           7.7363   -5.4502   24.2467 C.ar    1  UNL1        0.0808
     20 C           7.2520   -4.5147   25.3146 C.ar    1  UNL1        0.0339
     21 C           7.5061   -4.4601   26.7919 C.ar    1  UNL1        0.0141
     22 C           6.8707   -3.3852   27.6230 C.ar    1  UNL1        0.0578
     23 CL          7.1248   -3.3307   29.1004 Cl      1  UNL1       -0.0822
     24 C           5.9811   -2.3648   26.9768 C.ar    1  UNL1        0.0129
     25 C           5.7270   -2.4194   25.4995 C.ar    1  UNL1        0.0202
     26 C           6.3625   -3.4943   24.6684 C.ar    1  UNL1        0.0871
     27 C           8.6504   -6.6221   24.4495 C.3     1  UNL1        0.0564
     28 C           8.1197   -7.8932   25.0432 C.3     1  UNL1        0.1097
     29 C           8.0806   -8.0662   26.5327 C.3     1  UNL1        0.3982
     30 F           8.0416   -8.2391   28.0222 F       1  UNL1       -0.1700
     31 F           9.5356   -7.7101   26.6122 F       1  UNL1       -0.1700
     32 F           6.6257   -8.4223   26.4532 F       1  UNL1       -0.1700
@<TRIPOS>BOND
     1     1     2    1
     2     2     3    1
     3     2     4    1
     4     4     5    2
     5     4     6   am
     6     6     7    1
     7     7     8   ar
     8     8     9   ar
     9     9    17    1
    10    17    18   ar
    11    18    19   ar
    12    19    27    1
    13    27    28    1
    14    28    29    1
    15    29    30    1
    16    29    31    1
    17    29    32    1
    18    19    20   ar
    19    20    21   ar
    20    21    22   ar
    21    22    23    1
    22    22    24   ar
    23    24    25   ar
    24    25    26   ar
    25     9    10   ar
    26    10    11   ar
    27    11    12    1
    28    11    13   ar
    29    13     2    1
    30    13     7   ar
    31    26    17   ar
    32    26    20   ar
    33     6    14    1
    34    12    15    1
    35    12    16    1
@<TRIPOS>MOLECULE
*****
 32 35 0 0 0
SMALL
GASTEIGER

@<TRIPOS>ATOM
      1 C          -4.1501    5.7571   18.9354 C.3     1  UNL1        0.0137
      2 C          -3.1138    4.7187   19.2483 C.3     1  UNL1        0.0932
      3 C          -2.4316    5.2576   18.0260 C.3     1  UNL1        0.0137
      4 C          -4.0127    4.3969   20.4052 C.2     1  UNL1        0.2302
      5 O          -5.3075    5.0798   20.7323 O.2     1  UNL1       -0.2744
      6 N          -3.3893    3.2722   21.1776 N.am    1  UNL1       -0.2692
      7 C          -2.1052    2.8989   20.4980 C.ar    1  UNL1        0.1363
      8 N          -1.0691    1.8605   20.8110 N.ar    1  UNL1       -0.1951
      9 C           0.1374    1.7161   19.9315 C.ar    1  UNL1        0.2553
     10 N           0.3077    2.6100   18.7391 N.ar    1  UNL1       -0.1957
     11 C          -0.7285    3.6485   18.4262 C.ar    1  UNL1        0.1276
     12 N          -0.5582    4.5424   17.2338 N.pl3   1  UNL1       -0.3427
     13 C          -1.9350    3.7929   19.3056 C.ar    1  UNL1        0.0484
     14 H          -3.7582    2.8527   21.9883 H       1  UNL1        0.1563
     15 H           0.2336    4.4476   16.6565 H       1  UNL1        0.1437
     16 H          -1.2383    5.2240   17.0284 H       1  UNL1        0.1437
     17 N           1.1737    0.6776   20.2444 N.ar    1  UNL1       -0.1967
     18 N           1.8223   -0.2463   19.2566 N.ar    1  UNL1       -0.1670
     19 C           2.7927   -1.1142   20.0016 C.ar    1  UNL1        0.0808
     20 C           2.7438   -0.7266   21.4499 C.ar    1  UNL1        0.0339
     21 C           3.4811   -1.2390   22.6515 C.ar    1  UNL1        0.0141
     22 C           3.2179   -0.6440   24.0030 C.ar    1  UNL1        0.0578
     23 CL          3.9553   -1.1565   25.2046 Cl      1  UNL1       -0.0822
     24 C           2.2172    0.4634   24.1530 C.ar    1  UNL1        0.0129
     25 C           1.4799    0.9757   22.9515 C.ar    1  UNL1        0.0202
     26 C           1.7432    0.3808   21.5999 C.ar    1  UNL1        0.0871
     27 C           3.6598   -2.1821   19.4035 C.3     1  UNL1        0.0564
     28 C           3.4928   -3.6102   19.8305 C.3     1  UNL1        0.1097
     29 C           4.1382   -4.7097   19.0402 C.3     1  UNL1        0.3982
     30 F           4.7835   -5.8091   18.2498 F       1  UNL1       -0.1700
     31 F           5.0472   -3.7090   18.3904 F       1  UNL1       -0.1700
     32 F           3.2291   -5.7104   19.6899 F       1  UNL1       -0.1700
@<TRIPOS>BOND
     1     1     2    1
     2     2     3    1
     3     2     4    1
     4     4     5    2
     5     4     6   am
     6     6     7    1
     7     7     8   ar
     8     8     9   ar
     9     9    17    1
    10    17    18   ar
    11    18    19   ar
    12    19    27    1
    13    27    28    1
    14    28    29    1
    15    29    30    1
    16    29    31    1
    17    29    32    1
    18    19    20   ar
    19    20    21   ar
    20    21    22   ar
    21    22    23    1
    22    22    24   ar
    23    24    25   ar
    24    25    26   ar
    25     9    10   ar
    26    10    11   ar
    27    11    12    1
    28    11    13   ar
    29    13     2    1
    30    13     7   ar
    31    26    17   ar
    32    26    20   ar
    33     6    14    1
    34    12    15    1
    35    12    16    1
@<TRIPOS>MOLECULE
*****
 32 35 0 0 0
SMALL
GASTEIGER

@<TRIPOS>ATOM
      1 C          -8.4401    6.5399   25.5013 C.3     1  UNL1        0.0137
      2 C          -7.1412    5.7910   25.5461 C.3     1  UNL1        0.0932
      3 C          -6.8852    6.6221   26.7682 C.3     1  UNL1        0.0137
      4 C          -7.6688    5.1164   24.3146 C.2     1  UNL1        0.2302
      5 O          -8.9906    5.3866   23.6590 O.2     1  UNL1       -0.2744
      6 N          -6.6424    4.1244   23.8538 N.am    1  UNL1       -0.2692
      7 C          -5.4805    4.1857   24.8005 C.ar    1  UNL1        0.1363
      8 N          -4.1817    3.4368   24.8453 N.ar    1  UNL1       -0.1951
      9 C          -3.1911    3.7179   25.9360 C.ar    1  UNL1        0.2553
     10 N          -3.4994    4.7479   26.9819 N.ar    1  UNL1       -0.1957
     11 C          -4.7982    5.4969   26.9371 C.ar    1  UNL1        0.1276
     12 N          -5.1065    6.5269   27.9831 N.pl3   1  UNL1       -0.3427
     13 C          -5.7888    5.2158   25.8464 C.ar    1  UNL1        0.0484
     14 H          -6.7181    3.5362   23.0679 H       1  UNL1        0.1563
     15 H          -4.4563    6.7114   28.6989 H       1  UNL1        0.1437
     16 H          -5.9590    7.0185   27.9537 H       1  UNL1        0.1437
     17 N          -1.8922    2.9689   25.9808 N.ar    1  UNL1       -0.1967
     18 N          -1.2789    2.3395   27.1964 N.ar    1  UNL1       -0.1670
     19 C           0.0138    1.6995   26.7849 C.ar    1  UNL1        0.0808
     20 C           0.1993    1.9333   25.3148 C.ar    1  UNL1        0.0339
     21 C           1.2887    1.5331   24.3645 C.ar    1  UNL1        0.0141
     22 C           1.2001    1.9175   22.9174 C.ar    1  UNL1        0.0578
     23 CL          2.2896    1.5173   21.9670 Cl      1  UNL1       -0.0822
     24 C           0.0222    2.7020   22.4204 C.ar    1  UNL1        0.0129
     25 C          -1.0672    3.1022   23.3707 C.ar    1  UNL1        0.0202
     26 C          -0.9787    2.7178   24.8179 C.ar    1  UNL1        0.0871
     27 C           0.9555    0.9562   27.6852 C.3     1  UNL1        0.0564
     28 C           0.4288   -0.0916   28.6205 C.3     1  UNL1        0.1097
     29 C          -0.9546    0.0352   29.1863 C.3     1  UNL1        0.3982
     30 F          -2.3380    0.1620   29.7521 F       1  UNL1       -0.1700
     31 F          -0.4768    1.1137   30.1129 F       1  UNL1       -0.1700
     32 F          -1.4323   -1.0433   28.2597 F       1  UNL1       -0.1700
@<TRIPOS>BOND
     1     1     2    1
     2     2     3    1
     3     2     4    1
     4     4     5    2
     5     4     6   am
     6     6     7    1
     7     7     8   ar
     8     8     9   ar
     9     9    17    1
    10    17    18   ar
    11    18    19   ar
    12    19    27    1
    13    27    28    1
    14    28    29    1
    15    29    30    1
    16    29    31    1
    17    29    32    1
    18    19    20   ar
    19    20    21   ar
    20    21    22   ar
    21    22    23    1
    22    22    24   ar
    23    24    25   ar
    24    25    26   ar
    25     9    10   ar
    26    10    11   ar
    27    11    12    1
    28    11    13   ar
    29    13     2    1
    30    13     7   ar
    31    26    17   ar
    32    26    20   ar
    33     6    14    1
    34    12    15    1
    35    12    16    1
