@<TRIPOS>MOLECULE
*****
 28 31 0 0 0
SMALL
GASTEIGER

@<TRIPOS>ATOM
      1 O          -9.5941  -15.8136   24.5885 O.3     1  UNL1       -0.4689
      2 C          -8.1733  -15.7088   25.0577 C.ar    1  UNL1        0.1422
      3 C          -7.8790  -15.4361   26.5031 C.ar    1  UNL1        0.0371
      4 C          -6.4581  -15.3313   26.9724 C.ar    1  UNL1        0.0062
      5 C          -5.3316  -15.4991   25.9963 C.ar    1  UNL1        0.0371
      6 C          -5.6259  -15.7718   24.5509 C.ar    1  UNL1        0.1416
      7 C          -7.0467  -15.8766   24.0816 C.ar    1  UNL1        0.0738
      8 O          -4.4994  -15.9396   23.5748 O.3     1  UNL1       -0.4754
      9 C          -3.7435  -17.2341   23.5172 C.3     1  UNL1        0.2054
     10 C          -2.9150  -17.5657   22.3116 C.3     1  UNL1        0.0487
     11 C          -2.0570  -16.5110   21.6780 C.3     1  UNL1        0.0359
     12 C          -1.2285  -16.8427   20.4723 C.3     1  UNL1        0.1423
     13 O          -1.2579  -18.2290   19.9003 O.3     1  UNL1       -0.3538
     14 C          -2.1159  -19.2837   20.5339 C.3     1  UNL1        0.1423
     15 C          -2.9444  -18.9521   21.7395 C.3     1  UNL1        0.0359
     16 C         -10.1697  -17.1523   24.2329 C.3     1  UNL1        0.2506
     17 C         -11.8391  -17.1506   21.7403 C.3     1  UNL1        0.0358
     18 C         -10.5246  -17.8728   21.7620 C.2     1  UNL1        0.0342
     19 C          -9.6898  -17.8737   23.0083 C.2     1  UNL1        0.1013
     20 N          -8.3753  -18.5958   23.0301 N.2     1  UNL1       -0.2501
     21 C          -7.8955  -19.3172   21.8056 C.2     1  UNL1        0.0661
     22 C          -6.5810  -20.0394   21.8274 C.3     1  UNL1        0.0718
     23 C          -6.1012  -20.7607   20.6029 C.2     1  UNL1       -0.0198
     24 C          -6.9359  -20.7599   19.3566 C.2     1  UNL1       -0.0040
     25 C          -8.2504  -20.0377   19.3348 C.2     1  UNL1        0.0040
     26 C          -8.7302  -19.3164   20.5593 C.2     1  UNL1        0.0525
     27 C         -10.0448  -18.5941   20.5375 C.2     1  UNL1        0.1940
     28 O         -10.8795  -18.5933   19.2912 O.2     1  UNL1       -0.2868
@<TRIPOS>BOND
     1    17    18    1
     2    18    19    2
     3    19    16    1
     4    16     1    1
     5     1     2    1
     6     2     3   ar
     7     3     4   ar
     8     4     5   ar
     9     5     6   ar
    10     6     8    1
    11     8     9    1
    12     9    10    1
    13    10    11    1
    14    11    12    1
    15    12    13    1
    16    13    14    1
    17    14    15    1
    18     6     7   ar
    19    19    20    1
    20    20    21    2
    21    21    22    1
    22    22    23    1
    23    23    24    2
    24    24    25    1
    25    25    26    2
    26    26    27    1
    27    27    28    2
    28    27    18    1
    29     7     2   ar
    30    26    21    1
    31    15    10    1
@<TRIPOS>MOLECULE
*****
 28 31 0 0 0
SMALL
GASTEIGER

@<TRIPOS>ATOM
      1 O          -5.7036  -20.2427   21.1358 O.3     1  UNL1       -0.4689
      2 C          -4.5627  -19.3941   21.6132 C.ar    1  UNL1        0.1422
      3 C          -3.1696  -19.6697   21.1301 C.ar    1  UNL1        0.0371
      4 C          -2.0286  -18.8210   21.6075 C.ar    1  UNL1        0.0062
      5 C          -2.2806  -17.6967   22.5679 C.ar    1  UNL1        0.0371
      6 C          -3.6738  -17.4211   23.0509 C.ar    1  UNL1        0.1416
      7 C          -4.8148  -18.2697   22.5736 C.ar    1  UNL1        0.0738
      8 O          -3.9259  -16.2968   24.0113 O.3     1  UNL1       -0.4754
      9 C          -5.1235  -15.4114   23.8319 C.3     1  UNL1        0.2054
     10 C          -6.2127  -15.4052   24.8632 C.3     1  UNL1        0.0487
     11 C          -7.6503  -15.4272   24.4357 C.3     1  UNL1        0.0359
     12 C          -8.7396  -15.4209   25.4670 C.3     1  UNL1        0.1423
     13 O          -8.3912  -15.3927   26.9257 O.3     1  UNL1       -0.3538
     14 C          -6.9536  -15.3707   27.3532 C.3     1  UNL1        0.1423
     15 C          -5.8643  -15.3770   26.3219 C.3     1  UNL1        0.0359
     16 C          -6.7800  -20.6600   22.0936 C.3     1  UNL1        0.2506
     17 C          -7.7613  -19.3833   19.5624 C.3     1  UNL1        0.0358
     18 C          -8.6047  -19.3362   20.8020 C.2     1  UNL1        0.0342
     19 C          -8.1140  -19.9745   22.0676 C.2     1  UNL1        0.1013
     20 N          -8.9573  -19.9274   23.3072 N.2     1  UNL1       -0.2501
     21 C         -10.2913  -19.2420   23.2812 C.2     1  UNL1        0.0661
     22 C         -11.1346  -19.1949   24.5208 C.3     1  UNL1        0.0718
     23 C         -12.4685  -18.5095   24.4947 C.2     1  UNL1       -0.0198
     24 C         -12.9592  -17.8711   23.2291 C.2     1  UNL1       -0.0040
     25 C         -12.1159  -17.9182   21.9896 C.2     1  UNL1        0.0040
     26 C         -10.7820  -18.6036   22.0156 C.2     1  UNL1        0.0525
     27 C          -9.9386  -18.6508   20.7760 C.2     1  UNL1        0.1940
     28 O         -10.4293  -18.0124   19.5104 O.2     1  UNL1       -0.2868
@<TRIPOS>BOND
     1    17    18    1
     2    18    19    2
     3    19    16    1
     4    16     1    1
     5     1     2    1
     6     2     3   ar
     7     3     4   ar
     8     4     5   ar
     9     5     6   ar
    10     6     8    1
    11     8     9    1
    12     9    10    1
    13    10    11    1
    14    11    12    1
    15    12    13    1
    16    13    14    1
    17    14    15    1
    18     6     7   ar
    19    19    20    1
    20    20    21    2
    21    21    22    1
    22    22    23    1
    23    23    24    2
    24    24    25    1
    25    25    26    2
    26    26    27    1
    27    27    28    2
    28    27    18    1
    29     7     2   ar
    30    26    21    1
    31    15    10    1
@<TRIPOS>MOLECULE
*****
 28 31 0 0 0
SMALL
GASTEIGER

@<TRIPOS>ATOM
      1 O          -4.4572  -16.0523   23.6691 O.3     1  UNL1       -0.4689
      2 C          -5.5809  -15.8208   24.6354 C.ar    1  UNL1        0.1422
      3 C          -5.2826  -15.5199   26.0743 C.ar    1  UNL1        0.0371
      4 C          -6.4062  -15.2883   27.0407 C.ar    1  UNL1        0.0062
      5 C          -7.8281  -15.3577   26.5681 C.ar    1  UNL1        0.0371
      6 C          -8.1264  -15.6586   25.1291 C.ar    1  UNL1        0.1416
      7 C          -7.0028  -15.8901   24.1628 C.ar    1  UNL1        0.0738
      8 O          -9.5483  -15.7280   24.6566 O.3     1  UNL1       -0.4754
      9 C         -10.0809  -16.9995   24.0651 C.3     1  UNL1        0.2054
     10 C         -10.9285  -16.9540   22.8284 C.3     1  UNL1        0.0487
     11 C         -12.1637  -17.7998   22.7341 C.3     1  UNL1        0.0359
     12 C         -13.0113  -17.7543   21.4974 C.3     1  UNL1        0.1423
     13 O         -12.6237  -16.8629   20.3549 O.3     1  UNL1       -0.3538
     14 C         -11.3885  -16.0170   20.4491 C.3     1  UNL1        0.1423
     15 C         -10.5409  -16.0626   21.6859 C.3     1  UNL1        0.0359
     16 C          -4.0116  -17.4504   23.3580 C.3     1  UNL1        0.2506
     17 C          -2.5546  -19.4909   21.7108 C.3     1  UNL1        0.0358
     18 C          -4.0286  -19.2875   21.5210 C.2     1  UNL1        0.0342
     19 C          -4.7571  -18.2673   22.3446 C.2     1  UNL1        0.1013
     20 N          -6.2311  -18.0639   22.1549 N.2     1  UNL1       -0.2501
     21 C          -6.9766  -18.8808   21.1415 C.2     1  UNL1        0.0661
     22 C          -8.4506  -18.6774   20.9518 C.3     1  UNL1        0.0718
     23 C          -9.1960  -19.4943   19.9384 C.2     1  UNL1       -0.0198
     24 C          -8.4675  -20.5145   19.1148 C.2     1  UNL1       -0.0040
     25 C          -6.9936  -20.7179   19.3045 C.2     1  UNL1        0.0040
     26 C          -6.2481  -19.9010   20.3179 C.2     1  UNL1        0.0525
     27 C          -4.7741  -20.1044   20.5076 C.2     1  UNL1        0.1940
     28 O          -4.0456  -21.1247   19.6840 O.2     1  UNL1       -0.2868
@<TRIPOS>BOND
     1    17    18    1
     2    18    19    2
     3    19    16    1
     4    16     1    1
     5     1     2    1
     6     2     3   ar
     7     3     4   ar
     8     4     5   ar
     9     5     6   ar
    10     6     8    1
    11     8     9    1
    12     9    10    1
    13    10    11    1
    14    11    12    1
    15    12    13    1
    16    13    14    1
    17    14    15    1
    18     6     7   ar
    19    19    20    1
    20    20    21    2
    21    21    22    1
    22    22    23    1
    23    23    24    2
    24    24    25    1
    25    25    26    2
    26    26    27    1
    27    27    28    2
    28    27    18    1
    29     7     2   ar
    30    26    21    1
    31    15    10    1
@<TRIPOS>MOLECULE
*****
 28 31 0 0 0
SMALL
GASTEIGER

@<TRIPOS>ATOM
      1 O          -6.5297  -20.2733   21.3289 O.3     1  UNL1       -0.4689
      2 C          -5.2445  -19.5625   21.6340 C.ar    1  UNL1        0.1422
      3 C          -3.9715  -19.9963   20.9698 C.ar    1  UNL1        0.0371
      4 C          -2.6863  -19.2855   21.2749 C.ar    1  UNL1        0.0062
      5 C          -2.6742  -18.1408   22.2442 C.ar    1  UNL1        0.0371
      6 C          -3.9472  -17.7070   22.9085 C.ar    1  UNL1        0.1416
      7 C          -5.2324  -18.4178   22.6034 C.ar    1  UNL1        0.0738
      8 O          -3.9351  -16.5623   23.8778 O.3     1  UNL1       -0.4754
      9 C          -4.9954  -15.5040   23.8019 C.3     1  UNL1        0.2054
     10 C          -6.0997  -15.4746   24.8165 C.3     1  UNL1        0.0487
     11 C          -5.7729  -15.4216   26.2795 C.3     1  UNL1        0.0359
     12 C          -6.8773  -15.3922   27.2942 C.3     1  UNL1        0.1423
     13 O          -8.3085  -15.4158   26.8458 O.3     1  UNL1       -0.3538
     14 C          -8.6354  -15.4688   25.3828 C.3     1  UNL1        0.1423
     15 C          -7.5310  -15.4982   24.3682 C.3     1  UNL1        0.0359
     16 C          -7.5769  -20.4194   22.3929 C.3     1  UNL1        0.2506
     17 C          -9.5801  -20.5683   24.6211 C.3     1  UNL1        0.0358
     18 C          -9.8252  -19.6615   23.4515 C.2     1  UNL1        0.0342
     19 C          -8.8236  -19.5871   22.3374 C.2     1  UNL1        0.1013
     20 N          -9.0687  -18.6804   21.1679 N.2     1  UNL1       -0.2501
     21 C         -10.3154  -17.8481   21.1125 C.2     1  UNL1        0.0661
     22 C         -10.5605  -16.9414   19.9430 C.3     1  UNL1        0.0718
     23 C         -11.8072  -16.1091   19.8876 C.2     1  UNL1       -0.0198
     24 C         -12.8088  -16.1836   21.0017 C.2     1  UNL1       -0.0040
     25 C         -12.5637  -17.0903   22.1712 C.2     1  UNL1        0.0040
     26 C         -11.3170  -17.9225   22.2266 C.2     1  UNL1        0.0525
     27 C         -11.0719  -18.8293   23.3961 C.2     1  UNL1        0.1940
     28 O         -12.0735  -18.9038   24.5102 O.2     1  UNL1       -0.2868
@<TRIPOS>BOND
     1    17    18    1
     2    18    19    2
     3    19    16    1
     4    16     1    1
     5     1     2    1
     6     2     3   ar
     7     3     4   ar
     8     4     5   ar
     9     5     6   ar
    10     6     8    1
    11     8     9    1
    12     9    10    1
    13    10    11    1
    14    11    12    1
    15    12    13    1
    16    13    14    1
    17    14    15    1
    18     6     7   ar
    19    19    20    1
    20    20    21    2
    21    21    22    1
    22    22    23    1
    23    23    24    2
    24    24    25    1
    25    25    26    2
    26    26    27    1
    27    27    28    2
    28    27    18    1
    29     7     2   ar
    30    26    21    1
    31    15    10    1
@<TRIPOS>MOLECULE
*****
 28 31 0 0 0
SMALL
GASTEIGER

@<TRIPOS>ATOM
      1 O          -9.6162  -18.1389   19.8067 O.3     1  UNL1       -0.4689
      2 C          -8.4123  -18.9865   20.0927 C.ar    1  UNL1        0.1422
      3 C          -8.1782  -20.2450   19.3109 C.ar    1  UNL1        0.0371
      4 C          -6.9741  -21.0927   19.5969 C.ar    1  UNL1        0.0062
      5 C          -6.0042  -20.6819   20.6649 C.ar    1  UNL1        0.0371
      6 C          -6.2384  -19.4233   21.4468 C.ar    1  UNL1        0.1416
      7 C          -7.4424  -18.5757   21.1607 C.ar    1  UNL1        0.0738
      8 O          -5.2685  -19.0125   22.5147 O.3     1  UNL1       -0.4754
      9 C          -3.8297  -19.4262   22.4206 C.3     1  UNL1        0.2054
     10 C          -2.8371  -18.5371   21.7319 C.3     1  UNL1        0.0487
     11 C          -2.6610  -17.1179   22.1845 C.3     1  UNL1        0.0359
     12 C          -1.6684  -16.2288   21.4958 C.3     1  UNL1        0.1423
     13 O          -0.8520  -16.7588   20.3545 O.3     1  UNL1       -0.3538
     14 C          -1.0282  -18.1780   19.9019 C.3     1  UNL1        0.1423
     15 C          -2.0207  -19.0672   20.5906 C.3     1  UNL1        0.0359
     16 C         -10.6409  -17.9059   20.8771 C.3     1  UNL1        0.2506
     17 C         -10.8913  -20.3550   22.5914 C.3     1  UNL1        0.0358
     18 C         -10.3490  -19.0838   23.1744 C.2     1  UNL1        0.0342
     19 C         -10.2238  -17.8592   22.3172 C.2     1  UNL1        0.1013
     20 N          -9.6815  -16.5879   22.9001 N.2     1  UNL1       -0.2501
     21 C          -9.2644  -16.5412   24.3403 C.2     1  UNL1        0.0661
     22 C          -8.7222  -15.2700   24.9232 C.3     1  UNL1        0.0718
     23 C          -8.3051  -15.2233   26.3632 C.2     1  UNL1       -0.0198
     24 C          -8.4303  -16.4479   27.2204 C.2     1  UNL1       -0.0040
     25 C          -8.9725  -17.7192   26.6375 C.2     1  UNL1        0.0040
     26 C          -9.3896  -17.7658   25.1974 C.2     1  UNL1        0.0525
     27 C          -9.9319  -19.0371   24.6144 C.2     1  UNL1        0.1940
     28 O         -10.0571  -20.2617   25.4716 O.2     1  UNL1       -0.2868
@<TRIPOS>BOND
     1    17    18    1
     2    18    19    2
     3    19    16    1
     4    16     1    1
     5     1     2    1
     6     2     3   ar
     7     3     4   ar
     8     4     5   ar
     9     5     6   ar
    10     6     8    1
    11     8     9    1
    12     9    10    1
    13    10    11    1
    14    11    12    1
    15    12    13    1
    16    13    14    1
    17    14    15    1
    18     6     7   ar
    19    19    20    1
    20    20    21    2
    21    21    22    1
    22    22    23    1
    23    23    24    2
    24    24    25    1
    25    25    26    2
    26    26    27    1
    27    27    28    2
    28    27    18    1
    29     7     2   ar
    30    26    21    1
    31    15    10    1
@<TRIPOS>MOLECULE
*****
 28 31 0 0 0
SMALL
GASTEIGER

@<TRIPOS>ATOM
      1 O         -11.3734  -19.2176   22.5581 O.3     1  UNL1       -0.4689
      2 C         -10.2905  -19.4729   21.5521 C.ar    1  UNL1        0.1422
      3 C         -10.6213  -19.5200   20.0898 C.ar    1  UNL1        0.0371
      4 C          -9.5383  -19.7754   19.0838 C.ar    1  UNL1        0.0062
      5 C          -8.1246  -19.9835   19.5401 C.ar    1  UNL1        0.0371
      6 C          -7.7939  -19.9364   21.0025 C.ar    1  UNL1        0.1416
      7 C          -8.8769  -19.6811   22.0084 C.ar    1  UNL1        0.0738
      8 O          -6.3803  -20.1445   21.4588 O.3     1  UNL1       -0.4754
      9 C          -5.2929  -20.3736   20.4511 C.3     1  UNL1        0.2054
     10 C          -3.9909  -19.6388   20.5727 C.3     1  UNL1        0.0487
     11 C          -3.3763  -19.4202   21.9234 C.3     1  UNL1        0.0359
     12 C          -2.0742  -18.6854   22.0449 C.3     1  UNL1        0.1423
     13 O          -1.3868  -18.1692   20.8158 O.3     1  UNL1       -0.3538
     14 C          -2.0014  -18.3878   19.4650 C.3     1  UNL1        0.1423
     15 C          -3.3034  -19.1225   19.3434 C.3     1  UNL1        0.0359
     16 C         -11.4858  -17.8734   23.2143 C.3     1  UNL1        0.2506
     17 C          -9.8921  -16.1947   21.3059 C.3     1  UNL1        0.0358
     18 C          -9.4548  -16.3257   22.7348 C.2     1  UNL1        0.0342
     19 C         -10.2516  -17.1651   23.6890 C.2     1  UNL1        0.1013
     20 N          -9.8144  -17.2961   25.1179 N.2     1  UNL1       -0.2501
     21 C          -8.5803  -16.5878   25.5926 C.2     1  UNL1        0.0661
     22 C          -8.1431  -16.7188   27.0214 C.3     1  UNL1        0.0718
     23 C          -6.9090  -16.0105   27.4960 C.2     1  UNL1       -0.0198
     24 C          -6.1122  -15.1711   26.5418 C.2     1  UNL1       -0.0040
     25 C          -6.5494  -15.0401   25.1130 C.2     1  UNL1        0.0040
     26 C          -7.7834  -15.7484   24.6383 C.2     1  UNL1        0.0525
     27 C          -8.2207  -15.6174   23.2094 C.2     1  UNL1        0.1940
     28 O          -7.4239  -14.7781   22.2552 O.2     1  UNL1       -0.2868
@<TRIPOS>BOND
     1    17    18    1
     2    18    19    2
     3    19    16    1
     4    16     1    1
     5     1     2    1
     6     2     3   ar
     7     3     4   ar
     8     4     5   ar
     9     5     6   ar
    10     6     8    1
    11     8     9    1
    12     9    10    1
    13    10    11    1
    14    11    12    1
    15    12    13    1
    16    13    14    1
    17    14    15    1
    18     6     7   ar
    19    19    20    1
    20    20    21    2
    21    21    22    1
    22    22    23    1
    23    23    24    2
    24    24    25    1
    25    25    26    2
    26    26    27    1
    27    27    28    2
    28    27    18    1
    29     7     2   ar
    30    26    21    1
    31    15    10    1
@<TRIPOS>MOLECULE
*****
 28 31 0 0 0
SMALL
GASTEIGER

@<TRIPOS>ATOM
      1 O          -5.1683  -15.0066   23.6895 O.3     1  UNL1       -0.4689
      2 C          -6.2251  -15.3955   24.6804 C.ar    1  UNL1        0.1422
      3 C          -6.0079  -15.1494   26.1440 C.ar    1  UNL1        0.0371
      4 C          -7.0647  -15.5383   27.1349 C.ar    1  UNL1        0.0062
      5 C          -8.3388  -16.1734   26.6621 C.ar    1  UNL1        0.0371
      6 C          -8.5560  -16.4194   25.1984 C.ar    1  UNL1        0.1416
      7 C          -7.4992  -16.0305   24.2076 C.ar    1  UNL1        0.0738
      8 O          -9.8301  -17.0544   24.7256 O.3     1  UNL1       -0.4754
      9 C          -9.7980  -18.0664   23.6187 C.3     1  UNL1        0.2054
     10 C         -10.4814  -17.7746   22.3158 C.3     1  UNL1        0.0487
     11 C         -11.4409  -16.6263   22.2128 C.3     1  UNL1        0.0359
     12 C         -12.1244  -16.3345   20.9098 C.3     1  UNL1        0.1423
     13 O         -11.8484  -17.1911   19.7098 O.3     1  UNL1       -0.3538
     14 C         -10.8889  -18.3395   19.8128 C.3     1  UNL1        0.1423
     15 C         -10.2054  -18.6312   21.1157 C.3     1  UNL1        0.0359
     16 C          -3.9366  -15.8491   23.5371 C.3     1  UNL1        0.2506
     17 C          -1.6149  -16.3118   21.6944 C.3     1  UNL1        0.0358
     18 C          -2.7813  -17.2550   21.6827 C.2     1  UNL1        0.0342
     19 C          -3.9421  -17.0236   22.6040 C.2     1  UNL1        0.1013
     20 N          -5.1085  -17.9667   22.5923 N.2     1  UNL1       -0.2501
     21 C          -5.1140  -19.1413   21.6593 C.2     1  UNL1        0.0661
     22 C          -6.2803  -20.0843   21.6476 C.3     1  UNL1        0.0718
     23 C          -6.2858  -21.2588   20.7146 C.2     1  UNL1       -0.0198
     24 C          -5.1250  -21.4902   19.7932 C.2     1  UNL1       -0.0040
     25 C          -3.9586  -20.5471   19.8049 C.2     1  UNL1        0.0040
     26 C          -3.9531  -19.3726   20.7379 C.2     1  UNL1        0.0525
     27 C          -2.7868  -18.4294   20.7497 C.2     1  UNL1        0.1940
     28 O          -1.6259  -18.6608   19.8283 O.2     1  UNL1       -0.2868
@<TRIPOS>BOND
     1    17    18    1
     2    18    19    2
     3    19    16    1
     4    16     1    1
     5     1     2    1
     6     2     3   ar
     7     3     4   ar
     8     4     5   ar
     9     5     6   ar
    10     6     8    1
    11     8     9    1
    12     9    10    1
    13    10    11    1
    14    11    12    1
    15    12    13    1
    16    13    14    1
    17    14    15    1
    18     6     7   ar
    19    19    20    1
    20    20    21    2
    21    21    22    1
    22    22    23    1
    23    23    24    2
    24    24    25    1
    25    25    26    2
    26    26    27    1
    27    27    28    2
    28    27    18    1
    29     7     2   ar
    30    26    21    1
    31    15    10    1
@<TRIPOS>MOLECULE
*****
 28 31 0 0 0
SMALL
GASTEIGER

@<TRIPOS>ATOM
      1 O          -4.8586  -15.1719   23.9135 O.3     1  UNL1       -0.4689
      2 C          -6.0395  -15.2682   24.8333 C.ar    1  UNL1        0.1422
      3 C          -5.8334  -15.2874   26.3189 C.ar    1  UNL1        0.0371
      4 C          -7.0143  -15.3836   27.2388 C.ar    1  UNL1        0.0062
      5 C          -8.4014  -15.4607   26.6730 C.ar    1  UNL1        0.0371
      6 C          -8.6075  -15.4414   25.1873 C.ar    1  UNL1        0.1416
      7 C          -7.4266  -15.3452   24.2675 C.ar    1  UNL1        0.0738
      8 O          -9.9945  -15.5185   24.6215 O.3     1  UNL1       -0.4754
      9 C         -10.2510  -16.3024   23.3686 C.3     1  UNL1        0.2054
     10 C         -10.3354  -17.7990   23.4243 C.3     1  UNL1        0.0487
     11 C          -9.9631  -18.5248   24.6831 C.3     1  UNL1        0.0359
     12 C         -10.0475  -20.0214   24.7388 C.3     1  UNL1        0.1423
     13 O         -10.5042  -20.7922   23.5358 O.3     1  UNL1       -0.3538
     14 C         -10.8765  -20.0663   22.2770 C.3     1  UNL1        0.1423
     15 C         -10.7921  -18.5698   22.2212 C.3     1  UNL1        0.0359
     16 C          -3.8853  -16.3095   23.8209 C.3     1  UNL1        0.2506
     17 C          -1.6440  -18.0779   22.8994 C.3     1  UNL1        0.0358
     18 C          -3.0486  -18.3514   22.4496 C.2     1  UNL1        0.0342
     19 C          -4.1693  -17.4672   22.9103 C.2     1  UNL1        0.1013
     20 N          -5.5738  -17.7407   22.4605 N.2     1  UNL1       -0.2501
     21 C          -5.8578  -18.8984   21.5499 C.2     1  UNL1        0.0661
     22 C          -7.2623  -19.1719   21.1001 C.3     1  UNL1        0.0718
     23 C          -7.5462  -20.3296   20.1895 C.2     1  UNL1       -0.0198
     24 C          -6.4255  -21.2138   19.7288 C.2     1  UNL1       -0.0040
     25 C          -5.0210  -20.9403   20.1786 C.2     1  UNL1        0.0040
     26 C          -4.7371  -19.7826   21.0892 C.2     1  UNL1        0.0525
     27 C          -3.3325  -19.5091   21.5390 C.2     1  UNL1        0.1940
     28 O          -2.2118  -20.3933   21.0783 O.2     1  UNL1       -0.2868
@<TRIPOS>BOND
     1    17    18    1
     2    18    19    2
     3    19    16    1
     4    16     1    1
     5     1     2    1
     6     2     3   ar
     7     3     4   ar
     8     4     5   ar
     9     5     6   ar
    10     6     8    1
    11     8     9    1
    12     9    10    1
    13    10    11    1
    14    11    12    1
    15    12    13    1
    16    13    14    1
    17    14    15    1
    18     6     7   ar
    19    19    20    1
    20    20    21    2
    21    21    22    1
    22    22    23    1
    23    23    24    2
    24    24    25    1
    25    25    26    2
    26    26    27    1
    27    27    28    2
    28    27    18    1
    29     7     2   ar
    30    26    21    1
    31    15    10    1
@<TRIPOS>MOLECULE
*****
 28 31 0 0 0
SMALL
GASTEIGER

@<TRIPOS>ATOM
      1 O          -4.6674  -15.9871   24.7151 O.3     1  UNL1       -0.4689
      2 C          -6.0171  -15.7794   25.3356 C.ar    1  UNL1        0.1422
      3 C          -6.1260  -15.3696   26.7744 C.ar    1  UNL1        0.0371
      4 C          -7.4757  -15.1619   27.3951 C.ar    1  UNL1        0.0062
      5 C          -8.7166  -15.3640   26.5769 C.ar    1  UNL1        0.0371
      6 C          -8.6077  -15.7738   25.1380 C.ar    1  UNL1        0.1416
      7 C          -7.2580  -15.9815   24.5174 C.ar    1  UNL1        0.0738
      8 O          -9.8485  -15.9759   24.3198 O.3     1  UNL1       -0.4754
      9 C         -10.0738  -17.2769   23.6078 C.3     1  UNL1        0.2054
     10 C         -10.6239  -17.2827   22.2123 C.3     1  UNL1        0.0487
     11 C         -10.3048  -18.4177   21.2851 C.3     1  UNL1        0.0359
     12 C         -10.8549  -18.4235   19.8896 C.3     1  UNL1        0.1423
     13 O         -11.7241  -17.2942   19.4214 O.3     1  UNL1       -0.3538
     14 C         -12.0433  -16.1591   20.3487 C.3     1  UNL1        0.1423
     15 C         -11.4931  -16.1534   21.7442 C.3     1  UNL1        0.0359
     16 C          -4.2107  -17.3708   24.3587 C.3     1  UNL1        0.2506
     17 C          -6.0010  -18.9815   22.5698 C.3     1  UNL1        0.0358
     18 C          -4.6799  -18.4869   22.0599 C.2     1  UNL1        0.0342
     19 C          -3.7847  -17.6815   22.9544 C.2     1  UNL1        0.1013
     20 N          -2.4636  -17.1868   22.4446 N.2     1  UNL1       -0.2501
     21 C          -2.0376  -17.4976   21.0402 C.2     1  UNL1        0.0661
     22 C          -0.7164  -17.0029   20.5305 C.3     1  UNL1        0.0718
     23 C          -0.2905  -17.3137   19.1262 C.2     1  UNL1       -0.0198
     24 C          -1.1856  -18.1191   18.2318 C.2     1  UNL1       -0.0040
     25 C          -2.5068  -18.6137   18.7415 C.2     1  UNL1        0.0040
     26 C          -2.9327  -18.3030   20.1458 C.2     1  UNL1        0.0525
     27 C          -4.2539  -18.7976   20.6557 C.2     1  UNL1        0.1940
     28 O          -5.1491  -19.6030   19.7612 O.2     1  UNL1       -0.2868
@<TRIPOS>BOND
     1    17    18    1
     2    18    19    2
     3    19    16    1
     4    16     1    1
     5     1     2    1
     6     2     3   ar
     7     3     4   ar
     8     4     5   ar
     9     5     6   ar
    10     6     8    1
    11     8     9    1
    12     9    10    1
    13    10    11    1
    14    11    12    1
    15    12    13    1
    16    13    14    1
    17    14    15    1
    18     6     7   ar
    19    19    20    1
    20    20    21    2
    21    21    22    1
    22    22    23    1
    23    23    24    2
    24    24    25    1
    25    25    26    2
    26    26    27    1
    27    27    28    2
    28    27    18    1
    29     7     2   ar
    30    26    21    1
    31    15    10    1
