@<TRIPOS>MOLECULE
*****
 28 31 0 0 0
SMALL
GASTEIGER

@<TRIPOS>ATOM
      1 N           6.5347   -3.4466   31.2085 N.3     1  UNL1       -0.2711
      2 C           6.5419   -3.0167   29.7715 C.3     1  UNL1        0.0939
      3 C           6.9393   -3.9883   28.6999 C.3     1  UNL1        0.1123
      4 N           7.3293   -5.3898   29.0655 N.am    1  UNL1       -0.2612
      5 C           7.7267   -6.3614   27.9939 C.2     1  UNL1        0.3072
      6 O           8.1167   -7.7629   28.3595 O.2     1  UNL1       -0.2523
      7 N           7.7339   -5.9315   26.5569 N.am    1  UNL1       -0.2640
      8 C           8.1312   -6.9031   25.4854 C.3     1  UNL1        0.0954
      9 C           8.1385   -6.4732   24.0483 C.3     1  UNL1        0.0307
     10 C           7.7484   -5.0717   23.6828 C.3     1  UNL1        0.0801
     11 C           7.3511   -4.1001   24.7543 C.3     1  UNL1        0.0307
     12 C           7.3438   -4.5300   26.1913 C.3     1  UNL1        0.0954
     13 C           7.3221   -5.8197   30.5025 C.3     1  UNL1        0.1123
     14 C           6.9248   -4.8481   31.5740 C.3     1  UNL1        0.0939
     15 C           7.7556   -4.6418   22.2458 C.2     1  UNL1        0.2253
     16 O           8.9324   -4.9629   21.3728 O.2     1  UNL1       -0.2749
     17 N           5.0881   -2.8195   20.5964 N.am    1  UNL1       -0.2796
     18 C           4.4706   -2.8778   21.8062 C.3     1  UNL1        0.0933
     19 C           4.3392   -2.8879   22.0560 C.3     1  UNL1        0.0199
     20 C           5.6939   -3.5068   21.8776 C.3     1  UNL1        0.0018
     21 C           6.3774   -3.4440   20.5440 C.3     1  UNL1        0.0018
     22 C           5.7064   -2.7622   19.3886 C.3     1  UNL1        0.0199
     23 C           4.3517   -2.1433   19.5669 C.3     1  UNL1        0.0018
     24 C           3.6682   -2.2061   20.9006 C.3     1  UNL1        0.0018
     25 C           5.0273   -2.8268   20.7208 C.3     1  UNL1        0.0933
     26 C           7.1210   -1.4533   32.7682 C.3     1  UNL1        0.0173
     27 C           6.1374   -2.4750   32.2800 C.3     1  UNL1        0.0577
     28 C           4.7564   -2.5252   32.8633 C.3     1  UNL1        0.0173
@<TRIPOS>BOND
     1    26    27    1
     2    27    28    1
     3    27     1    1
     4     1     2    1
     5     2     3    1
     6     3     4    1
     7     4     5   am
     8     5     6    2
     9     5     7   am
    10     7     8    1
    11     8     9    1
    12     9    10    1
    13    10    15    1
    14    15    16    2
    15    15    17   am
    16    17    18    1
    17    18    19    1
    18    19    20    1
    19    20    21    1
    20    21    22    1
    21    22    23    1
    22    23    24    1
    23    22    25    1
    24    10    11    1
    25    11    12    1
    26     4    13    1
    27    13    14    1
    28    14     1    1
    29    12     7    1
    30    25    17    1
    31    24    19    1
@<TRIPOS>MOLECULE
*****
 28 31 0 0 0
SMALL
GASTEIGER

@<TRIPOS>ATOM
      1 N          -4.9924    4.0430   20.6350 N.3     1  UNL1       -0.2711
      2 C          -3.8696    3.5165   19.7910 C.3     1  UNL1        0.0939
      3 C          -2.5293    3.2480   20.4086 C.3     1  UNL1        0.1123
      4 N          -2.3118    3.5058   21.8702 N.am    1  UNL1       -0.2612
      5 C          -0.9714    3.2373   22.4878 C.2     1  UNL1        0.3072
      6 O          -0.7539    3.4951   23.9493 O.2     1  UNL1       -0.2523
      7 N           0.1513    2.7108   21.6438 N.am    1  UNL1       -0.2640
      8 C           1.4916    2.4423   22.2614 C.3     1  UNL1        0.0954
      9 C           2.6144    1.9158   21.4174 C.3     1  UNL1        0.0307
     10 C           2.3968    1.6580   19.9559 C.3     1  UNL1        0.0801
     11 C           1.0565    1.9265   19.3383 C.3     1  UNL1        0.0307
     12 C          -0.0662    2.4530   20.1822 C.3     1  UNL1        0.0954
     13 C          -3.4345    4.0323   22.7141 C.3     1  UNL1        0.1123
     14 C          -4.7748    4.3008   22.0965 C.3     1  UNL1        0.0939
     15 C           3.5196    1.1316   19.1120 C.2     1  UNL1        0.2253
     16 O           4.3641    2.0784   18.3118 O.2     1  UNL1       -0.2749
     17 N           4.4374   -2.3637   18.7994 N.am    1  UNL1       -0.2796
     18 C           3.4075   -2.5810   19.6598 C.3     1  UNL1        0.0933
     19 C           3.1943   -2.6302   19.8384 C.3     1  UNL1        0.0199
     20 C           3.5212   -1.2329   19.4018 C.3     1  UNL1        0.0018
     21 C           4.6570   -0.9902   18.4526 C.3     1  UNL1        0.0018
     22 C           5.4659   -2.1447   17.9400 C.3     1  UNL1        0.0199
     23 C           5.1390   -3.5420   18.3767 C.3     1  UNL1        0.0018
     24 C           4.0032   -3.7847   19.3259 C.3     1  UNL1        0.0018
     25 C           4.3319   -2.3831   18.8872 C.3     1  UNL1        0.0933
     26 C          -7.2221    5.3756   20.5888 C.3     1  UNL1        0.0173
     27 C          -6.3327    4.3115   20.0174 C.3     1  UNL1        0.0577
     28 C          -6.7836    3.5160   18.8284 C.3     1  UNL1        0.0173
@<TRIPOS>BOND
     1    26    27    1
     2    27    28    1
     3    27     1    1
     4     1     2    1
     5     2     3    1
     6     3     4    1
     7     4     5   am
     8     5     6    2
     9     5     7   am
    10     7     8    1
    11     8     9    1
    12     9    10    1
    13    10    15    1
    14    15    16    2
    15    15    17   am
    16    17    18    1
    17    18    19    1
    18    19    20    1
    19    20    21    1
    20    21    22    1
    21    22    23    1
    22    23    24    1
    23    22    25    1
    24    10    11    1
    25    11    12    1
    26     4    13    1
    27    13    14    1
    28    14     1    1
    29    12     7    1
    30    25    17    1
    31    24    19    1
@<TRIPOS>MOLECULE
*****
 28 31 0 0 0
SMALL
GASTEIGER

@<TRIPOS>ATOM
      1 N           7.0809   -4.8067   28.2454 N.3     1  UNL1       -0.2711
      2 C           6.6487   -3.7268   27.2983 C.3     1  UNL1        0.0939
      3 C           6.8323   -3.9076   25.8206 C.3     1  UNL1        0.1123
      4 N           7.4481   -5.1681   25.2900 N.am    1  UNL1       -0.2612
      5 C           7.6317   -5.3488   23.8123 C.2     1  UNL1        0.3072
      6 O           8.2476   -6.6094   23.2816 O.2     1  UNL1       -0.2523
      7 N           7.1995   -4.2690   22.8652 N.am    1  UNL1       -0.2640
      8 C           7.3831   -4.4497   21.3875 C.3     1  UNL1        0.0954
      9 C           6.9508   -3.3698   20.4404 C.3     1  UNL1        0.0307
     10 C           6.3349   -2.1092   20.9710 C.3     1  UNL1        0.0801
     11 C           6.1513   -1.9285   22.4487 C.3     1  UNL1        0.0307
     12 C           6.5836   -3.0083   23.3958 C.3     1  UNL1        0.0954
     13 C           7.8804   -6.2480   26.2370 C.3     1  UNL1        0.1123
     14 C           7.6968   -6.0672   27.7148 C.3     1  UNL1        0.0939
     15 C           5.9026   -1.0294   20.0239 C.2     1  UNL1        0.2253
     16 O           6.9259   -0.2814   19.2218 O.2     1  UNL1       -0.2749
     17 N           2.4714    0.0002   19.4545 N.am    1  UNL1       -0.2796
     18 C           2.1648   -0.9569   20.3700 C.3     1  UNL1        0.0933
     19 C           2.0972   -1.1548   20.5598 C.3     1  UNL1        0.0199
     20 C           3.5284   -0.9146   20.1805 C.3     1  UNL1        0.0018
     21 C           3.8696    0.1407   19.1706 C.3     1  UNL1        0.0018
     22 C           2.7796    0.9558   18.5400 C.3     1  UNL1        0.0199
     23 C           1.3484    0.7156   18.9194 C.3     1  UNL1        0.0018
     24 C           1.0072   -0.3397   19.9293 C.3     1  UNL1        0.0018
     25 C           2.4429   -0.0980   19.5481 C.3     1  UNL1        0.0933
     26 C           6.6156   -3.2631   30.2827 C.3     1  UNL1        0.0173
     27 C           6.8974   -4.6260   29.7231 C.3     1  UNL1        0.0577
     28 C           6.9955   -5.8081   30.6412 C.3     1  UNL1        0.0173
@<TRIPOS>BOND
     1    26    27    1
     2    27    28    1
     3    27     1    1
     4     1     2    1
     5     2     3    1
     6     3     4    1
     7     4     5   am
     8     5     6    2
     9     5     7   am
    10     7     8    1
    11     8     9    1
    12     9    10    1
    13    10    15    1
    14    15    16    2
    15    15    17   am
    16    17    18    1
    17    18    19    1
    18    19    20    1
    19    20    21    1
    20    21    22    1
    21    22    23    1
    22    23    24    1
    23    22    25    1
    24    10    11    1
    25    11    12    1
    26     4    13    1
    27    13    14    1
    28    14     1    1
    29    12     7    1
    30    25    17    1
    31    24    19    1
@<TRIPOS>MOLECULE
*****
 28 31 0 0 0
SMALL
GASTEIGER

@<TRIPOS>ATOM
      1 N           4.3385   -2.6860   20.3670 N.3     1  UNL1       -0.2711
      2 C           4.9750   -2.9296   21.7032 C.3     1  UNL1        0.0939
      3 C           4.4915   -2.1836   22.9114 C.3     1  UNL1        0.1123
      4 N           3.3716   -1.1940   22.7834 N.am    1  UNL1       -0.2612
      5 C           2.8882   -0.4480   23.9916 C.2     1  UNL1        0.3072
      6 O           1.7683    0.5416   23.8636 O.2     1  UNL1       -0.2523
      7 N           3.5247   -0.6916   25.3278 N.am    1  UNL1       -0.2640
      8 C           3.0412    0.0544   26.5360 C.3     1  UNL1        0.0954
      9 C           3.6778   -0.1892   27.8723 C.3     1  UNL1        0.0307
     10 C           4.7977   -1.1789   28.0003 C.3     1  UNL1        0.0801
     11 C           5.2811   -1.9249   26.7921 C.3     1  UNL1        0.0307
     12 C           4.6446   -1.6813   25.4559 C.3     1  UNL1        0.0954
     13 C           2.7352   -0.9504   21.4472 C.3     1  UNL1        0.1123
     14 C           3.2186   -1.6964   20.2389 C.3     1  UNL1        0.0939
     15 C           5.4341   -1.4225   29.3365 C.2     1  UNL1        0.2253
     16 O           5.4576   -0.3319   30.3661 O.2     1  UNL1       -0.2749
     17 N           6.9936   -4.5291   30.3729 N.am    1  UNL1       -0.2796
     18 C           6.6472   -4.9698   29.1344 C.3     1  UNL1        0.0933
     19 C           6.5768   -5.0650   28.8780 C.3     1  UNL1        0.0199
     20 C           6.2365   -3.6650   29.2953 C.3     1  UNL1        0.0018
     21 C           6.6175   -3.1761   30.6612 C.3     1  UNL1        0.0018
     22 C           7.3389   -4.0870   31.6097 C.3     1  UNL1        0.0199
     23 C           7.6793   -5.4870   31.1924 C.3     1  UNL1        0.0018
     24 C           7.2983   -5.9760   29.8265 C.3     1  UNL1        0.0018
     25 C           6.9571   -4.5715   30.2461 C.3     1  UNL1        0.0933
     26 C           5.7625   -2.7706   18.1956 C.3     1  UNL1        0.0173
     27 C           4.8219   -3.4320   19.1587 C.3     1  UNL1        0.0577
     28 C           4.3648   -4.8395   18.9137 C.3     1  UNL1        0.0173
@<TRIPOS>BOND
     1    26    27    1
     2    27    28    1
     3    27     1    1
     4     1     2    1
     5     2     3    1
     6     3     4    1
     7     4     5   am
     8     5     6    2
     9     5     7   am
    10     7     8    1
    11     8     9    1
    12     9    10    1
    13    10    15    1
    14    15    16    2
    15    15    17   am
    16    17    18    1
    17    18    19    1
    18    19    20    1
    19    20    21    1
    20    21    22    1
    21    22    23    1
    22    23    24    1
    23    22    25    1
    24    10    11    1
    25    11    12    1
    26     4    13    1
    27    13    14    1
    28    14     1    1
    29    12     7    1
    30    25    17    1
    31    24    19    1
@<TRIPOS>MOLECULE
*****
 28 31 0 0 0
SMALL
GASTEIGER

@<TRIPOS>ATOM
      1 N           4.7193   -2.1060   20.3164 N.3     1  UNL1       -0.2711
      2 C           4.6498   -2.6161   21.7253 C.3     1  UNL1        0.0939
      3 C           5.7928   -3.4027   22.2954 C.3     1  UNL1        0.1123
      4 N           7.0052   -3.6791   21.4567 N.am    1  UNL1       -0.2612
      5 C           8.1481   -4.4657   22.0268 C.2     1  UNL1        0.3072
      6 O           9.3605   -4.7422   21.1881 O.2     1  UNL1       -0.2523
      7 N           8.0786   -4.9758   23.4357 N.am    1  UNL1       -0.2640
      8 C           9.2215   -5.7624   24.0058 C.3     1  UNL1        0.0954
      9 C           9.1520   -6.2725   25.4147 C.3     1  UNL1        0.0307
     10 C           7.9395   -5.9960   26.2534 C.3     1  UNL1        0.0801
     11 C           6.7966   -5.2094   25.6833 C.3     1  UNL1        0.0307
     12 C           6.8661   -4.6993   24.2745 C.3     1  UNL1        0.0954
     13 C           7.0747   -3.1690   20.0478 C.3     1  UNL1        0.1123
     14 C           5.9318   -2.3825   19.4777 C.3     1  UNL1        0.0939
     15 C           7.8700   -6.5061   27.6623 C.2     1  UNL1        0.2253
     16 O           8.2106   -7.9363   27.9598 O.2     1  UNL1       -0.2749
     17 N           6.9165   -4.5345   30.5538 N.am    1  UNL1       -0.2796
     18 C           6.7754   -3.5209   29.6589 C.3     1  UNL1        0.0933
     19 C           6.7450   -3.3078   29.4760 C.3     1  UNL1        0.0199
     20 C           7.1784   -4.6648   29.0061 C.3     1  UNL1        0.0018
     21 C           7.3349   -5.7850   29.9912 C.3     1  UNL1        0.0018
     22 C           7.0580   -5.5482   31.4463 C.3     1  UNL1        0.0199
     23 C           6.6246   -4.1913   31.9162 C.3     1  UNL1        0.0018
     24 C           6.4681   -3.0711   30.9311 C.3     1  UNL1        0.0018
     25 C           6.9029   -4.4329   30.4605 C.3     1  UNL1        0.0933
     26 C           2.3967   -0.9788   20.6078 C.3     1  UNL1        0.0173
     27 C           3.5764   -1.3194   19.7463 C.3     1  UNL1        0.0577
     28 C           3.6132   -0.8735   18.3146 C.3     1  UNL1        0.0173
@<TRIPOS>BOND
     1    26    27    1
     2    27    28    1
     3    27     1    1
     4     1     2    1
     5     2     3    1
     6     3     4    1
     7     4     5   am
     8     5     6    2
     9     5     7   am
    10     7     8    1
    11     8     9    1
    12     9    10    1
    13    10    15    1
    14    15    16    2
    15    15    17   am
    16    17    18    1
    17    18    19    1
    18    19    20    1
    19    20    21    1
    20    21    22    1
    21    22    23    1
    22    23    24    1
    23    22    25    1
    24    10    11    1
    25    11    12    1
    26     4    13    1
    27    13    14    1
    28    14     1    1
    29    12     7    1
    30    25    17    1
    31    24    19    1
@<TRIPOS>MOLECULE
*****
 28 31 0 0 0
SMALL
GASTEIGER

@<TRIPOS>ATOM
      1 N          -0.6736    1.5295   27.3018 N.3     1  UNL1       -0.2711
      2 C           0.3464    1.0270   26.3235 C.3     1  UNL1        0.0939
      3 C           0.3676    1.5604   24.9217 C.3     1  UNL1        0.1123
      4 N          -0.6312    2.5963   24.4982 N.am    1  UNL1       -0.2612
      5 C          -0.6100    3.1297   23.0964 C.2     1  UNL1        0.3072
      6 O          -1.6087    4.1656   22.6729 O.2     1  UNL1       -0.2523
      7 N           0.4100    2.6272   22.1181 N.am    1  UNL1       -0.2640
      8 C           0.4312    3.1606   20.7163 C.3     1  UNL1        0.0954
      9 C           1.4512    2.6581   19.7380 C.3     1  UNL1        0.0307
     10 C           2.4499    1.6222   20.1614 C.3     1  UNL1        0.0801
     11 C           2.4288    1.0888   21.5632 C.3     1  UNL1        0.0307
     12 C           1.4088    1.5913   22.5415 C.3     1  UNL1        0.0954
     13 C          -1.6511    3.0988   25.4765 C.3     1  UNL1        0.1123
     14 C          -1.6723    2.5654   26.8783 C.3     1  UNL1        0.0939
     15 C           3.4699    1.1197   19.1831 C.2     1  UNL1        0.2253
     16 O           4.1642    2.0803   18.2637 O.2     1  UNL1       -0.2749
     17 N           4.4701   -2.3460   18.8022 N.am    1  UNL1       -0.2796
     18 C           3.5725   -2.5831   19.7953 C.3     1  UNL1        0.0933
     19 C           3.3869   -2.6362   20.0015 C.3     1  UNL1        0.0199
     20 C           3.5997   -1.2370   19.5047 C.3     1  UNL1        0.0018
     21 C           4.5894   -0.9726   18.4091 C.3     1  UNL1        0.0018
     22 C           5.3663   -2.1074   17.8102 C.3     1  UNL1        0.0199
     23 C           5.1535   -3.5066   18.3070 C.3     1  UNL1        0.0018
     24 C           4.1638   -3.7710   19.4026 C.3     1  UNL1        0.0018
     25 C           4.3779   -2.3675   18.9036 C.3     1  UNL1        0.0933
     26 C          -1.5973   -0.1487   29.0569 C.3     1  UNL1        0.0173
     27 C          -0.6948    0.9961   28.7036 C.3     1  UNL1        0.0577
     28 C           0.1866    1.6075   29.7521 C.3     1  UNL1        0.0173
@<TRIPOS>BOND
     1    26    27    1
     2    27    28    1
     3    27     1    1
     4     1     2    1
     5     2     3    1
     6     3     4    1
     7     4     5   am
     8     5     6    2
     9     5     7   am
    10     7     8    1
    11     8     9    1
    12     9    10    1
    13    10    15    1
    14    15    16    2
    15    15    17   am
    16    17    18    1
    17    18    19    1
    18    19    20    1
    19    20    21    1
    20    21    22    1
    21    22    23    1
    22    23    24    1
    23    22    25    1
    24    10    11    1
    25    11    12    1
    26     4    13    1
    27    13    14    1
    28    14     1    1
    29    12     7    1
    30    25    17    1
    31    24    19    1
@<TRIPOS>MOLECULE
*****
 28 31 0 0 0
SMALL
GASTEIGER

@<TRIPOS>ATOM
      1 N           3.7857   -2.4051   20.0917 N.3     1  UNL1       -0.2711
      2 C           2.7526   -1.4496   19.5724 C.3     1  UNL1        0.0939
      3 C           2.0979   -0.4735   20.5045 C.3     1  UNL1        0.1123
      4 N           2.4763   -0.4530   21.9558 N.am    1  UNL1       -0.2612
      5 C           1.8216    0.5230   22.8878 C.2     1  UNL1        0.3072
      6 O           2.2001    0.5436   24.3391 O.2     1  UNL1       -0.2523
      7 N           0.7886    1.4786   22.3686 N.am    1  UNL1       -0.2640
      8 C           0.1339    2.4546   23.3006 C.3     1  UNL1        0.0954
      9 C          -0.8993    3.4101   22.7813 C.3     1  UNL1        0.0307
     10 C          -1.2777    3.3896   21.3300 C.3     1  UNL1        0.0801
     11 C          -0.6230    2.4136   20.3980 C.3     1  UNL1        0.0307
     12 C           0.4101    1.4581   20.9172 C.3     1  UNL1        0.0954
     13 C           3.5094   -1.4085   22.4750 C.3     1  UNL1        0.1123
     14 C           4.1641   -2.3846   21.5430 C.3     1  UNL1        0.0939
     15 C          -2.3108    4.3451   20.8108 C.2     1  UNL1        0.2253
     16 O          -1.9570    5.3124   19.7203 O.2     1  UNL1       -0.2749
     17 N          -5.7365    4.5588   21.9837 N.am    1  UNL1       -0.2796
     18 C          -5.3785    3.5527   22.8250 C.3     1  UNL1        0.0933
     19 C          -5.3079    3.3437   23.0013 C.3     1  UNL1        0.0199
     20 C          -4.3029    3.9089   22.0419 C.3     1  UNL1        0.0018
     21 C          -4.6951    5.0191   21.1126 C.3     1  UNL1        0.0018
     22 C          -6.0923    5.5639   21.1426 C.3     1  UNL1        0.0199
     23 C          -7.0973    4.9986   22.1019 C.3     1  UNL1        0.0018
     24 C          -6.7051    3.8885   23.0313 C.3     1  UNL1        0.0018
     25 C          -5.6974    4.4563   22.0684 C.3     1  UNL1        0.0933
     26 C           5.5398   -2.9248   18.2469 C.3     1  UNL1        0.0173
     27 C           4.4404   -3.3811   19.1596 C.3     1  UNL1        0.0577
     28 C           3.9957   -4.8135   19.1403 C.3     1  UNL1        0.0173
@<TRIPOS>BOND
     1    26    27    1
     2    27    28    1
     3    27     1    1
     4     1     2    1
     5     2     3    1
     6     3     4    1
     7     4     5   am
     8     5     6    2
     9     5     7   am
    10     7     8    1
    11     8     9    1
    12     9    10    1
    13    10    15    1
    14    15    16    2
    15    15    17   am
    16    17    18    1
    17    18    19    1
    18    19    20    1
    19    20    21    1
    20    21    22    1
    21    22    23    1
    22    23    24    1
    23    22    25    1
    24    10    11    1
    25    11    12    1
    26     4    13    1
    27    13    14    1
    28    14     1    1
    29    12     7    1
    30    25    17    1
    31    24    19    1
@<TRIPOS>MOLECULE
*****
 28 31 0 0 0
SMALL
GASTEIGER

@<TRIPOS>ATOM
      1 N          -4.0047    4.4705   20.9689 N.3     1  UNL1       -0.2711
      2 C          -3.2490    3.2022   20.7044 C.3     1  UNL1        0.0939
      3 C          -1.8555    3.2607   20.1523 C.3     1  UNL1        0.1123
      4 N          -1.2178    4.5875   19.8648 N.am    1  UNL1       -0.2612
      5 C           0.1757    4.6460   19.3127 C.2     1  UNL1        0.3072
      6 O           0.8134    5.9729   19.0252 O.2     1  UNL1       -0.2523
      7 N           0.9315    3.3777   19.0482 N.am    1  UNL1       -0.2640
      8 C           2.3249    3.4362   18.4961 C.3     1  UNL1        0.0954
      9 C           3.0807    2.1677   18.2315 C.3     1  UNL1        0.0307
     10 C           2.4430    0.8408   18.5190 C.3     1  UNL1        0.0801
     11 C           1.0495    0.7823   19.0711 C.3     1  UNL1        0.0307
     12 C           0.2937    2.0507   19.3357 C.3     1  UNL1        0.0954
     13 C          -1.9735    5.8559   20.1294 C.3     1  UNL1        0.1123
     14 C          -3.3670    5.7974   20.6814 C.3     1  UNL1        0.0939
     15 C           3.1987   -0.4275   18.2544 C.2     1  UNL1        0.2253
     16 O           3.5461   -0.8140   16.8473 O.2     1  UNL1       -0.2749
     17 N           4.3211   -2.7599   20.7956 N.am    1  UNL1       -0.2796
     18 C           3.7431   -1.8924   21.6682 C.3     1  UNL1        0.0933
     19 C           3.6242   -1.7145   21.8526 C.3     1  UNL1        0.0199
     20 C           3.5890   -1.4285   20.3806 C.3     1  UNL1        0.0018
     21 C           4.2259   -2.3839   19.4155 C.3     1  UNL1        0.0018
     22 C           4.8980   -3.6254   19.9224 C.3     1  UNL1        0.0199
     23 C           4.9332   -3.9114   21.3944 C.3     1  UNL1        0.0018
     24 C           4.2963   -2.9560   22.3595 C.3     1  UNL1        0.0018
     25 C           4.2614   -2.6698   20.8824 C.3     1  UNL1        0.0933
     26 C          -5.6762    3.6374   22.7750 C.3     1  UNL1        0.0173
     27 C          -5.3982    4.4120   21.5210 C.3     1  UNL1        0.0577
     28 C          -6.5137    5.1282   20.8191 C.3     1  UNL1        0.0173
@<TRIPOS>BOND
     1    26    27    1
     2    27    28    1
     3    27     1    1
     4     1     2    1
     5     2     3    1
     6     3     4    1
     7     4     5   am
     8     5     6    2
     9     5     7   am
    10     7     8    1
    11     8     9    1
    12     9    10    1
    13    10    15    1
    14    15    16    2
    15    15    17   am
    16    17    18    1
    17    18    19    1
    18    19    20    1
    19    20    21    1
    20    21    22    1
    21    22    23    1
    22    23    24    1
    23    22    25    1
    24    10    11    1
    25    11    12    1
    26     4    13    1
    27    13    14    1
    28    14     1    1
    29    12     7    1
    30    25    17    1
    31    24    19    1
@<TRIPOS>MOLECULE
*****
 28 31 0 0 0
SMALL
GASTEIGER

@<TRIPOS>ATOM
      1 N           5.7860   -1.3283   32.0321 N.3     1  UNL1       -0.2711
      2 C           5.7860   -1.2483   30.5343 C.3     1  UNL1        0.0939
      3 C           6.1610   -2.4503   29.7190 C.3     1  UNL1        0.1123
      4 N           6.5360   -3.7322   30.4016 N.am    1  UNL1       -0.2612
      5 C           6.9110   -4.9342   29.5863 C.2     1  UNL1        0.3072
      6 O           7.2861   -6.2161   30.2689 O.2     1  UNL1       -0.2523
      7 N           6.9110   -4.8542   28.0885 N.am    1  UNL1       -0.2640
      8 C           7.2860   -6.0561   27.2732 C.3     1  UNL1        0.0954
      9 C           7.2860   -5.9761   25.7753 C.3     1  UNL1        0.0307
     10 C           6.9110   -4.6942   25.0927 C.3     1  UNL1        0.0801
     11 C           6.5360   -3.4922   25.9080 C.3     1  UNL1        0.0307
     12 C           6.5360   -3.5722   27.4058 C.3     1  UNL1        0.0954
     13 C           6.5360   -3.8122   31.8994 C.3     1  UNL1        0.1123
     14 C           6.1610   -2.6103   32.7147 C.3     1  UNL1        0.0939
     15 C           6.9110   -4.6142   23.5949 C.2     1  UNL1        0.2253
     16 O           7.8984   -5.4171   22.8009 O.2     1  UNL1       -0.2749
     17 N           4.6574   -2.5788   21.6111 N.am    1  UNL1       -0.2796
     18 C           4.1425   -2.2021   22.8116 C.3     1  UNL1        0.0933
     19 C           4.0329   -2.1215   23.0591 C.3     1  UNL1        0.0199
     20 C           5.1730   -3.0948   23.0071 C.3     1  UNL1        0.0018
     21 C           5.7431   -3.5122   21.6839 C.3     1  UNL1        0.0018
     22 C           5.1730   -2.9562   20.4127 C.3     1  UNL1        0.0199
     23 C           4.0329   -1.9829   20.4647 C.3     1  UNL1        0.0018
     24 C           3.4629   -1.5655   21.7879 C.3     1  UNL1        0.0018
     25 C           4.6068   -2.5420   21.7348 C.3     1  UNL1        0.0933
     26 C           4.7135   -0.3009   34.1638 C.3     1  UNL1        0.0173
     27 C           5.4109   -0.1264   32.8474 C.3     1  UNL1        0.0577
     28 C           5.7334    1.2501   32.3462 C.3     1  UNL1        0.0173
@<TRIPOS>BOND
     1    26    27    1
     2    27    28    1
     3    27     1    1
     4     1     2    1
     5     2     3    1
     6     3     4    1
     7     4     5   am
     8     5     6    2
     9     5     7   am
    10     7     8    1
    11     8     9    1
    12     9    10    1
    13    10    15    1
    14    15    16    2
    15    15    17   am
    16    17    18    1
    17    18    19    1
    18    19    20    1
    19    20    21    1
    20    21    22    1
    21    22    23    1
    22    23    24    1
    23    22    25    1
    24    10    11    1
    25    11    12    1
    26     4    13    1
    27    13    14    1
    28    14     1    1
    29    12     7    1
    30    25    17    1
    31    24    19    1
