@<TRIPOS>MOLECULE
*****
 29 33 0 0 0
SMALL
GASTEIGER

@<TRIPOS>ATOM
      1 O          -5.4185  -18.9850   22.5499 O.3     1  UNL1       -0.4725
      2 C          -4.2655  -18.0675   22.2694 C.3     1  UNL1        0.2026
      3 C          -3.3000  -18.1884   21.1278 C.ar    1  UNL1        0.0146
      4 C          -3.1918  -19.1773   20.0053 C.ar    1  UNL1       -0.0011
      5 C          -2.0970  -19.0415   18.9890 C.ar    1  UNL1       -0.0002
      6 C          -1.1103  -17.9167   19.0954 C.ar    1  UNL1       -0.0003
      7 C          -1.2185  -16.9277   20.2179 C.ar    1  UNL1       -0.0044
      8 C          -2.3133  -17.0636   21.2342 C.ar    1  UNL1       -0.0213
      9 C          -2.6691  -16.2475   22.4415 C.3     1  UNL1        0.0461
     10 C          -3.8756  -16.8680   23.0813 C.3     1  UNL1        0.1066
     11 N          -4.5702  -16.3754   24.3162 N.3     1  UNL1       -0.2703
     12 C          -4.4686  -16.9796   25.6853 C.3     1  UNL1        0.0722
     13 C          -5.3240  -16.1698   26.6141 C.3     1  UNL1        0.0188
     14 C          -5.9543  -15.0651   25.8189 C.3     1  UNL1        0.0188
     15 C          -5.4884  -15.1922   24.3987 C.3     1  UNL1        0.0722
     16 C          -9.6164  -17.6840   21.5829 C.ar    1  UNL1        0.0672
     17 C          -8.8992  -17.0899   22.7588 C.ar    1  UNL1        0.0208
     18 C          -7.4999  -17.5236   23.0811 C.ar    1  UNL1        0.0393
     19 C          -6.8178  -18.5514   22.2275 C.ar    1  UNL1        0.1494
     20 C          -7.5350  -19.1454   21.0517 C.ar    1  UNL1        0.0930
     21 CL         -6.8530  -20.1732   20.1981 Cl      1  UNL1       -0.0790
     22 C          -8.9343  -18.7117   20.7294 C.ar    1  UNL1        0.0320
     23 C         -12.3394  -18.7701   23.0165 C.3     1  UNL1        0.0742
     24 C         -12.2673  -17.7495   21.9195 C.ar    1  UNL1        0.1473
     25 N         -13.4342  -17.0490   21.2889 N.ar    1  UNL1       -0.1333
     26 N         -12.9038  -16.1168   20.2403 N.ar    1  UNL1       -0.1333
     27 C         -11.4091  -16.2413   20.2227 C.ar    1  UNL1        0.1473
     28 C         -10.4721  -15.4887   19.3250 C.3     1  UNL1        0.0742
     29 N         -11.0157  -17.2503   21.2606 N.ar    1  UNL1       -0.2807
@<TRIPOS>BOND
     1    23    24    1
     2    24    25   ar
     3    25    26   ar
     4    26    27   ar
     5    27    28    1
     6    27    29   ar
     7    29    16    1
     8    16    17   ar
     9    17    18   ar
    10    18    19   ar
    11    19     1    1
    12     2     1    1
    13     2     3    1
    14     3     4   ar
    15     4     5   ar
    16     5     6   ar
    17     6     7   ar
    18     7     8   ar
    19     8     9    1
    20     9    10    1
    21    10    11    1
    22    11    12    1
    23    12    13    1
    24    13    14    1
    25    14    15    1
    26    19    20   ar
    27    20    21    1
    28    20    22   ar
    29    29    24   ar
    30    22    16   ar
    31    10     2    1
    32    15    11    1
    33     8     3   ar
@<TRIPOS>MOLECULE
*****
 29 33 0 0 0
SMALL
GASTEIGER

@<TRIPOS>ATOM
      1 O          -7.7557  -18.8105   23.0260 O.3     1  UNL1       -0.4725
      2 C          -8.7950  -17.7388   22.8794 C.3     1  UNL1        0.2026
      3 C          -9.8175  -17.6459   21.7858 C.ar    1  UNL1        0.0146
      4 C         -10.0991  -18.5180   20.5983 C.ar    1  UNL1       -0.0011
      5 C         -11.2118  -18.1657   19.6562 C.ar    1  UNL1       -0.0002
      6 C         -12.0430  -16.9414   19.9016 C.ar    1  UNL1       -0.0003
      7 C         -11.7614  -16.0694   21.0891 C.ar    1  UNL1       -0.0044
      8 C         -10.6487  -16.4216   22.0312 C.ar    1  UNL1       -0.0213
      9 C         -10.1398  -15.7578   23.2764 C.3     1  UNL1        0.0461
     10 C          -8.9942  -16.5719   23.8006 C.3     1  UNL1        0.1066
     11 N          -8.1892  -16.2718   25.0302 N.3     1  UNL1       -0.2703
     12 C          -6.8796  -15.5415   25.0701 C.3     1  UNL1        0.0722
     13 C          -6.4334  -15.4676   26.5003 C.3     1  UNL1        0.0188
     14 C          -7.4672  -16.1523   27.3443 C.3     1  UNL1        0.0188
     15 C          -8.5524  -16.6493   26.4358 C.3     1  UNL1        0.0722
     16 C          -3.8184  -18.4354   20.8797 C.ar    1  UNL1        0.0672
     17 C          -4.0082  -17.7845   22.2177 C.ar    1  UNL1        0.0208
     18 C          -5.3207  -17.9095   22.9331 C.ar    1  UNL1        0.0393
     19 C          -6.4434  -18.6855   22.3106 C.ar    1  UNL1        0.1494
     20 C          -6.2535  -19.3364   20.9725 C.ar    1  UNL1        0.0930
     21 CL         -7.3761  -20.1123   20.3499 Cl      1  UNL1       -0.0790
     22 C          -4.9411  -19.2113   20.2571 C.ar    1  UNL1        0.0320
     23 C          -3.3202  -16.9084   18.0390 C.3     1  UNL1        0.0742
     24 C          -2.2769  -17.6085   18.8586 C.ar    1  UNL1        0.1473
     25 N          -0.8215  -17.7296   18.5163 N.ar    1  UNL1       -0.1333
     26 N          -0.1511  -18.5063   19.6105 N.ar    1  UNL1       -0.1333
     27 C          -1.1921  -18.8652   20.6290 C.ar    1  UNL1        0.1473
     28 C          -0.9601  -19.6426   21.8907 C.3     1  UNL1        0.0742
     29 N          -2.5060  -18.3104   20.1643 N.ar    1  UNL1       -0.2807
@<TRIPOS>BOND
     1    23    24    1
     2    24    25   ar
     3    25    26   ar
     4    26    27   ar
     5    27    28    1
     6    27    29   ar
     7    29    16    1
     8    16    17   ar
     9    17    18   ar
    10    18    19   ar
    11    19     1    1
    12     2     1    1
    13     2     3    1
    14     3     4   ar
    15     4     5   ar
    16     5     6   ar
    17     6     7   ar
    18     7     8   ar
    19     8     9    1
    20     9    10    1
    21    10    11    1
    22    11    12    1
    23    12    13    1
    24    13    14    1
    25    14    15    1
    26    19    20   ar
    27    20    21    1
    28    20    22   ar
    29    29    24   ar
    30    22    16   ar
    31    10     2    1
    32    15    11    1
    33     8     3   ar
@<TRIPOS>MOLECULE
*****
 29 33 0 0 0
SMALL
GASTEIGER

@<TRIPOS>ATOM
      1 O          -7.7535  -18.8103   23.0258 O.3     1  UNL1       -0.4725
      2 C          -8.7925  -17.7381   22.8814 C.3     1  UNL1        0.2026
      3 C          -9.8165  -17.6440   21.7894 C.ar    1  UNL1        0.0146
      4 C         -10.1003  -18.5152   20.6018 C.ar    1  UNL1       -0.0011
      5 C         -11.2143  -18.1619   19.6615 C.ar    1  UNL1       -0.0002
      6 C         -12.0445  -16.9373   19.9089 C.ar    1  UNL1       -0.0003
      7 C         -11.7608  -16.0662   21.0966 C.ar    1  UNL1       -0.0044
      8 C         -10.6468  -16.4195   22.0368 C.ar    1  UNL1       -0.0213
      9 C         -10.1359  -15.7568   23.2817 C.3     1  UNL1        0.0461
     10 C          -8.9898  -16.5717   23.8037 C.3     1  UNL1        0.1066
     11 N          -8.1828  -16.2727   25.0323 N.3     1  UNL1       -0.2703
     12 C          -8.5444  -16.6503   26.4382 C.3     1  UNL1        0.0722
     13 C          -7.4576  -16.1546   27.3455 C.3     1  UNL1        0.0188
     14 C          -6.4243  -15.4706   26.5003 C.3     1  UNL1        0.0188
     15 C          -6.8725  -15.5436   25.0706 C.3     1  UNL1        0.0722
     16 C          -3.8181  -18.4342   20.8761 C.ar    1  UNL1        0.0672
     17 C          -4.0042  -17.7903   22.2181 C.ar    1  UNL1        0.0208
     18 C          -5.3160  -17.9157   22.9346 C.ar    1  UNL1        0.0393
     19 C          -6.4418  -18.6849   22.3092 C.ar    1  UNL1        0.1494
     20 C          -6.2556  -19.3288   20.9673 C.ar    1  UNL1        0.0930
     21 CL         -7.3812  -20.0980   20.3418 Cl      1  UNL1       -0.0790
     22 C          -4.9438  -19.2034   20.2507 C.ar    1  UNL1        0.0320
     23 C          -0.9582  -19.6384   21.8859 C.3     1  UNL1        0.0742
     24 C          -1.1917  -18.8623   20.6236 C.ar    1  UNL1        0.1473
     25 N          -0.1517  -18.5035   19.6041 N.ar    1  UNL1       -0.1333
     26 N          -0.8235  -17.7281   18.5098 N.ar    1  UNL1       -0.1333
     27 C          -2.2787  -17.6078   18.8530 C.ar    1  UNL1        0.1473
     28 C          -3.3231  -16.9092   18.0337 C.3     1  UNL1        0.0742
     29 N          -2.5063  -18.3088   20.1595 N.ar    1  UNL1       -0.2807
@<TRIPOS>BOND
     1    23    24    1
     2    24    25   ar
     3    25    26   ar
     4    26    27   ar
     5    27    28    1
     6    27    29   ar
     7    29    16    1
     8    16    17   ar
     9    17    18   ar
    10    18    19   ar
    11    19     1    1
    12     2     1    1
    13     2     3    1
    14     3     4   ar
    15     4     5   ar
    16     5     6   ar
    17     6     7   ar
    18     7     8   ar
    19     8     9    1
    20     9    10    1
    21    10    11    1
    22    11    12    1
    23    12    13    1
    24    13    14    1
    25    14    15    1
    26    19    20   ar
    27    20    21    1
    28    20    22   ar
    29    29    24   ar
    30    22    16   ar
    31    10     2    1
    32    15    11    1
    33     8     3   ar
@<TRIPOS>MOLECULE
*****
 29 33 0 0 0
SMALL
GASTEIGER

@<TRIPOS>ATOM
      1 O           0.0895    0.7671   21.6769 O.3     1  UNL1       -0.4725
      2 C           0.0809    2.0948   22.3749 C.3     1  UNL1        0.2026
      3 C           0.0070    2.3110   23.8574 C.ar    1  UNL1        0.0146
      4 C          -0.0745    1.3529   25.0086 C.ar    1  UNL1       -0.0011
      5 C          -0.1378    1.8729   26.4141 C.ar    1  UNL1       -0.0002
      6 C          -0.1197    3.3511   26.6684 C.ar    1  UNL1       -0.0003
      7 C          -0.0382    4.3092   25.5172 C.ar    1  UNL1       -0.0044
      8 C           0.0251    3.7892   24.1117 C.ar    1  UNL1       -0.0213
      9 C           0.1102    4.4865   22.7863 C.3     1  UNL1        0.0461
     10 C           0.1447    3.4393   21.7129 C.3     1  UNL1        0.1066
     11 N           0.2283    3.6922   20.2368 N.3     1  UNL1       -0.2703
     12 C           1.4394    4.1687   19.4911 C.3     1  UNL1        0.0722
     13 C           1.0751    4.2841   18.0406 C.3     1  UNL1        0.0188
     14 C          -0.3612    3.8789   17.8898 C.3     1  UNL1        0.0188
     15 C          -0.8846    3.5131   19.2471 C.3     1  UNL1        0.0722
     16 C           3.6867   -0.4949   19.2859 C.ar    1  UNL1        0.0672
     17 C           2.4578    0.0040   18.5852 C.ar    1  UNL1        0.0208
     18 C           1.2587    0.4247   19.3822 C.ar    1  UNL1        0.0393
     19 C           1.2885    0.3464   20.8799 C.ar    1  UNL1        0.1494
     20 C           2.5174   -0.1525   21.5805 C.ar    1  UNL1        0.0930
     21 CL          2.5473   -0.2308   23.0782 Cl      1  UNL1       -0.0790
     22 C           3.7165   -0.5732   20.7835 C.ar    1  UNL1        0.0320
     23 C           5.7656    1.4984   17.7515 C.3     1  UNL1        0.0742
     24 C           5.8413    0.0006   17.7835 C.ar    1  UNL1        0.1473
     25 N           6.8859   -0.8439   17.1159 N.ar    1  UNL1       -0.1333
     26 N           6.5759   -2.2820   17.4086 N.ar    1  UNL1       -0.1333
     27 C           5.3397   -2.3263   18.2571 C.ar    1  UNL1        0.1473
     28 C           4.6744   -3.5641   18.7818 C.3     1  UNL1        0.0742
     29 N           4.8857   -0.9156   18.4888 N.ar    1  UNL1       -0.2807
@<TRIPOS>BOND
     1    23    24    1
     2    24    25   ar
     3    25    26   ar
     4    26    27   ar
     5    27    28    1
     6    27    29   ar
     7    29    16    1
     8    16    17   ar
     9    17    18   ar
    10    18    19   ar
    11    19     1    1
    12     2     1    1
    13     2     3    1
    14     3     4   ar
    15     4     5   ar
    16     5     6   ar
    17     6     7   ar
    18     7     8   ar
    19     8     9    1
    20     9    10    1
    21    10    11    1
    22    11    12    1
    23    12    13    1
    24    13    14    1
    25    14    15    1
    26    19    20   ar
    27    20    21    1
    28    20    22   ar
    29    29    24   ar
    30    22    16   ar
    31    10     2    1
    32    15    11    1
    33     8     3   ar
@<TRIPOS>MOLECULE
*****
 29 33 0 0 0
SMALL
GASTEIGER

@<TRIPOS>ATOM
      1 O           3.3233    1.0476   24.9400 O.3     1  UNL1       -0.4725
      2 C           1.8970    1.2453   25.3603 C.3     1  UNL1        0.2026
      3 C           1.3311    0.9609   26.7201 C.ar    1  UNL1        0.0146
      4 C           1.9570    0.4355   27.9779 C.ar    1  UNL1       -0.0011
      5 C           1.1224    0.2511   29.2105 C.ar    1  UNL1       -0.0002
      6 C          -0.3381    0.5921   29.1853 C.ar    1  UNL1       -0.0003
      7 C          -0.9640    1.1175   27.9275 C.ar    1  UNL1       -0.0044
      8 C          -0.1294    1.3019   26.6949 C.ar    1  UNL1       -0.0213
      9 C          -0.4661    1.7970   25.3195 C.3     1  UNL1        0.0461
     10 C           0.7863    1.7620   24.4947 C.3     1  UNL1        0.1066
     11 N           0.9067    2.1718   23.0568 N.3     1  UNL1       -0.2703
     12 C           0.5361    1.3359   21.8678 C.3     1  UNL1        0.0722
     13 C           0.8193    2.1369   20.6316 C.3     1  UNL1        0.0188
     14 C           1.3650    3.4679   21.0566 C.3     1  UNL1        0.0188
     15 C           1.4190    3.4895   22.5555 C.3     1  UNL1        0.0722
     16 C           4.2585   -0.6002   20.8583 C.ar    1  UNL1        0.0672
     17 C           3.4729   -1.4220   21.8369 C.ar    1  UNL1        0.0208
     18 C           3.1612   -0.8727   23.1975 C.ar    1  UNL1        0.0393
     19 C           3.6350    0.4984   23.5795 C.ar    1  UNL1        0.1494
     20 C           4.4205    1.3200   22.6008 C.ar    1  UNL1        0.0930
     21 CL          4.8944    2.6910   22.9827 Cl      1  UNL1       -0.0790
     22 C           4.7322    0.7707   21.2403 C.ar    1  UNL1        0.0320
     23 C           2.7660    0.2141   18.0729 C.3     1  UNL1        0.0742
     24 C           3.8842   -0.7753   18.2174 C.ar    1  UNL1        0.1473
     25 N           4.5126   -1.5640   17.1071 N.ar    1  UNL1       -0.1333
     26 N           5.5870   -2.4258   17.7012 N.ar    1  UNL1       -0.1333
     27 C           5.6226   -2.1697   19.1787 C.ar    1  UNL1        0.1473
     28 C           6.5481   -2.8195   20.1642 C.3     1  UNL1        0.0742
     29 N           4.5702   -1.1496   19.4978 N.ar    1  UNL1       -0.2807
@<TRIPOS>BOND
     1    23    24    1
     2    24    25   ar
     3    25    26   ar
     4    26    27   ar
     5    27    28    1
     6    27    29   ar
     7    29    16    1
     8    16    17   ar
     9    17    18   ar
    10    18    19   ar
    11    19     1    1
    12     2     1    1
    13     2     3    1
    14     3     4   ar
    15     4     5   ar
    16     5     6   ar
    17     6     7   ar
    18     7     8   ar
    19     8     9    1
    20     9    10    1
    21    10    11    1
    22    11    12    1
    23    12    13    1
    24    13    14    1
    25    14    15    1
    26    19    20   ar
    27    20    21    1
    28    20    22   ar
    29    29    24   ar
    30    22    16   ar
    31    10     2    1
    32    15    11    1
    33     8     3   ar
@<TRIPOS>MOLECULE
*****
 29 33 0 0 0
SMALL
GASTEIGER

@<TRIPOS>ATOM
      1 O           6.6237   -2.5654   23.5427 O.3     1  UNL1       -0.4725
      2 C           7.3596   -3.7612   23.0148 C.3     1  UNL1        0.2026
      3 C           7.6788   -5.0096   23.7826 C.ar    1  UNL1        0.0146
      4 C           7.3888   -5.4206   25.1957 C.ar    1  UNL1       -0.0011
      5 C           7.8420   -6.7605   25.6950 C.ar    1  UNL1       -0.0002
      6 C           8.5851   -7.6893   24.7812 C.ar    1  UNL1       -0.0003
      7 C           8.8751   -7.2783   23.3681 C.ar    1  UNL1       -0.0044
      8 C           8.4219   -5.9385   22.8688 C.ar    1  UNL1       -0.0213
      9 C           8.5619   -5.2640   21.5363 C.3     1  UNL1        0.0461
     10 C           7.9054   -3.9184   21.6265 C.3     1  UNL1        0.1066
     11 N           7.8111   -2.9075   20.5223 N.3     1  UNL1       -0.2703
     12 C           6.7469   -2.8513   19.4668 C.3     1  UNL1        0.0722
     13 C           7.0426   -1.6844   18.5719 C.3     1  UNL1        0.0188
     14 C           8.2897   -1.0193   19.0744 C.3     1  UNL1        0.0188
     15 C           8.7646   -1.7753   20.2798 C.3     1  UNL1        0.0722
     16 C           3.5071   -0.5406   21.0056 C.ar    1  UNL1        0.0672
     17 C           3.3056   -1.9585   21.4518 C.ar    1  UNL1        0.0208
     18 C           4.3444   -2.6334   22.2975 C.ar    1  UNL1        0.0393
     19 C           5.5849   -1.8905   22.6970 C.ar    1  UNL1        0.1494
     20 C           5.7864   -0.4726   22.2507 C.ar    1  UNL1        0.0930
     21 CL          7.0267    0.2703   22.6502 Cl      1  UNL1       -0.0790
     22 C           4.7475    0.2023   21.4050 C.ar    1  UNL1        0.0320
     23 C           3.5130   -0.3507   17.7478 C.3     1  UNL1        0.0742
     24 C           2.4709    0.2216   18.6625 C.ar    1  UNL1        0.1473
     25 N           1.2486    0.9817   18.2402 N.ar    1  UNL1       -0.1333
     26 N           0.4905    1.3641   19.4767 N.ar    1  UNL1       -0.1333
     27 C           1.2442    0.8404   20.6631 C.ar    1  UNL1        0.1473
     28 C           0.8443    0.9956   22.1005 C.3     1  UNL1        0.0742
     29 N           2.4682    0.1343   20.1599 N.ar    1  UNL1       -0.2807
@<TRIPOS>BOND
     1    23    24    1
     2    24    25   ar
     3    25    26   ar
     4    26    27   ar
     5    27    28    1
     6    27    29   ar
     7    29    16    1
     8    16    17   ar
     9    17    18   ar
    10    18    19   ar
    11    19     1    1
    12     2     1    1
    13     2     3    1
    14     3     4   ar
    15     4     5   ar
    16     5     6   ar
    17     6     7   ar
    18     7     8   ar
    19     8     9    1
    20     9    10    1
    21    10    11    1
    22    11    12    1
    23    12    13    1
    24    13    14    1
    25    14    15    1
    26    19    20   ar
    27    20    21    1
    28    20    22   ar
    29    29    24   ar
    30    22    16   ar
    31    10     2    1
    32    15    11    1
    33     8     3   ar
@<TRIPOS>MOLECULE
*****
 29 33 0 0 0
SMALL
GASTEIGER

@<TRIPOS>ATOM
      1 O           7.4502   -2.8604   22.3491 O.3     1  UNL1       -0.4725
      2 C           7.2876   -3.6828   23.5930 C.3     1  UNL1        0.2026
      3 C           7.8332   -5.0623   23.8154 C.ar    1  UNL1        0.0146
      4 C           8.6421   -5.9746   22.9418 C.ar    1  UNL1       -0.0011
      5 C           9.0515   -7.3269   23.4455 C.ar    1  UNL1       -0.0002
      6 C           8.6520   -7.7668   24.8227 C.ar    1  UNL1       -0.0003
      7 C           7.8431   -6.8545   25.6963 C.ar    1  UNL1       -0.0044
      8 C           7.4337   -5.5022   25.1927 C.ar    1  UNL1       -0.0213
      9 C           6.6412   -4.3946   25.8214 C.3     1  UNL1        0.0461
     10 C           6.5509   -3.2702   24.8327 C.3     1  UNL1        0.1066
     11 N           5.8475   -1.9627   25.0463 N.3     1  UNL1       -0.2703
     12 C           6.4702   -0.7011   25.5666 C.3     1  UNL1        0.0722
     13 C           5.4054    0.3541   25.6190 C.3     1  UNL1        0.0188
     14 C           4.1246   -0.2553   25.1310 C.3     1  UNL1        0.0188
     15 C           4.3978   -1.6871   24.7771 C.3     1  UNL1        0.0722
     16 C           3.8753   -0.8497   20.4978 C.ar    1  UNL1        0.0672
     17 C           3.9192   -2.3447   20.6124 C.ar    1  UNL1        0.0208
     18 C           5.1108   -3.0149   21.2295 C.ar    1  UNL1        0.0393
     19 C           6.2586   -2.1902   21.7320 C.ar    1  UNL1        0.1494
     20 C           6.2147   -0.6952   21.6173 C.ar    1  UNL1        0.0930
     21 CL          7.3624    0.1295   22.1198 Cl      1  UNL1       -0.0790
     22 C           5.0231   -0.0250   21.0002 C.ar    1  UNL1        0.0320
     23 C           1.3881    0.5099   22.1148 C.3     1  UNL1        0.0742
     24 C           1.5405    0.4454   20.6238 C.ar    1  UNL1        0.1473
     25 N           0.5763    0.9946   19.6145 N.ar    1  UNL1       -0.1333
     26 N           1.1237    0.7091   18.2475 N.ar    1  UNL1       -0.1333
     27 C           2.4261   -0.0165   18.4119 C.ar    1  UNL1        0.1473
     28 C           3.3150   -0.4952   17.3025 C.3     1  UNL1        0.0742
     29 N           2.6837   -0.1795   19.8807 N.ar    1  UNL1       -0.2807
@<TRIPOS>BOND
     1    23    24    1
     2    24    25   ar
     3    25    26   ar
     4    26    27   ar
     5    27    28    1
     6    27    29   ar
     7    29    16    1
     8    16    17   ar
     9    17    18   ar
    10    18    19   ar
    11    19     1    1
    12     2     1    1
    13     2     3    1
    14     3     4   ar
    15     4     5   ar
    16     5     6   ar
    17     6     7   ar
    18     7     8   ar
    19     8     9    1
    20     9    10    1
    21    10    11    1
    22    11    12    1
    23    12    13    1
    24    13    14    1
    25    14    15    1
    26    19    20   ar
    27    20    21    1
    28    20    22   ar
    29    29    24   ar
    30    22    16   ar
    31    10     2    1
    32    15    11    1
    33     8     3   ar
@<TRIPOS>MOLECULE
*****
 29 33 0 0 0
SMALL
GASTEIGER

@<TRIPOS>ATOM
      1 O           4.7074    0.0627   22.7472 O.3     1  UNL1       -0.4725
      2 C           3.9686   -0.6359   21.6444 C.3     1  UNL1        0.2026
      3 C           4.4047   -1.8908   20.9480 C.ar    1  UNL1        0.0146
      4 C           5.6107   -2.7663   21.1189 C.ar    1  UNL1       -0.0011
      5 C           5.7815   -3.9837   20.2595 C.ar    1  UNL1       -0.0002
      6 C           4.7465   -4.3256   19.2291 C.ar    1  UNL1       -0.0003
      7 C           3.5405   -3.4501   19.0581 C.ar    1  UNL1       -0.0044
      8 C           3.3697   -2.2327   19.9176 C.ar    1  UNL1       -0.0213
      9 C           2.2939   -1.1892   19.9772 C.3     1  UNL1        0.0461
     10 C           2.6640   -0.2022   21.0444 C.3     1  UNL1        0.1066
     11 N           1.8691    1.0061   21.4419 N.3     1  UNL1       -0.2703
     12 C           0.7994    1.0514   22.4925 C.3     1  UNL1        0.0722
     13 C           0.2735    2.4546   22.5585 C.3     1  UNL1        0.0188
     14 C           1.0182    3.2767   21.5487 C.3     1  UNL1        0.0188
     15 C           2.0043    2.3814   20.8586 C.3     1  UNL1        0.0722
     16 C           3.1017   -0.0417   26.9497 C.ar    1  UNL1        0.0672
     17 C           3.5713   -1.3068   26.2946 C.ar    1  UNL1        0.0208
     18 C           4.1065   -1.2719   24.8938 C.ar    1  UNL1        0.0393
     19 C           4.1722    0.0279   24.1480 C.ar    1  UNL1        0.1494
     20 C           3.7025    1.2930   24.8031 C.ar    1  UNL1        0.0930
     21 CL          3.7681    2.5928   24.0574 Cl      1  UNL1       -0.0790
     22 C           3.1673    1.2581   26.2039 C.ar    1  UNL1        0.0320
     23 C           4.7782   -0.8720   29.6234 C.3     1  UNL1        0.0742
     24 C           3.3370   -0.4582   29.5795 C.ar    1  UNL1        0.1473
     25 N           2.4135   -0.3534   30.7568 N.ar    1  UNL1       -0.1333
     26 N           1.0722    0.0931   30.2554 N.ar    1  UNL1       -0.1333
     27 C           1.1667    0.2642   28.7682 C.ar    1  UNL1        0.1473
     28 C           0.0563    0.6996   27.8585 C.3     1  UNL1        0.0742
     29 N           2.5665   -0.0765   28.3505 N.ar    1  UNL1       -0.2807
@<TRIPOS>BOND
     1    23    24    1
     2    24    25   ar
     3    25    26   ar
     4    26    27   ar
     5    27    28    1
     6    27    29   ar
     7    29    16    1
     8    16    17   ar
     9    17    18   ar
    10    18    19   ar
    11    19     1    1
    12     2     1    1
    13     2     3    1
    14     3     4   ar
    15     4     5   ar
    16     5     6   ar
    17     6     7   ar
    18     7     8   ar
    19     8     9    1
    20     9    10    1
    21    10    11    1
    22    11    12    1
    23    12    13    1
    24    13    14    1
    25    14    15    1
    26    19    20   ar
    27    20    21    1
    28    20    22   ar
    29    29    24   ar
    30    22    16   ar
    31    10     2    1
    32    15    11    1
    33     8     3   ar
@<TRIPOS>MOLECULE
*****
 29 33 0 0 0
SMALL
GASTEIGER

@<TRIPOS>ATOM
      1 O           4.7504   -0.0288   22.7981 O.3     1  UNL1       -0.4725
      2 C           3.9968   -0.6682   21.6698 C.3     1  UNL1        0.2026
      3 C           4.4000   -1.9107   20.9325 C.ar    1  UNL1        0.0146
      4 C           5.5798   -2.8256   21.0776 C.ar    1  UNL1       -0.0011
      5 C           5.7196   -4.0175   20.1778 C.ar    1  UNL1       -0.0002
      6 C           4.6796   -4.2946   19.1329 C.ar    1  UNL1       -0.0003
      7 C           3.4999   -3.3798   18.9879 C.ar    1  UNL1       -0.0044
      8 C           3.3601   -2.1878   19.8876 C.ar    1  UNL1       -0.0213
      9 C           2.3141   -1.1165   19.9792 C.3     1  UNL1        0.0461
     10 C           2.7076   -0.1774   21.0806 C.3     1  UNL1        0.1066
     11 N           1.9457    1.0391   21.5164 N.3     1  UNL1       -0.2703
     12 C           2.3540    2.4641   21.2872 C.3     1  UNL1        0.0722
     13 C           1.3024    3.3498   21.8870 C.3     1  UNL1        0.0188
     14 C           0.2442    2.4721   22.4868 C.3     1  UNL1        0.0188
     15 C           0.6418    1.0440   22.2578 C.3     1  UNL1        0.0722
     16 C           2.9999   -0.0020   26.9436 C.ar    1  UNL1        0.0672
     17 C           2.9168    1.2262   26.0864 C.ar    1  UNL1        0.0208
     18 C           3.5004    1.2172   24.7046 C.ar    1  UNL1        0.0393
     19 C           4.1669   -0.0199   24.1799 C.ar    1  UNL1        0.1494
     20 C           4.2499   -1.2481   25.0371 C.ar    1  UNL1        0.0930
     21 CL          4.9164   -2.4852   24.5124 Cl      1  UNL1       -0.0790
     22 C           3.6664   -1.2391   26.4189 C.ar    1  UNL1        0.0320
     23 C          -0.1026    0.6574   27.7113 C.3     1  UNL1        0.0742
     24 C           0.9903    0.3100   28.6783 C.ar    1  UNL1        0.1473
     25 N           0.8490    0.2048   30.1679 N.ar    1  UNL1       -0.1333
     26 N           2.1877   -0.1633   30.7356 N.ar    1  UNL1       -0.1333
     27 C           3.1564   -0.2856   29.5969 C.ar    1  UNL1        0.1473
     28 C           4.6099   -0.6385   29.7098 C.3     1  UNL1        0.0742
     29 N           2.4163    0.0069   28.3254 N.ar    1  UNL1       -0.2807
@<TRIPOS>BOND
     1    23    24    1
     2    24    25   ar
     3    25    26   ar
     4    26    27   ar
     5    27    28    1
     6    27    29   ar
     7    29    16    1
     8    16    17   ar
     9    17    18   ar
    10    18    19   ar
    11    19     1    1
    12     2     1    1
    13     2     3    1
    14     3     4   ar
    15     4     5   ar
    16     5     6   ar
    17     6     7   ar
    18     7     8   ar
    19     8     9    1
    20     9    10    1
    21    10    11    1
    22    11    12    1
    23    12    13    1
    24    13    14    1
    25    14    15    1
    26    19    20   ar
    27    20    21    1
    28    20    22   ar
    29    29    24   ar
    30    22    16   ar
    31    10     2    1
    32    15    11    1
    33     8     3   ar
