@<TRIPOS>MOLECULE
*****
 29 32 0 0 0
SMALL
GASTEIGER

@<TRIPOS>ATOM
      1 C          -5.9893  -20.3018   20.5790 C.ar    1  UNL1       -0.0130
      2 C          -7.0762  -20.0865   19.5679 C.ar    1  UNL1       -0.0022
      3 C          -8.4118  -19.5606   20.0031 C.ar    1  UNL1        0.0188
      4 C          -8.6607  -19.2500   21.4493 C.ar    1  UNL1        0.0824
      5 C          -7.5737  -19.4654   22.4604 C.ar    1  UNL1        0.0188
      6 C          -6.2381  -19.9913   22.0252 C.ar    1  UNL1       -0.0022
      7 N          -9.9964  -18.7242   21.8845 N.ar    1  UNL1       -0.2341
      8 N         -10.7434  -19.1296   23.1204 N.ar    1  UNL1       -0.1617
      9 C         -12.0282  -18.3565   23.1599 C.ar    1  UNL1        0.1696
     10 C         -12.0753  -17.4733   21.9484 C.ar    1  UNL1        0.0148
     11 C         -10.8195  -17.7005   21.1601 C.ar    1  UNL1        0.0579
     12 C         -10.5877  -16.9460   19.8846 C.3     1  UNL1        0.0456
     13 C         -11.6118  -15.9643   19.3974 C.3     1  UNL1        0.0066
     14 C         -12.8676  -15.7370   20.1856 C.3     1  UNL1        0.0052
     15 C         -13.0993  -16.4915   21.4611 C.3     1  UNL1        0.0291
     16 C         -13.0812  -18.4501   24.2241 C.3     1  UNL1        0.4362
     17 F         -14.1342  -18.5437   25.2884 F       1  UNL1       -0.1644
     18 F         -12.0144  -18.6192   25.2649 F       1  UNL1       -0.1644
     19 F         -14.1481  -18.2810   23.1834 F       1  UNL1       -0.1644
     20 C          -4.6536  -20.8277   20.1438 C.3     1  UNL1        0.1113
     21 O          -2.3646  -20.5393   21.3385 O.2     1  UNL1       -0.2747
     22 C          -3.4126  -20.0242   20.3970 C.2     1  UNL1        0.2269
     23 N          -3.2194  -18.7055   19.7086 N.am    1  UNL1       -0.3057
     24 H          -3.9072  -18.3674   19.0907 H       1  UNL1        0.1494
     25 C          -1.9784  -17.9019   19.9618 C.3     1  UNL1        0.0716
     26 C          -0.6167  -18.1815   19.3983 C.3     1  UNL1        0.0196
     27 C           0.3221  -17.1300   19.9112 C.3     1  UNL1        0.0017
     28 C          -0.4595  -16.2006   20.7916 C.3     1  UNL1        0.0017
     29 C          -1.8812  -16.6776   20.8229 C.3     1  UNL1        0.0196
@<TRIPOS>BOND
     1    21    22    2
     2    22    20    1
     3    20     1    1
     4     1     2   ar
     5     2     3   ar
     6     3     4   ar
     7     4     7    1
     8     7     8   ar
     9     8     9   ar
    10     9    16    1
    11    16    17    1
    12    16    18    1
    13    16    19    1
    14     9    10   ar
    15    10    11   ar
    16    11    12    1
    17    12    13    1
    18    13    14    1
    19    14    15    1
    20     4     5   ar
    21     5     6   ar
    22    22    23   am
    23    23    25    1
    24    25    26    1
    25    26    27    1
    26    27    28    1
    27    28    29    1
    28     6     1   ar
    29    29    25    1
    30    11     7   ar
    31    15    10    1
    32    23    24    1
@<TRIPOS>MOLECULE
*****
 29 32 0 0 0
SMALL
GASTEIGER

@<TRIPOS>ATOM
      1 C          -5.2931  -16.7795   23.6228 C.ar    1  UNL1       -0.0130
      2 C          -5.8671  -17.8843   22.7862 C.ar    1  UNL1       -0.0022
      3 C          -7.3540  -18.0225   22.6442 C.ar    1  UNL1        0.0188
      4 C          -8.2668  -17.0560   23.3387 C.ar    1  UNL1        0.0824
      5 C          -7.6928  -15.9512   24.1754 C.ar    1  UNL1        0.0188
      6 C          -6.2059  -15.8130   24.3174 C.ar    1  UNL1       -0.0022
      7 N          -9.7537  -17.1943   23.1967 N.ar    1  UNL1       -0.2341
      8 N         -10.6891  -17.7567   24.2255 N.ar    1  UNL1       -0.1617
      9 C         -12.0797  -17.7044   23.6656 C.ar    1  UNL1        0.1696
     10 C         -12.0037  -17.1095   22.2906 C.ar    1  UNL1        0.0148
     11 C         -10.5661  -16.7943   22.0009 C.ar    1  UNL1        0.0579
     12 C         -10.1825  -16.1837   20.6856 C.3     1  UNL1        0.0456
     13 C         -11.2366  -15.8884   19.6600 C.3     1  UNL1        0.0066
     14 C         -12.6742  -16.2037   19.9498 C.3     1  UNL1        0.0052
     15 C         -13.0577  -16.8142   21.2651 C.3     1  UNL1        0.0291
     16 C         -13.3273  -18.1658   24.3588 C.3     1  UNL1        0.4362
     17 F         -14.5749  -18.6273   25.0520 F       1  UNL1       -0.1644
     18 F         -12.5624  -19.2944   24.9842 F       1  UNL1       -0.1644
     19 F         -14.0922  -17.0373   23.7334 F       1  UNL1       -0.1644
     20 C          -3.8062  -16.6413   23.7648 C.3     1  UNL1        0.1113
     21 O          -2.0506  -18.3820   22.9662 O.2     1  UNL1       -0.2747
     22 C          -2.8981  -17.1741   22.6965 C.2     1  UNL1        0.2269
     23 N          -2.8374  -16.4990   21.3583 N.am    1  UNL1       -0.3057
     24 H          -3.3937  -15.7063   21.1813 H       1  UNL1        0.1494
     25 C          -1.9294  -17.0318   20.2899 C.3     1  UNL1        0.0716
     26 C          -2.3441  -17.4624   18.9142 C.3     1  UNL1        0.0196
     27 C          -1.1181  -17.9242   18.1837 C.3     1  UNL1        0.0017
     28 C           0.0543  -17.7790   19.1080 C.3     1  UNL1        0.0017
     29 C          -0.4470  -17.2275   20.4097 C.3     1  UNL1        0.0196
@<TRIPOS>BOND
     1    21    22    2
     2    22    20    1
     3    20     1    1
     4     1     2   ar
     5     2     3   ar
     6     3     4   ar
     7     4     7    1
     8     7     8   ar
     9     8     9   ar
    10     9    16    1
    11    16    17    1
    12    16    18    1
    13    16    19    1
    14     9    10   ar
    15    10    11   ar
    16    11    12    1
    17    12    13    1
    18    13    14    1
    19    14    15    1
    20     4     5   ar
    21     5     6   ar
    22    22    23   am
    23    23    25    1
    24    25    26    1
    25    26    27    1
    26    27    28    1
    27    28    29    1
    28     6     1   ar
    29    29    25    1
    30    11     7   ar
    31    15    10    1
    32    23    24    1
@<TRIPOS>MOLECULE
*****
 29 32 0 0 0
SMALL
GASTEIGER

@<TRIPOS>ATOM
      1 C           0.0029    2.2303   19.5363 C.ar    1  UNL1       -0.0130
      2 C          -0.1358    1.3985   20.7768 C.ar    1  UNL1       -0.0022
      3 C           0.7366    0.1942   20.9737 C.ar    1  UNL1        0.0188
      4 C           1.7477   -0.1782   19.9303 C.ar    1  UNL1        0.0824
      5 C           1.8864    0.6536   18.6897 C.ar    1  UNL1        0.0188
      6 C           1.0140    1.8578   18.4927 C.ar    1  UNL1       -0.0022
      7 N           2.6201   -1.3824   20.1272 N.ar    1  UNL1       -0.2341
      8 N           2.9120   -2.4370   19.1012 N.ar    1  UNL1       -0.1617
      9 C           3.8260   -3.4498   19.7247 C.ar    1  UNL1        0.1696
     10 C           4.0991   -3.0212   21.1360 C.ar    1  UNL1        0.0148
     11 C           3.3537   -1.7434   21.3848 C.ar    1  UNL1        0.0579
     12 C           3.4394   -1.0738   22.7242 C.3     1  UNL1        0.0456
     13 C           4.2704   -1.6819   23.8149 C.3     1  UNL1        0.0066
     14 C           5.0158   -2.9596   23.5661 C.3     1  UNL1        0.0052
     15 C           4.9301   -3.6292   22.2267 C.3     1  UNL1        0.0291
     16 C           4.3714   -4.6760   19.0545 C.3     1  UNL1        0.4362
     17 F           4.9168   -5.9021   18.3843 F       1  UNL1       -0.1644
     18 F           5.3134   -3.8221   18.2587 F       1  UNL1       -0.1644
     19 F           3.4294   -5.5299   19.8503 F       1  UNL1       -0.1644
     20 C          -0.8695    3.4345   19.3393 C.3     1  UNL1        0.1113
     21 O          -1.6973    4.9175   21.3054 O.2     1  UNL1       -0.2747
     22 C          -1.9170    3.7762   20.3571 C.2     1  UNL1        0.2269
     23 N          -3.1842    2.9766   20.4268 N.am    1  UNL1       -0.3057
     24 H          -3.3284    2.2276   19.8044 H       1  UNL1        0.1494
     25 C          -4.2318    3.3183   21.4446 C.3     1  UNL1        0.0716
     26 C          -5.6115    3.8291   21.1525 C.3     1  UNL1        0.0196
     27 C          -6.3159    4.0356   22.4606 C.3     1  UNL1        0.0017
     28 C          -5.3714    3.6525   23.5611 C.3     1  UNL1        0.0017
     29 C          -4.0834    3.2092   22.9332 C.3     1  UNL1        0.0196
@<TRIPOS>BOND
     1    21    22    2
     2    22    20    1
     3    20     1    1
     4     1     2   ar
     5     2     3   ar
     6     3     4   ar
     7     4     7    1
     8     7     8   ar
     9     8     9   ar
    10     9    16    1
    11    16    17    1
    12    16    18    1
    13    16    19    1
    14     9    10   ar
    15    10    11   ar
    16    11    12    1
    17    12    13    1
    18    13    14    1
    19    14    15    1
    20     4     5   ar
    21     5     6   ar
    22    22    23   am
    23    23    25    1
    24    25    26    1
    25    26    27    1
    26    27    28    1
    27    28    29    1
    28     6     1   ar
    29    29    25    1
    30    11     7   ar
    31    15    10    1
    32    23    24    1
@<TRIPOS>MOLECULE
*****
 29 32 0 0 0
SMALL
GASTEIGER

@<TRIPOS>ATOM
      1 C           0.1991    2.4877   20.0454 C.ar    1  UNL1       -0.0130
      2 C           0.7540    1.8550   18.8037 C.ar    1  UNL1       -0.0022
      3 C           1.5892    0.6130   18.9037 C.ar    1  UNL1        0.0188
      4 C           1.8695    0.0037   20.2453 C.ar    1  UNL1        0.0824
      5 C           1.3146    0.6364   21.4871 C.ar    1  UNL1        0.0188
      6 C           0.4794    1.8784   21.3871 C.ar    1  UNL1       -0.0022
      7 N           2.7046   -1.2383   20.3454 N.ar    1  UNL1       -0.2341
      8 N           2.9396   -2.2335   19.2479 N.ar    1  UNL1       -0.1617
      9 C           3.8316   -3.3134   19.7848 C.ar    1  UNL1        0.1696
     10 C           4.1479   -2.9856   21.2139 C.ar    1  UNL1        0.0148
     11 C           3.4513   -1.7031   21.5604 C.ar    1  UNL1        0.0579
     12 C           3.5870   -1.1243   22.9375 C.3     1  UNL1        0.0456
     13 C           4.4192   -1.8279   23.9681 C.3     1  UNL1        0.0066
     14 C           5.1158   -3.1104   23.6217 C.3     1  UNL1        0.0052
     15 C           4.9801   -3.6893   22.2446 C.3     1  UNL1        0.0291
     16 C           4.3214   -4.5109   19.0257 C.3     1  UNL1        0.4362
     17 F           4.8111   -5.7084   18.2666 F       1  UNL1       -0.1644
     18 F           3.2991   -5.3656   19.7144 F       1  UNL1       -0.1644
     19 F           5.3436   -3.6562   18.3370 F       1  UNL1       -0.1644
     20 C          -0.6360    3.7297   19.9453 C.3     1  UNL1        0.1113
     21 O          -2.7557    2.7967   21.1228 O.2     1  UNL1       -0.2747
     22 C          -2.1295    3.6397   20.0517 C.2     1  UNL1        0.2269
     23 N          -2.9969    4.3927   19.0870 N.am    1  UNL1       -0.3057
     24 H          -2.5859    4.9460   18.3840 H       1  UNL1        0.1494
     25 C          -4.4904    4.3028   19.1934 C.3     1  UNL1        0.0716
     26 C          -5.3472    5.0146   20.1979 C.3     1  UNL1        0.0196
     27 C          -6.7757    4.6370   19.9392 C.3     1  UNL1        0.0017
     28 C          -6.8016    3.6918   18.7747 C.3     1  UNL1        0.0017
     29 C          -5.3892    3.4852   18.3138 C.3     1  UNL1        0.0196
@<TRIPOS>BOND
     1    21    22    2
     2    22    20    1
     3    20     1    1
     4     1     2   ar
     5     2     3   ar
     6     3     4   ar
     7     4     7    1
     8     7     8   ar
     9     8     9   ar
    10     9    16    1
    11    16    17    1
    12    16    18    1
    13    16    19    1
    14     9    10   ar
    15    10    11   ar
    16    11    12    1
    17    12    13    1
    18    13    14    1
    19    14    15    1
    20     4     5   ar
    21     5     6   ar
    22    22    23   am
    23    23    25    1
    24    25    26    1
    25    26    27    1
    26    27    28    1
    27    28    29    1
    28     6     1   ar
    29    29    25    1
    30    11     7   ar
    31    15    10    1
    32    23    24    1
@<TRIPOS>MOLECULE
*****
 29 32 0 0 0
SMALL
GASTEIGER

@<TRIPOS>ATOM
      1 C          -4.9914  -17.6130   23.3129 C.ar    1  UNL1       -0.0130
      2 C          -5.6943  -18.6463   22.4834 C.ar    1  UNL1       -0.0022
      3 C          -7.1566  -18.4995   22.1834 C.ar    1  UNL1        0.0188
      4 C          -7.9161  -17.3194   22.7128 C.ar    1  UNL1        0.0824
      5 C          -7.2132  -16.2860   23.5423 C.ar    1  UNL1        0.0188
      6 C          -5.7508  -16.4328   23.8424 C.ar    1  UNL1       -0.0022
      7 N          -9.3784  -17.1726   22.4127 N.ar    1  UNL1       -0.2341
      8 N          -9.9695  -16.4437   21.2426 N.ar    1  UNL1       -0.1617
      9 C         -11.4628  -16.5495   21.3369 C.ar    1  UNL1        0.1696
     10 C         -11.7946  -17.3438   22.5653 C.ar    1  UNL1        0.0148
     11 C         -10.5064  -17.7289   23.2302 C.ar    1  UNL1        0.0579
     12 C         -10.5268  -18.5363   24.4942 C.3     1  UNL1        0.0456
     13 C         -11.8355  -18.9587   25.0932 C.3     1  UNL1        0.0066
     14 C         -13.1238  -18.5736   24.4282 C.3     1  UNL1        0.0052
     15 C         -13.1033  -17.7662   23.1643 C.3     1  UNL1        0.0291
     16 C         -12.4509  -15.9639   20.3721 C.3     1  UNL1        0.4362
     17 F         -13.4389  -15.3783   19.4073 F       1  UNL1       -0.1644
     18 F         -11.6314  -16.4732   19.2236 F       1  UNL1       -0.1644
     19 F         -13.2704  -15.4546   21.5205 F       1  UNL1       -0.1644
     20 C          -3.5290  -17.7598   23.6129 C.3     1  UNL1        0.1113
     21 O          -1.3807  -18.8736   22.6673 O.2     1  UNL1       -0.2747
     22 C          -2.5491  -17.9492   22.4932 C.2     1  UNL1        0.2269
     23 N          -2.7375  -17.2140   21.1993 N.am    1  UNL1       -0.3057
     24 H          -3.5043  -16.6073   21.0850 H       1  UNL1        0.1494
     25 C          -1.7576  -17.4033   20.0795 C.3     1  UNL1        0.0716
     26 C          -2.0981  -17.7299   18.6557 C.3     1  UNL1        0.0196
     27 C          -0.8160  -17.8277   17.8832 C.3     1  UNL1        0.0017
     28 C           0.3168  -17.5616   18.8296 C.3     1  UNL1        0.0017
     29 C          -0.2651  -17.2993   20.1870 C.3     1  UNL1        0.0196
@<TRIPOS>BOND
     1    21    22    2
     2    22    20    1
     3    20     1    1
     4     1     2   ar
     5     2     3   ar
     6     3     4   ar
     7     4     7    1
     8     7     8   ar
     9     8     9   ar
    10     9    16    1
    11    16    17    1
    12    16    18    1
    13    16    19    1
    14     9    10   ar
    15    10    11   ar
    16    11    12    1
    17    12    13    1
    18    13    14    1
    19    14    15    1
    20     4     5   ar
    21     5     6   ar
    22    22    23   am
    23    23    25    1
    24    25    26    1
    25    26    27    1
    26    27    28    1
    27    28    29    1
    28     6     1   ar
    29    29    25    1
    30    11     7   ar
    31    15    10    1
    32    23    24    1
@<TRIPOS>MOLECULE
*****
 29 32 0 0 0
SMALL
GASTEIGER

@<TRIPOS>ATOM
      1 C           5.8822   -3.0421   19.4201 C.ar    1  UNL1       -0.0130
      2 C           4.7898   -3.5470   20.3154 C.ar    1  UNL1       -0.0022
      3 C           5.1148   -4.0229   21.7003 C.ar    1  UNL1        0.0188
      4 C           6.5323   -3.9938   22.1900 C.ar    1  UNL1        0.0824
      5 C           7.6248   -3.4889   21.2946 C.ar    1  UNL1        0.0188
      6 C           7.2998   -3.0131   19.9097 C.ar    1  UNL1       -0.0022
      7 N           6.8573   -4.4697   23.5748 N.ar    1  UNL1       -0.2341
      8 N           6.3233   -3.8941   24.8529 N.ar    1  UNL1       -0.1617
      9 C           6.9094   -4.6734   25.9927 C.ar    1  UNL1        0.1696
     10 C           7.8057   -5.7305   25.4191 C.ar    1  UNL1        0.0148
     11 C           7.7735   -5.6047   23.9247 C.ar    1  UNL1        0.0579
     12 C           8.5826   -6.5398   23.0757 C.3     1  UNL1        0.0456
     13 C           9.4239   -7.6007   23.7210 C.3     1  UNL1        0.0066
     14 C           9.4561   -7.7266   25.2154 C.3     1  UNL1        0.0052
     15 C           8.6470   -6.7915   26.0644 C.3     1  UNL1        0.0291
     16 C           6.6456   -4.4370   27.4503 C.3     1  UNL1        0.4362
     17 F           6.3818   -4.2005   28.9079 F       1  UNL1       -0.1644
     18 F           7.3754   -3.1289   27.3703 F       1  UNL1       -0.1644
     19 F           5.9158   -5.7449   27.5304 F       1  UNL1       -0.1644
     20 C           5.5572   -2.5663   18.0352 C.3     1  UNL1        0.1113
     21 O           4.1395   -1.0694   16.4543 O.2     1  UNL1       -0.2747
     22 C           4.5831   -1.4429   17.8376 C.2     1  UNL1        0.2269
     23 N           4.0526   -0.6928   19.0234 N.am    1  UNL1       -0.3057
     24 H           4.3438   -0.9379   19.9314 H       1  UNL1        0.1494
     25 C           3.0786    0.4306   18.8259 C.3     1  UNL1        0.0716
     26 C           1.5999    0.2891   18.6173 C.3     1  UNL1        0.0196
     27 C           1.0196    1.6639   18.4648 C.3     1  UNL1        0.0017
     28 C           2.1397    2.6550   18.5792 C.3     1  UNL1        0.0017
     29 C           3.4122    1.8929   18.8023 C.3     1  UNL1        0.0196
@<TRIPOS>BOND
     1    21    22    2
     2    22    20    1
     3    20     1    1
     4     1     2   ar
     5     2     3   ar
     6     3     4   ar
     7     4     7    1
     8     7     8   ar
     9     8     9   ar
    10     9    16    1
    11    16    17    1
    12    16    18    1
    13    16    19    1
    14     9    10   ar
    15    10    11   ar
    16    11    12    1
    17    12    13    1
    18    13    14    1
    19    14    15    1
    20     4     5   ar
    21     5     6   ar
    22    22    23   am
    23    23    25    1
    24    25    26    1
    25    26    27    1
    26    27    28    1
    27    28    29    1
    28     6     1   ar
    29    29    25    1
    30    11     7   ar
    31    15    10    1
    32    23    24    1
@<TRIPOS>MOLECULE
*****
 29 32 0 0 0
SMALL
GASTEIGER

@<TRIPOS>ATOM
      1 C           1.1905    2.8519   18.6439 C.ar    1  UNL1       -0.0130
      2 C           0.3384    1.6905   19.0624 C.ar    1  UNL1       -0.0022
      3 C           0.9793    0.3889   19.4434 C.ar    1  UNL1        0.0188
      4 C           2.4721    0.2486   19.4058 C.ar    1  UNL1        0.0824
      5 C           3.3243    1.4100   18.9873 C.ar    1  UNL1        0.0188
      6 C           2.6834    2.7116   18.6064 C.ar    1  UNL1       -0.0022
      7 N           3.1130   -1.0531   19.7867 N.ar    1  UNL1       -0.2341
      8 N           3.4073   -2.1954   18.8602 N.ar    1  UNL1       -0.1617
      9 C           4.0482   -3.2892   19.6620 C.ar    1  UNL1        0.1696
     10 C           4.1501   -2.8228   21.0840 C.ar    1  UNL1        0.0148
     11 C           3.5721   -1.4408   21.1611 C.ar    1  UNL1        0.0579
     12 C           3.5385   -0.7140   22.4728 C.3     1  UNL1        0.0456
     13 C           4.0829   -1.3693   23.7074 C.3     1  UNL1        0.0066
     14 C           4.6609   -2.7513   23.6303 C.3     1  UNL1        0.0052
     15 C           4.6945   -3.4781   22.3186 C.3     1  UNL1        0.0291
     16 C           4.5068   -4.6163   19.1343 C.3     1  UNL1        0.4362
     17 F           4.9655   -5.9435   18.6067 F       1  UNL1       -0.1644
     18 F           5.9350   -4.1929   19.3106 F       1  UNL1       -0.1644
     19 F           3.0788   -5.0397   18.9581 F       1  UNL1       -0.1644
     20 C           0.5496    4.1535   18.2630 C.3     1  UNL1        0.1113
     21 O          -1.2539    3.9614   16.4028 O.2     1  UNL1       -0.2747
     22 C          -0.8892    4.1856   17.8404 C.2     1  UNL1        0.2269
     23 N          -1.9635    4.4419   18.8555 N.am    1  UNL1       -0.3057
     24 H          -1.7241    4.5891   19.7990 H       1  UNL1        0.1494
     25 C          -3.4024    4.4741   18.4330 C.3     1  UNL1        0.0716
     26 C          -4.0024    5.3998   17.4166 C.3     1  UNL1        0.0196
     27 C          -5.4648    5.0839   17.3082 C.3     1  UNL1        0.0017
     28 C          -5.7685    3.9630   18.2575 C.3     1  UNL1        0.0017
     29 C          -4.4939    3.5861   18.9527 C.3     1  UNL1        0.0196
@<TRIPOS>BOND
     1    21    22    2
     2    22    20    1
     3    20     1    1
     4     1     2   ar
     5     2     3   ar
     6     3     4   ar
     7     4     7    1
     8     7     8   ar
     9     8     9   ar
    10     9    16    1
    11    16    17    1
    12    16    18    1
    13    16    19    1
    14     9    10   ar
    15    10    11   ar
    16    11    12    1
    17    12    13    1
    18    13    14    1
    19    14    15    1
    20     4     5   ar
    21     5     6   ar
    22    22    23   am
    23    23    25    1
    24    25    26    1
    25    26    27    1
    26    27    28    1
    27    28    29    1
    28     6     1   ar
    29    29    25    1
    30    11     7   ar
    31    15    10    1
    32    23    24    1
@<TRIPOS>MOLECULE
*****
 29 32 0 0 0
SMALL
GASTEIGER

@<TRIPOS>ATOM
      1 C           1.9773    1.7743   18.8059 C.ar    1  UNL1       -0.0130
      2 C           1.4526    3.1427   18.4863 C.ar    1  UNL1       -0.0022
      3 C           0.1455    3.5986   19.0641 C.ar    1  UNL1        0.0188
      4 C          -0.6367    2.6862   19.9615 C.ar    1  UNL1        0.0824
      5 C          -0.1120    1.3177   20.2812 C.ar    1  UNL1        0.0188
      6 C           1.1951    0.8619   19.7034 C.ar    1  UNL1       -0.0022
      7 N          -1.9438    3.1421   20.5393 N.ar    1  UNL1       -0.2341
      8 N          -2.3021    3.1698   21.9956 N.ar    1  UNL1       -0.1617
      9 C          -3.7017    3.6952   22.1186 C.ar    1  UNL1        0.1696
     10 C          -4.2084    3.9921   20.7383 C.ar    1  UNL1        0.0148
     11 C          -3.1219    3.6503   19.7623 C.ar    1  UNL1        0.0579
     12 C          -3.3456    3.8459   18.2920 C.3     1  UNL1        0.0456
     13 C          -4.6559    4.3833   17.7979 C.3     1  UNL1        0.0066
     14 C          -5.7424    4.7252   18.7739 C.3     1  UNL1        0.0052
     15 C          -5.5187    4.5295   20.2441 C.3     1  UNL1        0.0291
     16 C          -4.4614    3.8895   23.3973 C.3     1  UNL1        0.4362
     17 F          -5.2210    4.0839   24.6761 F       1  UNL1       -0.1644
     18 F          -3.8745    5.2628   23.5373 F       1  UNL1       -0.1644
     19 F          -5.0482    2.5162   23.2574 F       1  UNL1       -0.1644
     20 C           3.2843    1.3185   18.2281 C.3     1  UNL1        0.1113
     21 O           3.5023   -0.7759   16.7062 O.2     1  UNL1       -0.2747
     22 C           3.5625   -0.1466   18.0664 C.2     1  UNL1        0.2269
     23 N           3.9009   -0.9825   19.2652 N.am    1  UNL1       -0.3057
     24 H           3.9404   -0.5695   20.1580 H       1  UNL1        0.1494
     25 C           4.1791   -2.4476   19.1036 C.3     1  UNL1        0.0716
     26 C           5.4610   -3.0528   18.6134 C.3     1  UNL1        0.0196
     27 C           5.2983   -4.5440   18.6108 C.3     1  UNL1        0.0017
     28 C           3.9159   -4.8603   19.0993 C.3     1  UNL1        0.0017
     29 C           3.2241   -3.5646   19.4039 C.3     1  UNL1        0.0196
@<TRIPOS>BOND
     1    21    22    2
     2    22    20    1
     3    20     1    1
     4     1     2   ar
     5     2     3   ar
     6     3     4   ar
     7     4     7    1
     8     7     8   ar
     9     8     9   ar
    10     9    16    1
    11    16    17    1
    12    16    18    1
    13    16    19    1
    14     9    10   ar
    15    10    11   ar
    16    11    12    1
    17    12    13    1
    18    13    14    1
    19    14    15    1
    20     4     5   ar
    21     5     6   ar
    22    22    23   am
    23    23    25    1
    24    25    26    1
    25    26    27    1
    26    27    28    1
    27    28    29    1
    28     6     1   ar
    29    29    25    1
    30    11     7   ar
    31    15    10    1
    32    23    24    1
@<TRIPOS>MOLECULE
*****
 29 32 0 0 0
SMALL
GASTEIGER

@<TRIPOS>ATOM
      1 C           1.8962    1.1303   24.7232 C.ar    1  UNL1       -0.0130
      2 C           2.9854    0.1160   24.9094 C.ar    1  UNL1       -0.0022
      3 C           3.4846   -0.6728   23.7352 C.ar    1  UNL1        0.0188
      4 C           2.8946   -0.4472   22.3747 C.ar    1  UNL1        0.0824
      5 C           1.8053    0.5672   22.1885 C.ar    1  UNL1        0.0188
      6 C           1.3062    1.3559   23.3627 C.ar    1  UNL1       -0.0022
      7 N           3.3937   -1.2359   21.2005 N.ar    1  UNL1       -0.2341
      8 N           3.5403   -2.7274   21.1384 N.ar    1  UNL1       -0.1617
      9 C           4.0711   -3.0849   19.7817 C.ar    1  UNL1        0.1696
     10 C           4.2525   -1.8143   19.0054 C.ar    1  UNL1        0.0148
     11 C           3.8338   -0.6715   19.8823 C.ar    1  UNL1        0.0579
     12 C           3.9075    0.7353   19.3671 C.3     1  UNL1        0.0456
     13 C           4.3998    0.9993   17.9751 C.3     1  UNL1        0.0066
     14 C           4.8185   -0.1434   17.0982 C.3     1  UNL1        0.0052
     15 C           4.7448   -1.5502   17.6134 C.3     1  UNL1        0.0291
     16 C           4.3682   -4.4698   19.2880 C.3     1  UNL1        0.4362
     17 F           4.6655   -5.8547   18.7943 F       1  UNL1       -0.1644
     18 F           5.7798   -4.3419   19.7791 F       1  UNL1       -0.1644
     19 F           2.9567   -4.5976   18.7970 F       1  UNL1       -0.1644
     20 C           1.3971    1.9190   25.8974 C.3     1  UNL1        0.1113
     21 O          -0.8934    1.2201   26.9050 O.2     1  UNL1       -0.2747
     22 C          -0.0736    2.1582   26.0695 C.2     1  UNL1        0.2269
     23 N          -0.7248    3.3355   25.4061 N.am    1  UNL1       -0.3057
     24 H          -0.1868    3.9512   24.8578 H       1  UNL1        0.1494
     25 C          -2.1955    3.5747   25.5782 C.3     1  UNL1        0.0716
     26 C          -2.8759    4.0110   26.8418 C.3     1  UNL1        0.0196
     27 C          -4.3450    4.1256   26.5614 C.3     1  UNL1        0.0017
     28 C          -4.5725    3.7602   25.1246 C.3     1  UNL1        0.0017
     29 C          -3.2441    3.4197   24.5169 C.3     1  UNL1        0.0196
@<TRIPOS>BOND
     1    21    22    2
     2    22    20    1
     3    20     1    1
     4     1     2   ar
     5     2     3   ar
     6     3     4   ar
     7     4     7    1
     8     7     8   ar
     9     8     9   ar
    10     9    16    1
    11    16    17    1
    12    16    18    1
    13    16    19    1
    14     9    10   ar
    15    10    11   ar
    16    11    12    1
    17    12    13    1
    18    13    14    1
    19    14    15    1
    20     4     5   ar
    21     5     6   ar
    22    22    23   am
    23    23    25    1
    24    25    26    1
    25    26    27    1
    26    27    28    1
    27    28    29    1
    28     6     1   ar
    29    29    25    1
    30    11     7   ar
    31    15    10    1
    32    23    24    1
