@<TRIPOS>MOLECULE
*****
 32 35 0 0 0
SMALL
GASTEIGER

@<TRIPOS>ATOM
      1 C           7.3429   -5.9505   26.0406 C.3     1  UNL1        0.0732
      2 C           8.1245   -7.2207   26.2009 C.3     1  UNL1        0.0197
      3 C           8.5361   -7.6806   27.5680 C.3     1  UNL1        0.0031
      4 C           8.1660   -6.8704   28.7749 C.3     1  UNL1        0.0161
      5 C           7.3843   -5.6002   28.6146 C.3     1  UNL1        0.0592
      6 C           6.9727   -5.1403   27.2475 C.3     1  UNL1        0.0355
      7 N           7.0141   -4.7900   29.8214 N.3     1  UNL1       -0.2727
      8 C           7.0867   -5.2488   31.2477 C.3     1  UNL1        0.0736
      9 C           6.6238   -4.1209   32.1216 C.3     1  UNL1        0.0364
     10 C           6.2651   -2.9650   31.2354 C.3     1  UNL1        0.0966
     11 C           6.5063   -3.3785   29.8138 C.3     1  UNL1        0.0900
     12 N           5.7548   -1.6301   31.6908 N.3     1  UNL1       -0.1579
     13 C           5.8869   -0.4321   30.7977 C.3     1  UNL1        0.1145
     14 S           5.1123   -1.4930   33.0393 S.O2    1  UNL1        0.0457
     15 C           4.4699   -1.3560   34.3878 C.3     1  UNL1        0.1960
     16 O           6.3961   -0.9527   33.5961 O.2     1  UNL1       -0.1572
     17 O           3.8286   -2.0334   32.4826 O.2     1  UNL1       -0.1572
     18 C           7.8060   -4.5443   23.9057 C.2     1  UNL1        0.2631
     19 O           9.0921   -4.0579   24.5051 O.2     1  UNL1       -0.2685
     20 N           6.9314   -5.4906   24.6734 N.am    1  UNL1       -0.3012
     21 H           6.0872   -5.8099   24.2800 H       1  UNL1        0.1497
     22 C           3.8148   -4.4658   19.5297 C.3     1  UNL1        0.0286
     23 C           5.1100   -3.7221   19.3902 C.2     1  UNL1       -0.0178
     24 C           5.4012   -2.9520   18.1364 C.2     1  UNL1       -0.0040
     25 C           6.6963   -2.2083   17.9968 C.2     1  UNL1        0.0288
     26 C           7.7003   -2.2347   19.1110 C.2     1  UNL1        0.1383
     27 F           8.9954   -1.4909   18.9714 F       1  UNL1       -0.2044
     28 C           7.4090   -3.0048   20.3648 C.2     1  UNL1        0.0327
     29 C           8.2006   -3.2124   21.6219 C.2     1  UNL1        0.0235
     30 C           7.3946   -4.0844   22.5385 C.2     1  UNL1        0.1296
     31 N           6.1049   -4.4158   21.8478 N.2     1  UNL1       -0.2591
     32 C           6.1138   -3.7485   20.5044 C.3     1  UNL1        0.1461
@<TRIPOS>BOND
     1    22    23    1
     2    23    24    2
     3    24    25    1
     4    25    26    2
     5    26    27    1
     6    26    28    1
     7    28    29    2
     8    29    30    1
     9    30    18    1
    10    18    19    2
    11    18    20   am
    12     1    20    1
    13     1     2    1
    14     2     3    1
    15     3     4    1
    16     4     5    1
    17     5     7    1
    18     7     8    1
    19     8     9    1
    20     9    10    1
    21    10    12    1
    22    12    13    1
    23    12    14    1
    24    14    15    1
    25    14    16    2
    26    14    17    2
    27    10    11    1
    28     5     6    1
    29    30    31    2
    30    31    32    1
    31    32    23    1
    32    32    28    1
    33     6     1    1
    34    11     7    1
    35    20    21    1
@<TRIPOS>MOLECULE
*****
 32 35 0 0 0
SMALL
GASTEIGER

@<TRIPOS>ATOM
      1 C           1.4731    1.1652   27.6595 C.3     1  UNL1        0.0732
      2 C           0.5979    2.3722   27.4948 C.3     1  UNL1        0.0197
      3 C           0.3078    3.2546   28.6726 C.3     1  UNL1        0.0031
      4 C           0.8929    2.9300   30.0151 C.3     1  UNL1        0.0161
      5 C           1.7681    1.7230   30.1798 C.3     1  UNL1        0.0592
      6 C           2.0582    0.8406   29.0020 C.3     1  UNL1        0.0355
      7 N           2.3532    1.3983   31.5222 N.3     1  UNL1       -0.2727
      8 C           2.1506    2.1817   32.7852 C.3     1  UNL1        0.0736
      9 C           2.9159    1.5007   33.8809 C.3     1  UNL1        0.0364
     10 C           3.5914    0.2963   33.2951 C.3     1  UNL1        0.0966
     11 C           3.2437    0.2330   31.8373 C.3     1  UNL1        0.0900
     12 N           4.4619   -0.6743   34.0368 N.3     1  UNL1       -0.1579
     13 C           4.7304   -0.4752   35.4991 C.3     1  UNL1        0.1145
     14 S           5.0639   -1.8441   33.3163 S.O2    1  UNL1        0.0457
     15 C           5.6658   -3.0139   32.5957 C.3     1  UNL1        0.1960
     16 O           6.2574   -1.0093   32.9579 O.2     1  UNL1       -0.1572
     17 O           3.8703   -2.6790   33.6746 O.2     1  UNL1       -0.1572
     18 C           3.0269    0.4722   25.6959 C.2     1  UNL1        0.2631
     19 O           4.0004    1.5438   26.0881 O.2     1  UNL1       -0.2685
     20 N           1.7632    0.2829   26.4816 N.am    1  UNL1       -0.3012
     21 H           1.1242   -0.4205   26.2242 H       1  UNL1        0.1497
     22 C           2.2132   -0.8460   19.9789 C.3     1  UNL1        0.0286
     23 C           3.1139   -1.6889   20.8321 C.2     1  UNL1       -0.0178
     24 C           3.8156   -2.8744   20.2387 C.2     1  UNL1       -0.0040
     25 C           4.7163   -3.7173   21.0919 C.2     1  UNL1        0.0288
     26 C           4.9155   -3.3747   22.5387 C.2     1  UNL1        0.1383
     27 F           5.8163   -4.2177   23.3919 F       1  UNL1       -0.2044
     28 C           4.2139   -2.1892   23.1321 C.2     1  UNL1        0.0327
     29 C           4.2163   -1.6106   24.5160 C.2     1  UNL1        0.0235
     30 C           3.3170   -0.4101   24.5180 C.2     1  UNL1        0.1296
     31 N           2.7588   -0.2467   23.1354 N.2     1  UNL1       -0.2591
     32 C           3.3131   -1.3463   22.2788 C.3     1  UNL1        0.1461
@<TRIPOS>BOND
     1    22    23    1
     2    23    24    2
     3    24    25    1
     4    25    26    2
     5    26    27    1
     6    26    28    1
     7    28    29    2
     8    29    30    1
     9    30    18    1
    10    18    19    2
    11    18    20   am
    12     1    20    1
    13     1     2    1
    14     2     3    1
    15     3     4    1
    16     4     5    1
    17     5     7    1
    18     7     8    1
    19     8     9    1
    20     9    10    1
    21    10    12    1
    22    12    13    1
    23    12    14    1
    24    14    15    1
    25    14    16    2
    26    14    17    2
    27    10    11    1
    28     5     6    1
    29    30    31    2
    30    31    32    1
    31    32    23    1
    32    32    28    1
    33     6     1    1
    34    11     7    1
    35    20    21    1
@<TRIPOS>MOLECULE
*****
 32 35 0 0 0
SMALL
GASTEIGER

@<TRIPOS>ATOM
      1 C           1.8114    0.4714   28.5046 C.3     1  UNL1        0.0732
      2 C           1.0619    1.5718   29.1955 C.3     1  UNL1        0.0197
      3 C           1.3015    1.8433   30.6512 C.3     1  UNL1        0.0031
      4 C           2.2906    1.0145   31.4158 C.3     1  UNL1        0.0161
      5 C           3.0401   -0.0858   30.7249 C.3     1  UNL1        0.0592
      6 C           2.8005   -0.3574   29.2692 C.3     1  UNL1        0.0355
      7 N           4.0292   -0.9147   31.4894 N.3     1  UNL1       -0.2727
      8 C           4.0073   -1.1738   32.9667 C.3     1  UNL1        0.0736
      9 C           5.1785   -2.0493   33.3012 C.3     1  UNL1        0.0364
     10 C           5.9244   -2.3312   32.0306 C.3     1  UNL1        0.0966
     11 C           5.2141   -1.6299   30.9108 C.3     1  UNL1        0.0900
     12 N           7.1630   -3.1674   31.9023 N.3     1  UNL1       -0.1579
     13 C           8.4497   -2.7012   32.5165 C.3     1  UNL1        0.1145
     14 S           7.1150   -4.4699   31.1599 S.O2    1  UNL1        0.0457
     15 C           7.0669   -5.7724   30.4175 C.3     1  UNL1        0.1960
     16 O           7.7071   -3.8041   29.9533 O.2     1  UNL1       -0.1572
     17 O           6.5228   -5.1358   32.3665 O.2     1  UNL1       -0.1572
     18 C           2.4296    0.8616   26.0115 C.2     1  UNL1        0.2631
     19 O           3.5271    1.7946   26.4297 O.2     1  UNL1       -0.2685
     20 N           1.5718    0.2000   27.0489 N.am    1  UNL1       -0.3012
     21 H           0.8514   -0.4124   26.7744 H       1  UNL1        0.1497
     22 C           3.8694   -2.0406   21.0528 C.3     1  UNL1        0.0286
     23 C           2.7417   -1.0516   21.0540 C.2     1  UNL1       -0.0178
     24 C           1.9703   -0.7922   19.7940 C.2     1  UNL1       -0.0040
     25 C           0.8426    0.1968   19.7952 C.2     1  UNL1        0.0288
     26 C           0.4861    0.9264   21.0564 C.2     1  UNL1        0.1383
     27 F          -0.6417    1.9154   21.0575 F       1  UNL1       -0.2044
     28 C           1.2575    0.6670   22.3164 C.2     1  UNL1        0.0327
     29 C           1.1368    1.2307   23.7012 C.2     1  UNL1        0.0235
     30 C           2.1900    0.5901   24.5558 C.2     1  UNL1        0.1296
     31 N           2.9616   -0.3695   23.6992 N.2     1  UNL1       -0.2591
     32 C           2.3853   -0.3221   22.3152 C.3     1  UNL1        0.1461
@<TRIPOS>BOND
     1    22    23    1
     2    23    24    2
     3    24    25    1
     4    25    26    2
     5    26    27    1
     6    26    28    1
     7    28    29    2
     8    29    30    1
     9    30    18    1
    10    18    19    2
    11    18    20   am
    12     1    20    1
    13     1     2    1
    14     2     3    1
    15     3     4    1
    16     4     5    1
    17     5     7    1
    18     7     8    1
    19     8     9    1
    20     9    10    1
    21    10    12    1
    22    12    13    1
    23    12    14    1
    24    14    15    1
    25    14    16    2
    26    14    17    2
    27    10    11    1
    28     5     6    1
    29    30    31    2
    30    31    32    1
    31    32    23    1
    32    32    28    1
    33     6     1    1
    34    11     7    1
    35    20    21    1
@<TRIPOS>MOLECULE
*****
 32 35 0 0 0
SMALL
GASTEIGER

@<TRIPOS>ATOM
      1 C           4.3553   -2.3465   19.9367 C.3     1  UNL1        0.0732
      2 C           4.9588   -2.3747   18.5638 C.3     1  UNL1        0.0197
      3 C           4.4597   -1.4359   17.5057 C.3     1  UNL1        0.0031
      4 C           3.3571   -0.4689   17.8206 C.3     1  UNL1        0.0161
      5 C           2.7536   -0.4407   19.1935 C.3     1  UNL1        0.0592
      6 C           3.2527   -1.3795   20.2516 C.3     1  UNL1        0.0355
      7 N           1.6511    0.5262   19.5085 N.3     1  UNL1       -0.2727
      8 C           0.7846    0.5072   20.7328 C.3     1  UNL1        0.0736
      9 C          -0.1807    1.6513   20.6353 C.3     1  UNL1        0.0364
     10 C           0.0893    2.3774   19.3508 C.3     1  UNL1        0.0966
     11 C           1.2213    1.6821   18.6543 C.3     1  UNL1        0.0900
     12 N          -0.6441    3.5865   18.8505 N.3     1  UNL1       -0.1579
     13 C          -2.0099    3.9080   19.3809 C.3     1  UNL1        0.1145
     14 S          -0.0116    4.4741   17.8200 S.O2    1  UNL1        0.0457
     15 C           0.6208    5.3618   16.7894 C.3     1  UNL1        0.1960
     16 O          -0.8587    3.8421   16.7556 O.2     1  UNL1       -0.1572
     17 O           0.8355    5.1062   18.8843 O.2     1  UNL1       -0.1572
     18 C           6.0343   -2.9047   21.8392 C.2     1  UNL1        0.2631
     19 O           6.7150   -1.5852   21.6255 O.2     1  UNL1       -0.2685
     20 N           4.8545   -3.2854   20.9948 N.am    1  UNL1       -0.3012
     21 H           4.4078   -4.1515   21.1350 H       1  UNL1        0.1497
     22 C           9.3038   -7.6005   23.3706 C.3     1  UNL1        0.0286
     23 C           8.5190   -6.8509   24.4061 C.2     1  UNL1       -0.0178
     24 C           8.5589   -7.2891   25.8401 C.2     1  UNL1       -0.0040
     25 C           7.7742   -6.5395   26.8755 C.2     1  UNL1        0.0288
     26 C           6.9493   -5.3516   26.4770 C.2     1  UNL1        0.1383
     27 F           6.1645   -4.6020   27.5125 F       1  UNL1       -0.2044
     28 C           6.9094   -4.9134   25.0430 C.2     1  UNL1        0.0327
     29 C           6.1921   -3.7889   24.3568 C.2     1  UNL1        0.0235
     30 C           6.5336   -3.8435   22.8972 C.2     1  UNL1        0.1296
     31 N           7.4619   -5.0018   22.6813 N.2     1  UNL1       -0.2591
     32 C           7.6942   -5.6630   24.0076 C.3     1  UNL1        0.1461
@<TRIPOS>BOND
     1    22    23    1
     2    23    24    2
     3    24    25    1
     4    25    26    2
     5    26    27    1
     6    26    28    1
     7    28    29    2
     8    29    30    1
     9    30    18    1
    10    18    19    2
    11    18    20   am
    12     1    20    1
    13     1     2    1
    14     2     3    1
    15     3     4    1
    16     4     5    1
    17     5     7    1
    18     7     8    1
    19     8     9    1
    20     9    10    1
    21    10    12    1
    22    12    13    1
    23    12    14    1
    24    14    15    1
    25    14    16    2
    26    14    17    2
    27    10    11    1
    28     5     6    1
    29    30    31    2
    30    31    32    1
    31    32    23    1
    32    32    28    1
    33     6     1    1
    34    11     7    1
    35    20    21    1
@<TRIPOS>MOLECULE
*****
 32 35 0 0 0
SMALL
GASTEIGER

@<TRIPOS>ATOM
      1 C           0.6562    1.6758   26.0100 C.3     1  UNL1        0.0732
      2 C           1.2184    2.4138   27.1886 C.3     1  UNL1        0.0197
      3 C           0.4250    3.5105   27.8349 C.3     1  UNL1        0.0031
      4 C          -0.9307    3.8693   27.3025 C.3     1  UNL1        0.0161
      5 C          -1.4929    3.1313   26.1238 C.3     1  UNL1        0.0592
      6 C          -0.6995    2.0346   25.4776 C.3     1  UNL1        0.0355
      7 N          -2.8485    3.4900   25.5913 N.3     1  UNL1       -0.2727
      8 C          -4.0380    3.8966   26.4097 C.3     1  UNL1        0.0736
      9 C          -5.1773    4.1630   25.4711 C.3     1  UNL1        0.0364
     10 C          -4.6919    3.9210   24.0725 C.3     1  UNL1        0.0966
     11 C          -3.2526    3.5050   24.1468 C.3     1  UNL1        0.0900
     12 N          -5.5034    4.0689   22.8196 N.3     1  UNL1       -0.1579
     13 C          -6.9858    4.2809   22.9068 C.3     1  UNL1        0.1145
     14 S          -4.8324    4.0048   21.4796 S.O2    1  UNL1        0.0457
     15 C          -4.1615    3.9407   20.1396 C.3     1  UNL1        0.1960
     16 O          -4.8894    5.5003   21.3794 O.2     1  UNL1       -0.1572
     17 O          -4.7754    2.5093   21.5797 O.2     1  UNL1       -0.1572
     18 C           2.0395    0.7837   23.9998 C.2     1  UNL1        0.2631
     19 O           1.8357    2.0850   23.2822 O.2     1  UNL1       -0.2685
     20 N           1.4497    0.5790   25.3638 N.am    1  UNL1       -0.3012
     21 H           1.5834   -0.2751   25.8348 H       1  UNL1        0.1497
     22 C           6.0915   -3.5164   24.4179 C.3     1  UNL1        0.0286
     23 C           5.4164   -3.2334   23.1087 C.2     1  UNL1       -0.0178
     24 C           5.7660   -4.0416   21.8944 C.2     1  UNL1       -0.0040
     25 C           5.0909   -3.7586   20.5852 C.2     1  UNL1        0.0288
     26 C           4.0661   -2.6673   20.4902 C.2     1  UNL1        0.1383
     27 F           3.3910   -2.3843   19.1809 F       1  UNL1       -0.2044
     28 C           3.7165   -1.8591   21.7045 C.2     1  UNL1        0.0327
     29 C           2.7532   -0.7286   21.9145 C.2     1  UNL1        0.0235
     30 C           2.8330   -0.3130   23.3536 C.2     1  UNL1        0.1296
     31 N           3.8456   -1.1866   24.0330 N.2     1  UNL1       -0.2591
     32 C           4.3916   -2.1421   23.0138 C.3     1  UNL1        0.1461
@<TRIPOS>BOND
     1    22    23    1
     2    23    24    2
     3    24    25    1
     4    25    26    2
     5    26    27    1
     6    26    28    1
     7    28    29    2
     8    29    30    1
     9    30    18    1
    10    18    19    2
    11    18    20   am
    12     1    20    1
    13     1     2    1
    14     2     3    1
    15     3     4    1
    16     4     5    1
    17     5     7    1
    18     7     8    1
    19     8     9    1
    20     9    10    1
    21    10    12    1
    22    12    13    1
    23    12    14    1
    24    14    15    1
    25    14    16    2
    26    14    17    2
    27    10    11    1
    28     5     6    1
    29    30    31    2
    30    31    32    1
    31    32    23    1
    32    32    28    1
    33     6     1    1
    34    11     7    1
    35    20    21    1
@<TRIPOS>MOLECULE
*****
 32 35 0 0 0
SMALL
GASTEIGER

@<TRIPOS>ATOM
      1 C          -0.4958    2.8590   19.0182 C.3     1  UNL1        0.0732
      2 C          -1.0570    3.6594   17.8805 C.3     1  UNL1        0.0197
      3 C          -2.3220    4.4436   18.0674 C.3     1  UNL1        0.0031
      4 C          -3.0258    4.4273   19.3919 C.3     1  UNL1        0.0161
      5 C          -2.4646    3.6268   20.5296 C.3     1  UNL1        0.0592
      6 C          -1.1996    2.8426   20.3427 C.3     1  UNL1        0.0355
      7 N          -3.1684    3.6104   21.8541 N.3     1  UNL1       -0.2727
      8 C          -4.5525    3.0925   22.1108 C.3     1  UNL1        0.0736
      9 C          -4.8511    3.2711   23.5699 C.3     1  UNL1        0.0364
     10 C          -3.6514    3.8994   24.2150 C.3     1  UNL1        0.0966
     11 C          -2.6114    4.1091   23.1546 C.3     1  UNL1        0.0900
     12 N          -3.5156    4.2555   25.6658 N.3     1  UNL1       -0.1579
     13 C          -2.3729    3.7080   26.4687 C.3     1  UNL1        0.1145
     14 S          -4.5224    5.1590   26.3137 S.O2    1  UNL1        0.0457
     15 C          -5.5293    6.0626   26.9616 C.3     1  UNL1        0.1960
     16 O          -4.7354    4.1445   27.3978 O.2     1  UNL1       -0.1572
     17 O          -4.3095    6.1737   25.2297 O.2     1  UNL1       -0.1572
     18 C           0.9333    0.7445   19.5045 C.2     1  UNL1        0.2631
     19 O          -0.1675    0.1984   20.3647 O.2     1  UNL1       -0.2685
     20 N           0.7692    2.0748   18.8312 N.am    1  UNL1       -0.3012
     21 H           1.4917    2.4333   18.2666 H       1  UNL1        0.1497
     22 C           4.4045   -3.7960   21.0598 C.3     1  UNL1        0.0286
     23 C           4.8224   -2.8608   19.9640 C.2     1  UNL1       -0.0178
     24 C           6.1269   -3.0722   19.2543 C.2     1  UNL1       -0.0040
     25 C           6.5447   -2.1371   18.1586 C.2     1  UNL1        0.0288
     26 C           5.6582   -0.9903   17.7725 C.2     1  UNL1        0.1383
     27 F           6.0762   -0.0551   16.6767 F       1  UNL1       -0.2044
     28 C           4.3538   -0.7788   18.4822 C.2     1  UNL1        0.0327
     29 C           3.2799    0.2561   18.3213 C.2     1  UNL1        0.0235
     30 C           2.1983   -0.0396   19.3177 C.2     1  UNL1        0.1296
     31 N           2.6037   -1.2572   20.0943 N.2     1  UNL1       -0.2591
     32 C           3.9359   -1.7140   19.5780 C.3     1  UNL1        0.1461
@<TRIPOS>BOND
     1    22    23    1
     2    23    24    2
     3    24    25    1
     4    25    26    2
     5    26    27    1
     6    26    28    1
     7    28    29    2
     8    29    30    1
     9    30    18    1
    10    18    19    2
    11    18    20   am
    12     1    20    1
    13     1     2    1
    14     2     3    1
    15     3     4    1
    16     4     5    1
    17     5     7    1
    18     7     8    1
    19     8     9    1
    20     9    10    1
    21    10    12    1
    22    12    13    1
    23    12    14    1
    24    14    15    1
    25    14    16    2
    26    14    17    2
    27    10    11    1
    28     5     6    1
    29    30    31    2
    30    31    32    1
    31    32    23    1
    32    32    28    1
    33     6     1    1
    34    11     7    1
    35    20    21    1
@<TRIPOS>MOLECULE
*****
 32 35 0 0 0
SMALL
GASTEIGER

@<TRIPOS>ATOM
      1 C           1.3674    1.6195   27.3106 C.3     1  UNL1        0.0732
      2 C           0.0955    2.4133   27.2639 C.3     1  UNL1        0.0197
      3 C          -0.6492    2.5611   25.9702 C.3     1  UNL1        0.0031
      4 C          -0.1221    1.9152   24.7233 C.3     1  UNL1        0.0161
      5 C           1.1498    1.1214   24.7700 C.3     1  UNL1        0.0592
      6 C           1.8945    0.9736   26.0636 C.3     1  UNL1        0.0355
      7 N           1.6769    0.4754   23.5231 N.3     1  UNL1       -0.2727
      8 C           1.1855    0.7211   22.1274 C.3     1  UNL1        0.0736
      9 C           1.9930   -0.1322   21.1947 C.3     1  UNL1        0.0364
     10 C           2.9836   -0.9053   22.0141 C.3     1  UNL1        0.0966
     11 C           2.7882   -0.5298   23.4532 C.3     1  UNL1        0.0900
     12 N           3.9923   -1.8823   21.4870 N.3     1  UNL1       -0.1579
     13 C           4.5331   -2.9581   22.3815 C.3     1  UNL1        0.1145
     14 S           4.4603   -1.7835   20.0653 S.O2    1  UNL1        0.0457
     15 C           4.9283   -1.6847   18.6436 C.3     1  UNL1        0.1960
     16 O           3.5325   -2.8982   19.6823 O.2     1  UNL1       -0.1572
     17 O           5.3882   -0.6689   20.4482 O.2     1  UNL1       -0.1572
     18 C           1.5794    0.5693   29.6774 C.2     1  UNL1        0.2631
     19 O           0.3019   -0.1853   29.4569 O.2     1  UNL1       -0.2685
     20 N           2.1122    1.4718   28.6043 N.am    1  UNL1       -0.3012
     21 H           2.9506    1.9671   28.7490 H       1  UNL1        0.1497
     22 C           4.8685   -2.7382   33.3280 C.3     1  UNL1        0.0286
     23 C           4.4916   -1.3361   33.7051 C.2     1  UNL1       -0.0178
     24 C           4.9481   -0.7631   35.0140 C.2     1  UNL1       -0.0040
     25 C           4.5713    0.6389   35.3911 C.2     1  UNL1        0.0288
     26 C           3.7379    1.4680   34.4593 C.2     1  UNL1        0.1383
     27 F           3.3611    2.8701   34.8365 F       1  UNL1       -0.2044
     28 C           3.2815    0.8950   33.1504 C.2     1  UNL1        0.0327
     29 C           2.4568    1.4689   32.0366 C.2     1  UNL1        0.0235
     30 C           2.3240    0.4215   30.9711 C.2     1  UNL1        0.1296
     31 N           3.0666   -0.7997   31.4264 N.2     1  UNL1       -0.2591
     32 C           3.6583   -0.5071   32.7733 C.3     1  UNL1        0.1461
@<TRIPOS>BOND
     1    22    23    1
     2    23    24    2
     3    24    25    1
     4    25    26    2
     5    26    27    1
     6    26    28    1
     7    28    29    2
     8    29    30    1
     9    30    18    1
    10    18    19    2
    11    18    20   am
    12     1    20    1
    13     1     2    1
    14     2     3    1
    15     3     4    1
    16     4     5    1
    17     5     7    1
    18     7     8    1
    19     8     9    1
    20     9    10    1
    21    10    12    1
    22    12    13    1
    23    12    14    1
    24    14    15    1
    25    14    16    2
    26    14    17    2
    27    10    11    1
    28     5     6    1
    29    30    31    2
    30    31    32    1
    31    32    23    1
    32    32    28    1
    33     6     1    1
    34    11     7    1
    35    20    21    1
@<TRIPOS>MOLECULE
*****
 32 35 0 0 0
SMALL
GASTEIGER

@<TRIPOS>ATOM
      1 C           1.4007    1.6372   27.4823 C.3     1  UNL1        0.0732
      2 C           0.0793    2.3208   27.2913 C.3     1  UNL1        0.0197
      3 C          -0.5765    2.3218   25.9422 C.3     1  UNL1        0.0031
      4 C           0.0891    1.6393   24.7842 C.3     1  UNL1        0.0161
      5 C           1.4105    0.9557   24.9752 C.3     1  UNL1        0.0592
      6 C           2.0664    0.9547   26.3242 C.3     1  UNL1        0.0355
      7 N           2.0762    0.2731   23.8172 N.3     1  UNL1       -0.2727
      8 C           3.1920   -0.7255   23.9052 C.3     1  UNL1        0.0736
      9 C           3.5484   -1.1465   22.5102 C.3     1  UNL1        0.0364
     10 C           2.6527   -0.4080   21.5601 C.3     1  UNL1        0.0966
     11 C           1.7428    0.4694   22.3679 C.3     1  UNL1        0.0900
     12 N           2.6648   -0.5262   20.0648 N.3     1  UNL1       -0.1579
     13 C           1.5460    0.0618   19.2569 C.3     1  UNL1        0.1145
     14 S           3.7957   -1.2323   19.3775 S.O2    1  UNL1        0.0457
     15 C           4.9265   -1.9383   18.6901 C.3     1  UNL1        0.1960
     16 O           3.0282   -2.5196   19.4370 O.2     1  UNL1       -0.1572
     17 O           4.5632    0.0551   19.3179 O.2     1  UNL1       -0.1572
     18 C           1.6495    0.6256   29.8623 C.2     1  UNL1        0.2631
     19 O           0.5868   -0.3841   29.5441 O.2     1  UNL1       -0.2685
     20 N           2.0565    1.6363   28.8314 N.am    1  UNL1       -0.3012
     21 H           2.7540    2.2990   29.0401 H       1  UNL1        0.1497
     22 C           2.4420    3.1585   35.1576 C.3     1  UNL1        0.0286
     23 C           3.1620    1.8903   34.8067 C.2     1  UNL1       -0.0178
     24 C           4.0899    1.2553   35.7995 C.2     1  UNL1       -0.0040
     25 C           4.8100   -0.0128   35.4486 C.2     1  UNL1        0.0288
     26 C           4.6022   -0.6461   34.1048 C.2     1  UNL1        0.1383
     27 F           5.3223   -1.9144   33.7539 F       1  UNL1       -0.2044
     28 C           3.6743   -0.0111   33.1119 C.2     1  UNL1        0.0327
     29 C           3.2732   -0.4021   31.7204 C.2     1  UNL1        0.0235
     30 C           2.3053    0.6245   31.2114 C.2     1  UNL1        0.1296
     31 N           2.1081    1.6500   32.2883 N.2     1  UNL1       -0.2591
     32 C           2.9542    1.2571   33.4629 C.3     1  UNL1        0.1461
@<TRIPOS>BOND
     1    22    23    1
     2    23    24    2
     3    24    25    1
     4    25    26    2
     5    26    27    1
     6    26    28    1
     7    28    29    2
     8    29    30    1
     9    30    18    1
    10    18    19    2
    11    18    20   am
    12     1    20    1
    13     1     2    1
    14     2     3    1
    15     3     4    1
    16     4     5    1
    17     5     7    1
    18     7     8    1
    19     8     9    1
    20     9    10    1
    21    10    12    1
    22    12    13    1
    23    12    14    1
    24    14    15    1
    25    14    16    2
    26    14    17    2
    27    10    11    1
    28     5     6    1
    29    30    31    2
    30    31    32    1
    31    32    23    1
    32    32    28    1
    33     6     1    1
    34    11     7    1
    35    20    21    1
@<TRIPOS>MOLECULE
*****
 32 35 0 0 0
SMALL
GASTEIGER

@<TRIPOS>ATOM
      1 C           0.5702    1.5046   25.4323 C.3     1  UNL1        0.0732
      2 C           1.2655    1.9647   26.6792 C.3     1  UNL1        0.0197
      3 C           0.5945    2.9468   27.5932 C.3     1  UNL1        0.0031
      4 C          -0.7718    3.4687   27.2602 C.3     1  UNL1        0.0161
      5 C          -1.4671    3.0086   26.0133 C.3     1  UNL1        0.0592
      6 C          -0.7961    2.0265   25.0993 C.3     1  UNL1        0.0355
      7 N          -2.8333    3.5305   25.6803 N.3     1  UNL1       -0.2727
      8 C          -3.8689    3.9829   26.6667 C.3     1  UNL1        0.0736
      9 C          -5.0796    4.4236   25.8984 C.3     1  UNL1        0.0364
     10 C          -4.7921    4.2435   24.4372 C.3     1  UNL1        0.0966
     11 C          -3.4039    3.6915   24.3024 C.3     1  UNL1        0.0900
     12 N          -5.7285    4.5599   23.3089 N.3     1  UNL1       -0.1579
     13 C          -7.2072    4.3835   23.4895 C.3     1  UNL1        0.1145
     14 S          -5.1864    5.0526   22.0000 S.O2    1  UNL1        0.0457
     15 C          -4.6442    5.5454   20.6911 C.3     1  UNL1        0.1960
     16 O          -5.4452    3.7085   21.3867 O.2     1  UNL1       -0.1572
     17 O          -4.9275    6.3968   22.6133 O.2     1  UNL1       -0.1572
     18 C           1.9067    1.0009   23.2620 C.2     1  UNL1        0.2631
     19 O           1.9011    2.4613   22.9198 O.2     1  UNL1       -0.2685
     20 N           1.2412    0.5225   24.5183 N.am    1  UNL1       -0.3012
     21 H           1.2448   -0.4360   24.7430 H       1  UNL1        0.1497
     22 C           3.5362   -0.6005   17.7972 C.3     1  UNL1        0.0286
     23 C           3.8638   -1.4715   18.9736 C.2     1  UNL1       -0.0178
     24 C           4.6088   -2.7575   18.7703 C.2     1  UNL1       -0.0040
     25 C           4.9365   -3.6285   19.9466 C.2     1  UNL1        0.0288
     26 C           4.5192   -3.2136   21.3264 C.2     1  UNL1        0.1383
     27 F           4.8469   -4.0847   22.5028 F       1  UNL1       -0.2044
     28 C           3.7742   -1.9277   21.5297 C.2     1  UNL1        0.0327
     29 C           3.2373   -1.2630   22.7626 C.2     1  UNL1        0.0235
     30 C           2.5777    0.0189   22.3480 C.2     1  UNL1        0.1296
     31 N           2.7071    0.1465   20.8591 N.2     1  UNL1       -0.2591
     32 C           3.4465   -1.0566   20.3533 C.3     1  UNL1        0.1461
@<TRIPOS>BOND
     1    22    23    1
     2    23    24    2
     3    24    25    1
     4    25    26    2
     5    26    27    1
     6    26    28    1
     7    28    29    2
     8    29    30    1
     9    30    18    1
    10    18    19    2
    11    18    20   am
    12     1    20    1
    13     1     2    1
    14     2     3    1
    15     3     4    1
    16     4     5    1
    17     5     7    1
    18     7     8    1
    19     8     9    1
    20     9    10    1
    21    10    12    1
    22    12    13    1
    23    12    14    1
    24    14    15    1
    25    14    16    2
    26    14    17    2
    27    10    11    1
    28     5     6    1
    29    30    31    2
    30    31    32    1
    31    32    23    1
    32    32    28    1
    33     6     1    1
    34    11     7    1
    35    20    21    1
