@<TRIPOS>MOLECULE
*****
 27 30 0 0 0
SMALL
GASTEIGER

@<TRIPOS>ATOM
      1 C          -1.9873    3.2409   26.3727 C.ar    1  UNL1        0.2035
      2 N          -3.2657    3.9080   26.7859 N.ar    1  UNL1       -0.2133
      3 C          -4.1855    4.4758   25.7460 C.ar    1  UNL1        0.1065
      4 C          -3.8270    4.3765   24.2928 C.ar    1  UNL1        0.0815
      5 C          -2.5487    3.7094   23.8796 C.ar    1  UNL1        0.2646
      6 O          -2.1902    3.6102   22.4265 O.2     1  UNL1       -0.2668
      7 N          -1.6288    3.1416   24.9196 N.ar    1  UNL1       -0.2667
      8 C          -0.3504    2.4745   24.5063 C.3     1  UNL1        0.1363
      9 C           0.1532    4.9603   27.5818 C.3     1  UNL1        0.0233
     10 C           0.0028    3.5327   28.0172 C.3     1  UNL1        0.0953
     11 C           0.9226    2.9649   29.0571 C.3     1  UNL1        0.1107
     12 N           0.7721    1.5374   29.4925 N.pl3   1  UNL1       -0.3017
     13 C          -0.2981    0.6777   28.8879 C.3     1  UNL1        0.1124
     14 C          -1.2179    1.2455   27.8480 C.3     1  UNL1        0.1149
     15 N          -1.0674    2.6731   27.4127 N.pl3   1  UNL1       -0.2777
     16 C           1.6920    0.9695   30.5325 C.ar    1  UNL1        0.0868
     17 C           2.3989   -0.3292   30.2799 C.ar    1  UNL1        0.1167
     18 N           3.3187   -0.8970   31.3198 N.ar    1  UNL1       -0.2211
     19 C           3.5317   -0.1661   32.6123 C.ar    1  UNL1        0.1990
     20 N           2.8249    1.1325   32.8649 N.ar    1  UNL1       -0.2211
     21 C           1.9050    1.7004   31.8249 C.ar    1  UNL1        0.1167
     22 C          -5.4639    5.1429   26.1592 C.ar    1  UNL1        0.1024
     23 C          -6.5273    5.4235   25.1392 C.ar    1  UNL1        0.0414
     24 C          -7.8056    6.0906   25.5524 C.ar    1  UNL1        0.1023
     25 N          -8.0207    6.4771   26.9857 N.ar    1  UNL1       -0.2224
     26 C          -6.9573    6.1965   28.0058 C.ar    1  UNL1        0.1989
     27 N          -5.6789    5.5294   27.5926 N.ar    1  UNL1       -0.2224
@<TRIPOS>BOND
     1    10     9    1
     2    10    11    1
     3    11    12    1
     4    12    16    1
     5    16    17   ar
     6    17    18   ar
     7    18    19   ar
     8    19    20   ar
     9    20    21   ar
    10    12    13    1
    11    13    14    1
    12    14    15    1
    13    15     1    1
    14     1     2   ar
    15     2     3   ar
    16     3    22    1
    17    22    23   ar
    18    23    24   ar
    19    24    25   ar
    20    25    26   ar
    21    26    27   ar
    22     3     4   ar
    23     4     5   ar
    24     5     6    2
    25     5     7   ar
    26     7     8    1
    27    15    10    1
    28     7     1   ar
    29    21    16   ar
    30    27    22   ar
@<TRIPOS>MOLECULE
*****
 27 30 0 0 0
SMALL
GASTEIGER

@<TRIPOS>ATOM
      1 C           6.0692   -2.3160   20.9619 C.ar    1  UNL1        0.2035
      2 N           6.1341   -3.2041   22.1690 N.ar    1  UNL1       -0.2133
      3 C           7.3224   -4.0943   22.3821 C.ar    1  UNL1        0.1065
      4 C           8.4458   -4.0965   21.3880 C.ar    1  UNL1        0.0815
      5 C           8.3809   -3.2084   20.1809 C.ar    1  UNL1        0.2646
      6 O           9.5042   -3.2106   19.1869 O.2     1  UNL1       -0.2668
      7 N           7.1925   -2.3181   19.9679 N.ar    1  UNL1       -0.2667
      8 C           7.1276   -1.4300   18.7608 C.3     1  UNL1        0.1363
      9 C           3.6924   -3.3263   19.4354 C.3     1  UNL1        0.0233
     10 C           3.6925   -1.9309   19.9856 C.3     1  UNL1        0.0953
     11 C           2.5043   -1.0406   19.7726 C.3     1  UNL1        0.1107
     12 N           2.5044    0.3549   20.3228 N.pl3   1  UNL1       -0.3017
     13 C           3.6927    0.8600   21.0860 C.3     1  UNL1        0.1124
     14 C           4.8810   -0.0302   21.2990 C.3     1  UNL1        0.1149
     15 N           4.8809   -1.4257   20.7488 N.pl3   1  UNL1       -0.2777
     16 C           1.3160    1.2452   20.1097 C.ar    1  UNL1        0.0868
     17 C           1.1669    2.0019   18.8232 C.ar    1  UNL1        0.1167
     18 N          -0.0213    2.8921   18.6101 N.ar    1  UNL1       -0.2211
     19 C          -1.0606    3.0257   19.6835 C.ar    1  UNL1        0.1990
     20 N          -0.9114    2.2690   20.9701 N.ar    1  UNL1       -0.2211
     21 C           0.2769    1.3787   21.1831 C.ar    1  UNL1        0.1167
     22 C           7.3873   -4.9824   23.5891 C.ar    1  UNL1        0.1024
     23 C           6.8552   -4.4988   24.9055 C.ar    1  UNL1        0.0414
     24 C           6.9201   -5.3869   26.1126 C.ar    1  UNL1        0.1023
     25 N           7.5172   -6.7586   26.0033 N.ar    1  UNL1       -0.2224
     26 C           8.0494   -7.2422   24.6869 C.ar    1  UNL1        0.1989
     27 N           7.9845   -6.3541   23.4798 N.ar    1  UNL1       -0.2224
@<TRIPOS>BOND
     1    10     9    1
     2    10    11    1
     3    11    12    1
     4    12    16    1
     5    16    17   ar
     6    17    18   ar
     7    18    19   ar
     8    19    20   ar
     9    20    21   ar
    10    12    13    1
    11    13    14    1
    12    14    15    1
    13    15     1    1
    14     1     2   ar
    15     2     3   ar
    16     3    22    1
    17    22    23   ar
    18    23    24   ar
    19    24    25   ar
    20    25    26   ar
    21    26    27   ar
    22     3     4   ar
    23     4     5   ar
    24     5     6    2
    25     5     7   ar
    26     7     8    1
    27    15    10    1
    28     7     1   ar
    29    21    16   ar
    30    27    22   ar
@<TRIPOS>MOLECULE
*****
 27 30 0 0 0
SMALL
GASTEIGER

@<TRIPOS>ATOM
      1 C           4.3029   -1.2213   20.2989 C.ar    1  UNL1        0.2035
      2 N           4.8653   -2.0367   21.4253 N.ar    1  UNL1       -0.2133
      3 C           6.0305   -2.9492   21.1817 C.ar    1  UNL1        0.1065
      4 C           6.6334   -3.0464   19.8116 C.ar    1  UNL1        0.0815
      5 C           6.0710   -2.2309   18.6852 C.ar    1  UNL1        0.2646
      6 O           6.6739   -2.3281   17.3151 O.2     1  UNL1       -0.2668
      7 N           4.9057   -1.3184   18.9289 N.ar    1  UNL1       -0.2667
      8 C           4.3433   -0.5029   17.8025 C.3     1  UNL1        0.1363
      9 C           4.7720    1.6105   21.1713 C.3     1  UNL1        0.0233
     10 C           3.3721    1.1072   20.9788 C.3     1  UNL1        0.0953
     11 C           2.2069    2.0197   21.2225 C.3     1  UNL1        0.1107
     12 N           0.8070    1.5163   21.0301 N.pl3   1  UNL1       -0.3017
     13 C           0.5724    0.1004   20.5939 C.3     1  UNL1        0.1124
     14 C           1.7377   -0.8121   20.3502 C.3     1  UNL1        0.1149
     15 N           3.1376   -0.3087   20.5427 N.pl3   1  UNL1       -0.2777
     16 C          -0.3583    2.4289   21.2738 C.ar    1  UNL1        0.0868
     17 C          -1.2603    2.8130   20.1385 C.ar    1  UNL1        0.1167
     18 N          -2.4256    3.7255   20.3822 N.ar    1  UNL1       -0.2211
     19 C          -2.6889    4.2540   21.7612 C.ar    1  UNL1        0.1990
     20 N          -1.7869    3.8698   22.8964 N.ar    1  UNL1       -0.2211
     21 C          -0.6216    2.9572   22.6527 C.ar    1  UNL1        0.1167
     22 C           6.5930   -3.7646   22.3081 C.ar    1  UNL1        0.1024
     23 C           6.0935   -3.5563   23.7070 C.ar    1  UNL1        0.0414
     24 C           6.6559   -4.3718   24.8334 C.ar    1  UNL1        0.1023
     25 N           7.7178   -5.3955   24.5609 N.ar    1  UNL1       -0.2224
     26 C           8.2173   -5.6038   23.1619 C.ar    1  UNL1        0.1989
     27 N           7.6549   -4.7884   22.0355 N.ar    1  UNL1       -0.2224
@<TRIPOS>BOND
     1    10     9    1
     2    10    11    1
     3    11    12    1
     4    12    16    1
     5    16    17   ar
     6    17    18   ar
     7    18    19   ar
     8    19    20   ar
     9    20    21   ar
    10    12    13    1
    11    13    14    1
    12    14    15    1
    13    15     1    1
    14     1     2   ar
    15     2     3   ar
    16     3    22    1
    17    22    23   ar
    18    23    24   ar
    19    24    25   ar
    20    25    26   ar
    21    26    27   ar
    22     3     4   ar
    23     4     5   ar
    24     5     6    2
    25     5     7   ar
    26     7     8    1
    27    15    10    1
    28     7     1   ar
    29    21    16   ar
    30    27    22   ar
@<TRIPOS>MOLECULE
*****
 27 30 0 0 0
SMALL
GASTEIGER

@<TRIPOS>ATOM
      1 C          -0.5343    2.3324   21.2053 C.ar    1  UNL1        0.2035
      2 N          -1.7169    2.6139   20.3265 N.ar    1  UNL1       -0.2133
      3 C          -2.8749    3.4053   20.8581 C.ar    1  UNL1        0.1065
      4 C          -2.8504    3.9152   22.2686 C.ar    1  UNL1        0.0815
      5 C          -1.6678    3.6337   23.1474 C.ar    1  UNL1        0.2646
      6 O          -1.6433    4.1436   24.5579 O.2     1  UNL1       -0.2668
      7 N          -0.5098    2.8423   22.6158 N.ar    1  UNL1       -0.2667
      8 C           0.6728    2.5608   23.4946 C.3     1  UNL1        0.1363
      9 C           1.8320    3.7467   20.0219 C.3     1  UNL1        0.0233
     10 C           1.8069    2.2481   20.0820 C.3     1  UNL1        0.0953
     11 C           2.9648    1.4566   19.5503 C.3     1  UNL1        0.1107
     12 N           2.9397   -0.0419   19.6104 N.pl3   1  UNL1       -0.3017
     13 C           1.7566   -0.7491   20.2021 C.3     1  UNL1        0.1124
     14 C           0.5986    0.0424   20.7337 C.3     1  UNL1        0.1149
     15 N           0.6237    1.5409   20.6737 N.pl3   1  UNL1       -0.2777
     16 C           4.0977   -0.8334   19.0787 C.ar    1  UNL1        0.0868
     17 C           4.9382   -0.2783   17.9672 C.ar    1  UNL1        0.1167
     18 N           6.0962   -1.0697   17.4355 N.ar    1  UNL1       -0.2211
     19 C           6.4138   -2.4162   18.0154 C.ar    1  UNL1        0.1990
     20 N           5.5733   -2.9713   19.1269 N.ar    1  UNL1       -0.2211
     21 C           4.4152   -2.1798   19.6586 C.ar    1  UNL1        0.1167
     22 C          -4.0574    3.6868   19.9793 C.ar    1  UNL1        0.1024
     23 C          -5.4318    3.7678   20.5745 C.ar    1  UNL1        0.0414
     24 C          -6.6144    4.0493   19.6957 C.ar    1  UNL1        0.1023
     25 N          -6.4225    4.2498   18.2216 N.ar    1  UNL1       -0.2224
     26 C          -5.0480    4.1688   17.6263 C.ar    1  UNL1        0.1989
     27 N          -3.8655    3.8873   18.5051 N.ar    1  UNL1       -0.2224
@<TRIPOS>BOND
     1    10     9    1
     2    10    11    1
     3    11    12    1
     4    12    16    1
     5    16    17   ar
     6    17    18   ar
     7    18    19   ar
     8    19    20   ar
     9    20    21   ar
    10    12    13    1
    11    13    14    1
    12    14    15    1
    13    15     1    1
    14     1     2   ar
    15     2     3   ar
    16     3    22    1
    17    22    23   ar
    18    23    24   ar
    19    24    25   ar
    20    25    26   ar
    21    26    27   ar
    22     3     4   ar
    23     4     5   ar
    24     5     6    2
    25     5     7   ar
    26     7     8    1
    27    15    10    1
    28     7     1   ar
    29    21    16   ar
    30    27    22   ar
@<TRIPOS>MOLECULE
*****
 27 30 0 0 0
SMALL
GASTEIGER

@<TRIPOS>ATOM
      1 C          -1.9418    3.3587   20.3067 C.ar    1  UNL1        0.2035
      2 N          -0.9994    2.3302   20.8582 N.ar    1  UNL1       -0.2133
      3 C           0.1627    1.8597   20.0348 C.ar    1  UNL1        0.1065
      4 C           0.3825    2.4177   18.6598 C.ar    1  UNL1        0.0815
      5 C          -0.5599    3.4461   18.1084 C.ar    1  UNL1        0.2646
      6 O          -0.3402    4.0041   16.7335 O.2     1  UNL1       -0.2668
      7 N          -1.7221    3.9167   18.9318 N.ar    1  UNL1       -0.2667
      8 C          -2.6645    4.9451   18.3803 C.3     1  UNL1        0.1363
      9 C          -1.6241    5.7079   22.1454 C.3     1  UNL1        0.0233
     10 C          -2.9451    5.0038   22.0495 C.3     1  UNL1        0.0953
     11 C          -4.1072    5.4742   22.8729 C.3     1  UNL1        0.1107
     12 N          -5.4282    4.7702   22.7770 N.pl3   1  UNL1       -0.3017
     13 C          -5.5871    3.5956   21.8577 C.3     1  UNL1        0.1124
     14 C          -4.4250    3.1251   21.0343 C.3     1  UNL1        0.1149
     15 N          -3.1040    3.8292   21.1302 N.pl3   1  UNL1       -0.2777
     16 C          -6.5904    5.2407   23.6005 C.ar    1  UNL1        0.0868
     17 C          -7.9246    4.5681   23.4680 C.ar    1  UNL1        0.1167
     18 N          -9.0868    5.0386   24.2914 N.ar    1  UNL1       -0.2211
     19 C          -8.9147    6.1817   25.2474 C.ar    1  UNL1        0.1990
     20 N          -7.5805    6.8542   25.3799 N.ar    1  UNL1       -0.2211
     21 C          -6.4183    6.3837   24.5565 C.ar    1  UNL1        0.1167
     22 C           1.1051    0.8313   20.5863 C.ar    1  UNL1        0.1024
     23 C           1.5222   -0.3345   19.7396 C.ar    1  UNL1        0.0414
     24 C           2.4646   -1.3629   20.2910 C.ar    1  UNL1        0.1023
     25 N           2.9899   -1.2257   21.6893 N.ar    1  UNL1       -0.2224
     26 C           2.5728   -0.0599   22.5361 C.ar    1  UNL1        0.1989
     27 N           1.6304    0.9686   21.9847 N.ar    1  UNL1       -0.2224
@<TRIPOS>BOND
     1    10     9    1
     2    10    11    1
     3    11    12    1
     4    12    16    1
     5    16    17   ar
     6    17    18   ar
     7    18    19   ar
     8    19    20   ar
     9    20    21   ar
    10    12    13    1
    11    13    14    1
    12    14    15    1
    13    15     1    1
    14     1     2   ar
    15     2     3   ar
    16     3    22    1
    17    22    23   ar
    18    23    24   ar
    19    24    25   ar
    20    25    26   ar
    21    26    27   ar
    22     3     4   ar
    23     4     5   ar
    24     5     6    2
    25     5     7   ar
    26     7     8    1
    27    15    10    1
    28     7     1   ar
    29    21    16   ar
    30    27    22   ar
@<TRIPOS>MOLECULE
*****
 27 30 0 0 0
SMALL
GASTEIGER

@<TRIPOS>ATOM
      1 C          -0.8172    2.7974   20.6422 C.ar    1  UNL1        0.2035
      2 N          -1.3694    2.8285   22.0365 N.ar    1  UNL1       -0.2133
      3 C          -2.5552    3.6903   22.3546 C.ar    1  UNL1        0.1065
      4 C          -3.1889    4.5210   21.2782 C.ar    1  UNL1        0.0815
      5 C          -2.6367    4.4899   19.8839 C.ar    1  UNL1        0.2646
      6 O          -3.2704    5.3206   18.8076 O.2     1  UNL1       -0.2668
      7 N          -1.4509    3.6281   19.5659 N.ar    1  UNL1       -0.2667
      8 C          -0.8987    3.5971   18.1716 C.3     1  UNL1        0.1363
      9 C           1.9255    4.0065   20.5177 C.3     1  UNL1        0.0233
     10 C           1.7400    2.5402   20.2619 C.3     1  UNL1        0.0953
     11 C           2.9257    1.6783   19.9439 C.3     1  UNL1        0.1107
     12 N           2.7402    0.2120   19.6881 N.pl3   1  UNL1       -0.3017
     13 C           1.3688   -0.3925   19.7504 C.3     1  UNL1        0.1124
     14 C           0.1831    0.4693   20.0684 C.3     1  UNL1        0.1149
     15 N           0.3686    1.9356   20.3241 N.pl3   1  UNL1       -0.2777
     16 C           3.9261   -0.6498   19.3701 C.ar    1  UNL1        0.0868
     17 C           4.2077   -1.0438   17.9504 C.ar    1  UNL1        0.1167
     18 N           5.3935   -1.9055   17.6324 N.ar    1  UNL1       -0.2211
     19 C           6.2977   -2.3734   18.7340 C.ar    1  UNL1        0.1990
     20 N           6.0161   -1.9794   20.1537 N.ar    1  UNL1       -0.2211
     21 C           4.8302   -1.1176   20.4717 C.ar    1  UNL1        0.1167
     22 C          -3.1074    3.7213   23.7489 C.ar    1  UNL1        0.1024
     23 C          -2.1852    3.5847   24.9240 C.ar    1  UNL1        0.0414
     24 C          -2.7373    3.6158   26.3183 C.ar    1  UNL1        0.1023
     25 N          -4.2117    3.7835   26.5375 N.ar    1  UNL1       -0.2224
     26 C          -5.1340    3.9201   25.3624 C.ar    1  UNL1        0.1989
     27 N          -4.5818    3.8890   23.9681 N.ar    1  UNL1       -0.2224
@<TRIPOS>BOND
     1    10     9    1
     2    10    11    1
     3    11    12    1
     4    12    16    1
     5    16    17   ar
     6    17    18   ar
     7    18    19   ar
     8    19    20   ar
     9    20    21   ar
    10    12    13    1
    11    13    14    1
    12    14    15    1
    13    15     1    1
    14     1     2   ar
    15     2     3   ar
    16     3    22    1
    17    22    23   ar
    18    23    24   ar
    19    24    25   ar
    20    25    26   ar
    21    26    27   ar
    22     3     4   ar
    23     4     5   ar
    24     5     6    2
    25     5     7   ar
    26     7     8    1
    27    15    10    1
    28     7     1   ar
    29    21    16   ar
    30    27    22   ar
@<TRIPOS>MOLECULE
*****
 27 30 0 0 0
SMALL
GASTEIGER

@<TRIPOS>ATOM
      1 C           4.0941   -1.1360   20.1117 C.ar    1  UNL1        0.2035
      2 N           2.9558   -0.2029   20.4009 N.ar    1  UNL1       -0.2133
      3 C           2.2518    0.4932   19.2741 C.ar    1  UNL1        0.1065
      4 C           2.6860    0.2562   17.8580 C.ar    1  UNL1        0.0815
      5 C           3.8243   -0.6769   17.5687 C.ar    1  UNL1        0.2646
      6 O           4.2585   -0.9139   16.1527 O.2     1  UNL1       -0.2668
      7 N           4.5283   -1.3730   18.6956 N.ar    1  UNL1       -0.2667
      8 C           5.6666   -2.3061   18.4064 C.3     1  UNL1        0.1363
      9 C           6.4242    0.1813   21.4665 C.3     1  UNL1        0.0233
     10 C           5.9632   -1.1735   21.9159 C.3     1  UNL1        0.0953
     11 C           6.6671   -1.8696   23.0427 C.3     1  UNL1        0.1107
     12 N           6.2061   -3.2244   23.4922 N.pl3   1  UNL1       -0.3017
     13 C           5.0411   -3.8831   22.8148 C.3     1  UNL1        0.1124
     14 C           4.3371   -3.1869   21.6880 C.3     1  UNL1        0.1149
     15 N           4.7982   -1.8322   21.2386 N.pl3   1  UNL1       -0.2777
     16 C           6.9102   -3.9205   24.6191 C.ar    1  UNL1        0.0868
     17 C           7.5281   -5.2694   24.3982 C.ar    1  UNL1        0.1167
     18 N           8.2321   -5.9655   25.5250 N.ar    1  UNL1       -0.2211
     19 C           8.3182   -5.3128   26.8728 C.ar    1  UNL1        0.1990
     20 N           7.7003   -3.9639   27.0938 N.ar    1  UNL1       -0.2211
     21 C           6.9963   -3.2678   25.9669 C.ar    1  UNL1        0.1167
     22 C           1.1135    1.4263   19.5633 C.ar    1  UNL1        0.1024
     23 C           0.5402    2.2728   18.4658 C.ar    1  UNL1        0.0414
     24 C          -0.5980    3.2059   18.7550 C.ar    1  UNL1        0.1023
     25 N          -1.1630    3.2925   20.1418 N.ar    1  UNL1       -0.2224
     26 C          -0.5897    2.4459   21.2395 C.ar    1  UNL1        0.1989
     27 N           0.5486    1.5128   20.9502 N.ar    1  UNL1       -0.2224
@<TRIPOS>BOND
     1    10     9    1
     2    10    11    1
     3    11    12    1
     4    12    16    1
     5    16    17   ar
     6    17    18   ar
     7    18    19   ar
     8    19    20   ar
     9    20    21   ar
    10    12    13    1
    11    13    14    1
    12    14    15    1
    13    15     1    1
    14     1     2   ar
    15     2     3   ar
    16     3    22    1
    17    22    23   ar
    18    23    24   ar
    19    24    25   ar
    20    25    26   ar
    21    26    27   ar
    22     3     4   ar
    23     4     5   ar
    24     5     6    2
    25     5     7   ar
    26     7     8    1
    27    15    10    1
    28     7     1   ar
    29    21    16   ar
    30    27    22   ar
@<TRIPOS>MOLECULE
*****
 27 30 0 0 0
SMALL
GASTEIGER

@<TRIPOS>ATOM
      1 C           1.4030    1.8733   29.6081 C.ar    1  UNL1        0.2035
      2 N           0.9451    2.9656   30.5285 N.ar    1  UNL1       -0.2133
      3 C           1.2496    2.8874   31.9952 C.ar    1  UNL1        0.1065
      4 C           2.0120    1.7168   32.5415 C.ar    1  UNL1        0.0815
      5 C           2.4700    0.6245   31.6211 C.ar    1  UNL1        0.2646
      6 O           3.2324   -0.5461   32.1674 O.2     1  UNL1       -0.2668
      7 N           2.1654    0.7027   30.1544 N.ar    1  UNL1       -0.2667
      8 C           2.6233   -0.3896   29.2340 C.3     1  UNL1        0.1363
      9 C          -1.0930    0.6097   28.5248 C.3     1  UNL1        0.0233
     10 C          -0.1495    1.3197   27.5998 C.3     1  UNL1        0.0953
     11 C          -0.4540    1.3980   26.1331 C.3     1  UNL1        0.1107
     12 N           0.4895    2.1081   25.2081 N.pl3   1  UNL1       -0.3017
     13 C           1.7374    2.7399   25.7497 C.3     1  UNL1        0.1124
     14 C           2.0419    2.6616   27.2164 C.3     1  UNL1        0.1149
     15 N           1.0985    1.9515   28.1414 N.pl3   1  UNL1       -0.2777
     16 C           0.1849    2.1863   23.7414 C.ar    1  UNL1        0.0868
     17 C           0.8200    1.2153   22.7907 C.ar    1  UNL1        0.1167
     18 N           0.5155    1.2935   21.3241 N.ar    1  UNL1       -0.2211
     19 C          -0.4241    2.3428   20.8080 C.ar    1  UNL1        0.1990
     20 N          -1.0592    3.3138   21.7587 N.ar    1  UNL1       -0.2211
     21 C          -0.7546    3.2356   23.2254 C.ar    1  UNL1        0.1167
     22 C           0.7917    3.9798   32.9155 C.ar    1  UNL1        0.1024
     23 C          -0.4177    4.7960   32.5674 C.ar    1  UNL1        0.0414
     24 C          -0.8756    5.8883   33.4878 C.ar    1  UNL1        0.1023
     25 N          -0.1242    6.1644   34.7563 N.ar    1  UNL1       -0.2224
     26 C           1.0852    5.3482   35.1044 C.ar    1  UNL1        0.1989
     27 N           1.5432    4.2559   34.1841 N.ar    1  UNL1       -0.2224
@<TRIPOS>BOND
     1    10     9    1
     2    10    11    1
     3    11    12    1
     4    12    16    1
     5    16    17   ar
     6    17    18   ar
     7    18    19   ar
     8    19    20   ar
     9    20    21   ar
    10    12    13    1
    11    13    14    1
    12    14    15    1
    13    15     1    1
    14     1     2   ar
    15     2     3   ar
    16     3    22    1
    17    22    23   ar
    18    23    24   ar
    19    24    25   ar
    20    25    26   ar
    21    26    27   ar
    22     3     4   ar
    23     4     5   ar
    24     5     6    2
    25     5     7   ar
    26     7     8    1
    27    15    10    1
    28     7     1   ar
    29    21    16   ar
    30    27    22   ar
@<TRIPOS>MOLECULE
*****
 27 30 0 0 0
SMALL
GASTEIGER

@<TRIPOS>ATOM
      1 C           6.0878   -2.7682   25.3372 C.ar    1  UNL1        0.2035
      2 N           6.6717   -4.1150   25.6455 N.ar    1  UNL1       -0.2133
      3 C           7.0021   -4.4829   27.0617 C.ar    1  UNL1        0.1065
      4 C           6.7485   -3.5040   28.1696 C.ar    1  UNL1        0.0815
      5 C           6.1646   -2.1571   27.8613 C.ar    1  UNL1        0.2646
      6 O           5.9110   -1.1782   28.9691 O.2     1  UNL1       -0.2668
      7 N           5.8342   -1.7892   26.4451 N.ar    1  UNL1       -0.2667
      8 C           5.2503   -0.4424   26.1368 C.3     1  UNL1        0.1363
      9 C           8.1522   -1.4414   23.6115 C.3     1  UNL1        0.0233
     10 C           6.7896   -1.7369   23.0582 C.3     1  UNL1        0.0953
     11 C           6.4592   -1.3691   21.6421 C.3     1  UNL1        0.1107
     12 N           5.0967   -1.6646   21.0888 N.pl3   1  UNL1       -0.3017
     13 C           4.0645   -2.3279   21.9516 C.3     1  UNL1        0.1124
     14 C           4.3949   -2.6958   23.3677 C.3     1  UNL1        0.1149
     15 N           5.7574   -2.4003   23.9210 N.pl3   1  UNL1       -0.2777
     16 C           4.7663   -1.2967   19.6725 C.ar    1  UNL1        0.0868
     17 C           3.4836   -0.5836   19.3626 C.ar    1  UNL1        0.1167
     18 N           3.1532   -0.2157   17.9465 N.ar    1  UNL1       -0.2211
     19 C           4.1056   -0.5609   16.8402 C.ar    1  UNL1        0.1990
     20 N           5.3883   -1.2740   17.1501 N.ar    1  UNL1       -0.2211
     21 C           5.7187   -1.6419   18.5663 C.ar    1  UNL1        0.1167
     22 C           7.5860   -5.8298   27.3700 C.ar    1  UNL1        0.1024
     23 C           7.3159   -6.9906   26.4592 C.ar    1  UNL1        0.0414
     24 C           7.8998   -8.3375   26.7675 C.ar    1  UNL1        0.1023
     25 N           8.7538   -8.5235   27.9865 N.ar    1  UNL1       -0.2224
     26 C           9.0239   -7.3626   28.8974 C.ar    1  UNL1        0.1989
     27 N           8.4400   -6.0158   28.5891 N.ar    1  UNL1       -0.2224
@<TRIPOS>BOND
     1    10     9    1
     2    10    11    1
     3    11    12    1
     4    12    16    1
     5    16    17   ar
     6    17    18   ar
     7    18    19   ar
     8    19    20   ar
     9    20    21   ar
    10    12    13    1
    11    13    14    1
    12    14    15    1
    13    15     1    1
    14     1     2   ar
    15     2     3   ar
    16     3    22    1
    17    22    23   ar
    18    23    24   ar
    19    24    25   ar
    20    25    26   ar
    21    26    27   ar
    22     3     4   ar
    23     4     5   ar
    24     5     6    2
    25     5     7   ar
    26     7     8    1
    27    15    10    1
    28     7     1   ar
    29    21    16   ar
    30    27    22   ar
