@<TRIPOS>MOLECULE
*****
 27 30 0 0 0
SMALL
GASTEIGER

@<TRIPOS>ATOM
      1 N          -7.8676  -19.1152   22.1765 N.ar    1  UNL1       -0.2463
      2 N          -6.6183  -19.6959   21.5832 N.ar    1  UNL1       -0.1641
      3 C          -5.4666  -18.8203   21.9795 C.ar    1  UNL1        0.1581
      4 C          -6.0042  -17.6985   22.8177 C.ar    1  UNL1        0.0413
      5 C          -5.3342  -16.5346   23.4859 C.ar    1  UNL1        0.0032
      6 C          -6.1481  -15.5530   24.2758 C.ar    1  UNL1        0.0001
      7 C          -7.6320  -15.7353   24.3975 C.ar    1  UNL1        0.0015
      8 C          -8.3020  -16.8991   23.7294 C.ar    1  UNL1        0.0188
      9 C          -7.4881  -17.8808   22.9395 C.ar    1  UNL1        0.0799
     10 C          -4.0297  -19.0297   21.6036 C.ar    1  UNL1        0.2792
     11 N          -3.2018  -18.1213   20.7438 N.ar    1  UNL1       -0.1884
     12 C          -1.8288  -18.7145   20.6302 C.ar    1  UNL1        0.1965
     13 N          -1.8081  -19.9896   21.4200 N.ar    1  UNL1       -0.0587
     14 O          -3.1683  -20.1844   22.0216 O.2     1  UNL1       -0.3311
     15 C          -0.6785  -18.1345   19.8620 C.3     1  UNL1        0.1355
     16 N          -0.8509  -17.7651   18.4183 N.3     1  UNL1       -0.3147
     17 H          -1.0151  -18.6086   17.8689 H       1  UNL1        0.1192
     18 H          -0.0072  -17.3000   18.0833 H       1  UNL1        0.1192
     19 C          -9.2532  -19.6713   22.0321 C.3     1  UNL1        0.1538
     20 C         -13.7817  -17.9024   23.8664 C.3     1  UNL1        0.0310
     21 C         -12.6904  -17.8585   22.8382 C.ar    1  UNL1       -0.0224
     22 C         -12.7720  -16.8861   21.6990 C.ar    1  UNL1       -0.0085
     23 C         -11.6808  -16.8421   20.6708 C.ar    1  UNL1       -0.0224
     24 C         -11.7624  -15.8698   19.5316 C.3     1  UNL1        0.0310
     25 C         -10.5078  -17.7705   20.7818 C.ar    1  UNL1       -0.0066
     26 C         -10.4262  -18.7428   21.9211 C.ar    1  UNL1        0.0015
     27 C         -11.5175  -18.7868   22.9492 C.ar    1  UNL1       -0.0066
@<TRIPOS>BOND
     1    20    21    1
     2    21    22   ar
     3    22    23   ar
     4    23    24    1
     5    23    25   ar
     6    25    26   ar
     7    26    19    1
     8    19     1    1
     9     1     2   ar
    10     2     3   ar
    11     3    10    1
    12    10    11   ar
    13    11    12   ar
    14    12    15    1
    15    15    16    1
    16    12    13   ar
    17    13    14   ar
    18     3     4   ar
    19     4     5   ar
    20     5     6   ar
    21     6     7   ar
    22     7     8   ar
    23     8     9   ar
    24    26    27   ar
    25    27    21   ar
    26     9     1   ar
    27    14    10   ar
    28     9     4   ar
    29    16    17    1
    30    16    18    1
@<TRIPOS>MOLECULE
*****
 27 30 0 0 0
SMALL
GASTEIGER

@<TRIPOS>ATOM
      1 N          -7.6674  -17.8905   22.2911 N.ar    1  UNL1       -0.2463
      2 N          -6.1789  -17.8511   22.4725 N.ar    1  UNL1       -0.1641
      3 C          -5.5637  -18.7659   21.4553 C.ar    1  UNL1        0.1581
      4 C          -6.6719  -19.3706   20.6453 C.ar    1  UNL1        0.0413
      5 C          -6.6651  -20.3440   19.5041 C.ar    1  UNL1        0.0032
      6 C          -7.9585  -20.7763   18.8794 C.ar    1  UNL1        0.0001
      7 C          -9.2587  -20.2353   19.3959 C.ar    1  UNL1        0.0015
      8 C          -9.2654  -19.2619   20.5371 C.ar    1  UNL1        0.0188
      9 C          -7.9721  -18.8295   21.1618 C.ar    1  UNL1        0.0799
     10 C          -4.0976  -19.0298   21.2791 C.ar    1  UNL1        0.2792
     11 N          -3.1249  -18.1506   20.5507 N.ar    1  UNL1       -0.1884
     12 C          -1.7729  -18.7965   20.6218 C.ar    1  UNL1        0.1965
     13 N          -1.9102  -20.0751   21.3942 N.ar    1  UNL1       -0.0587
     14 O          -3.3470  -20.2192   21.8004 O.2     1  UNL1       -0.3311
     15 C          -0.5062  -18.2586   20.0253 C.3     1  UNL1        0.1355
     16 N          -0.3282  -16.7793   19.8514 N.3     1  UNL1       -0.3147
     17 H          -0.9998  -16.4343   19.1655 H       1  UNL1        0.1192
     18 H           0.6192  -16.5867   19.5262 H       1  UNL1        0.1192
     19 C          -8.6744  -17.1251   23.0974 C.3     1  UNL1        0.1538
     20 C         -12.1191  -15.6635   19.4920 C.3     1  UNL1        0.0310
     21 C         -11.8160  -16.2917   20.8200 C.ar    1  UNL1       -0.0224
     22 C         -12.9320  -16.8172   21.6734 C.ar    1  UNL1       -0.0085
     23 C         -12.6289  -17.4453   23.0013 C.ar    1  UNL1       -0.0224
     24 C         -13.7450  -17.9709   23.8547 C.3     1  UNL1        0.0310
     25 C         -11.2097  -17.5480   23.4760 C.ar    1  UNL1       -0.0066
     26 C         -10.0937  -17.0224   22.6227 C.ar    1  UNL1        0.0015
     27 C         -10.3968  -16.3943   21.2947 C.ar    1  UNL1       -0.0066
@<TRIPOS>BOND
     1    20    21    1
     2    21    22   ar
     3    22    23   ar
     4    23    24    1
     5    23    25   ar
     6    25    26   ar
     7    26    19    1
     8    19     1    1
     9     1     2   ar
    10     2     3   ar
    11     3    10    1
    12    10    11   ar
    13    11    12   ar
    14    12    15    1
    15    15    16    1
    16    12    13   ar
    17    13    14   ar
    18     3     4   ar
    19     4     5   ar
    20     5     6   ar
    21     6     7   ar
    22     7     8   ar
    23     8     9   ar
    24    26    27   ar
    25    27    21   ar
    26     9     1   ar
    27    14    10   ar
    28     9     4   ar
    29    16    17    1
    30    16    18    1
@<TRIPOS>MOLECULE
*****
 27 30 0 0 0
SMALL
GASTEIGER

@<TRIPOS>ATOM
      1 N          -8.4512  -16.5015   23.8111 N.ar    1  UNL1       -0.2463
      2 N          -7.3255  -16.7961   22.8645 N.ar    1  UNL1       -0.1641
      3 C          -6.0377  -16.4648   23.5586 C.ar    1  UNL1        0.1581
      4 C          -6.3675  -15.9654   24.9341 C.ar    1  UNL1        0.0413
      5 C          -5.5022  -15.4930   26.0646 C.ar    1  UNL1        0.0032
      6 C          -6.1287  -15.0433   27.3511 C.ar    1  UNL1        0.0001
      7 C          -7.6203  -15.0660   27.5072 C.ar    1  UNL1        0.0015
      8 C          -8.4856  -15.5384   26.3767 C.ar    1  UNL1        0.0188
      9 C          -7.8592  -15.9881   25.0901 C.ar    1  UNL1        0.0799
     10 C          -4.6616  -16.6077   22.9790 C.ar    1  UNL1        0.2792
     11 N          -3.9923  -17.8966   22.6041 N.ar    1  UNL1       -0.1884
     12 C          -2.6302  -17.5724   22.0659 C.ar    1  UNL1        0.1965
     13 N          -2.4578  -16.0829   22.1082 N.ar    1  UNL1       -0.0587
     14 O          -3.7132  -15.4867   22.6725 O.2     1  UNL1       -0.3311
     15 C          -1.6184  -18.5634   21.5722 C.3     1  UNL1        0.1355
     16 N          -1.9601  -20.0232   21.5234 N.3     1  UNL1       -0.3147
     17 H          -2.0929  -20.3732   22.4722 H       1  UNL1        0.1192
     18 H          -1.2004  -20.5355   21.0752 H       1  UNL1        0.1192
     19 C          -9.9125  -16.6876   23.5283 C.3     1  UNL1        0.1538
     20 C         -10.1006  -20.1150   19.6272 C.3     1  UNL1        0.0310
     21 C         -10.4618  -18.7759   20.1984 C.ar    1  UNL1       -0.0224
     22 C         -11.2782  -17.8112   19.3903 C.ar    1  UNL1       -0.0085
     23 C         -11.6393  -16.4721   19.9615 C.ar    1  UNL1       -0.0224
     24 C         -12.4557  -15.5075   19.1534 C.3     1  UNL1        0.0310
     25 C         -11.1842  -16.0975   21.3408 C.ar    1  UNL1       -0.0066
     26 C         -10.3678  -17.0622   22.1489 C.ar    1  UNL1        0.0015
     27 C         -10.0066  -18.4013   21.5777 C.ar    1  UNL1       -0.0066
@<TRIPOS>BOND
     1    20    21    1
     2    21    22   ar
     3    22    23   ar
     4    23    24    1
     5    23    25   ar
     6    25    26   ar
     7    26    19    1
     8    19     1    1
     9     1     2   ar
    10     2     3   ar
    11     3    10    1
    12    10    11   ar
    13    11    12   ar
    14    12    15    1
    15    15    16    1
    16    12    13   ar
    17    13    14   ar
    18     3     4   ar
    19     4     5   ar
    20     5     6   ar
    21     6     7   ar
    22     7     8   ar
    23     8     9   ar
    24    26    27   ar
    25    27    21   ar
    26     9     1   ar
    27    14    10   ar
    28     9     4   ar
    29    16    17    1
    30    16    18    1
@<TRIPOS>MOLECULE
*****
 27 30 0 0 0
SMALL
GASTEIGER

@<TRIPOS>ATOM
      1 N          -7.7938  -18.2162   22.6619 N.ar    1  UNL1       -0.2463
      2 N          -6.4962  -18.2799   21.9122 N.ar    1  UNL1       -0.1641
      3 C          -5.5465  -17.3071   22.5460 C.ar    1  UNL1        0.1581
      4 C          -6.2572  -16.6422   23.6875 C.ar    1  UNL1        0.0413
      5 C          -5.8190  -15.5978   24.6709 C.ar    1  UNL1        0.0032
      6 C          -6.7698  -15.1153   25.7259 C.ar    1  UNL1        0.0001
      7 C          -8.1588  -15.6772   25.7975 C.ar    1  UNL1        0.0015
      8 C          -8.5969  -16.7216   24.8141 C.ar    1  UNL1        0.0188
      9 C          -7.6461  -17.2041   23.7591 C.ar    1  UNL1        0.0799
     10 C          -4.1341  -17.0451   22.1143 C.ar    1  UNL1        0.2792
     11 N          -3.3628  -17.8321   21.0966 N.ar    1  UNL1       -0.1884
     12 C          -1.9970  -17.2235   20.9777 C.ar    1  UNL1        0.1965
     13 N          -1.9242  -16.0603   21.9220 N.ar    1  UNL1       -0.0587
     14 O          -3.2449  -15.9500   22.6244 O.2     1  UNL1       -0.3311
     15 C          -0.8972  -17.6952   20.0734 C.3     1  UNL1        0.1355
     16 N          -0.5828  -19.1586   19.9750 N.3     1  UNL1       -0.3147
     17 H          -0.2219  -19.4898   20.8698 H       1  UNL1        0.1192
     18 H           0.1184  -19.3077   19.2494 H       1  UNL1        0.1192
     19 C          -9.0233  -19.0231   22.3663 C.3     1  UNL1        0.1538
     20 C         -12.0784  -15.9240   19.5269 C.3     1  UNL1        0.0310
     21 C         -11.8670  -16.7852   20.7366 C.ar    1  UNL1       -0.0224
     22 C         -12.9718  -16.9583   21.7364 C.ar    1  UNL1       -0.0085
     23 C         -12.7604  -17.8196   22.9461 C.ar    1  UNL1       -0.0224
     24 C         -13.8651  -17.9927   23.9459 C.3     1  UNL1        0.0310
     25 C         -11.4443  -18.5079   23.1562 C.ar    1  UNL1       -0.0066
     26 C         -10.3395  -18.3348   22.1564 C.ar    1  UNL1        0.0015
     27 C         -10.5509  -17.4735   20.9466 C.ar    1  UNL1       -0.0066
@<TRIPOS>BOND
     1    20    21    1
     2    21    22   ar
     3    22    23   ar
     4    23    24    1
     5    23    25   ar
     6    25    26   ar
     7    26    19    1
     8    19     1    1
     9     1     2   ar
    10     2     3   ar
    11     3    10    1
    12    10    11   ar
    13    11    12   ar
    14    12    15    1
    15    15    16    1
    16    12    13   ar
    17    13    14   ar
    18     3     4   ar
    19     4     5   ar
    20     5     6   ar
    21     6     7   ar
    22     7     8   ar
    23     8     9   ar
    24    26    27   ar
    25    27    21   ar
    26     9     1   ar
    27    14    10   ar
    28     9     4   ar
    29    16    17    1
    30    16    18    1
@<TRIPOS>MOLECULE
*****
 27 30 0 0 0
SMALL
GASTEIGER

@<TRIPOS>ATOM
      1 N         -13.4096   -4.7504   19.8163 N.ar    1  UNL1       -0.2463
      2 N         -14.6039   -5.6482   19.6844 N.ar    1  UNL1       -0.1641
      3 C         -14.1597   -6.9154   19.0160 C.ar    1  UNL1        0.1581
      4 C         -12.6907   -6.8008   18.7347 C.ar    1  UNL1        0.0413
      5 C         -11.7154   -7.7419   18.0921 C.ar    1  UNL1        0.0032
      6 C         -10.2765   -7.3450   17.9441 C.ar    1  UNL1        0.0001
      7 C          -9.8129   -6.0069   18.4388 C.ar    1  UNL1        0.0015
      8 C         -10.7882   -5.0658   19.0813 C.ar    1  UNL1        0.0188
      9 C         -12.2271   -5.4627   19.2293 C.ar    1  UNL1        0.0799
     10 C         -15.0313   -8.0909   18.6866 C.ar    1  UNL1        0.2792
     11 N         -16.4723   -8.0321   18.2747 N.ar    1  UNL1       -0.1884
     12 C         -16.9466   -9.4365   18.0448 C.ar    1  UNL1        0.1965
     13 N         -15.7984  -10.3633   18.3148 N.ar    1  UNL1       -0.0587
     14 O         -14.6147   -9.5317   18.7114 O.2     1  UNL1       -0.3311
     15 C         -18.3265   -9.8427   17.6198 C.3     1  UNL1        0.1355
     16 N         -18.9486  -11.0868   18.1814 N.3     1  UNL1       -0.3147
     17 H         -18.4250  -11.9022   17.8632 H       1  UNL1        0.1192
     18 H         -19.9149  -11.1575   17.8625 H       1  UNL1        0.1192
     19 C         -13.3994   -3.3807   20.4277 C.3     1  UNL1        0.1538
     20 C         -15.7901    0.7298   18.3327 C.3     1  UNL1        0.0310
     21 C         -14.5595   -0.1114   18.5000 C.ar    1  UNL1       -0.0224
     22 C         -13.2936    0.2614   17.7869 C.ar    1  UNL1       -0.0085
     23 C         -12.0629   -0.5797   17.9542 C.ar    1  UNL1       -0.0224
     24 C         -10.7970   -0.2069   17.2411 C.3     1  UNL1        0.0310
     25 C         -12.0982   -1.7938   18.8344 C.ar    1  UNL1       -0.0066
     26 C         -13.3641   -2.1666   19.5474 C.ar    1  UNL1        0.0015
     27 C         -14.5947   -1.3254   19.3802 C.ar    1  UNL1       -0.0066
@<TRIPOS>BOND
     1    20    21    1
     2    21    22   ar
     3    22    23   ar
     4    23    24    1
     5    23    25   ar
     6    25    26   ar
     7    26    19    1
     8    19     1    1
     9     1     2   ar
    10     2     3   ar
    11     3    10    1
    12    10    11   ar
    13    11    12   ar
    14    12    15    1
    15    15    16    1
    16    12    13   ar
    17    13    14   ar
    18     3     4   ar
    19     4     5   ar
    20     5     6   ar
    21     6     7   ar
    22     7     8   ar
    23     8     9   ar
    24    26    27   ar
    25    27    21   ar
    26     9     1   ar
    27    14    10   ar
    28     9     4   ar
    29    16    17    1
    30    16    18    1
@<TRIPOS>MOLECULE
*****
 27 30 0 0 0
SMALL
GASTEIGER

@<TRIPOS>ATOM
      1 N          -8.2223  -17.4144   22.1995 N.ar    1  UNL1       -0.2463
      2 N          -6.7461  -17.6694   22.1227 N.ar    1  UNL1       -0.1641
      3 C          -6.5017  -18.6455   21.0103 C.ar    1  UNL1        0.1581
      4 C          -7.8267  -18.9937   20.3995 C.ar    1  UNL1        0.0413
      5 C          -8.2023  -19.9052   19.2690 C.ar    1  UNL1        0.0032
      6 C          -9.6413  -20.0559   18.8736 C.ar    1  UNL1        0.0001
      7 C         -10.7048  -19.2950   19.6086 C.ar    1  UNL1        0.0015
      8 C         -10.3292  -18.3835   20.7390 C.ar    1  UNL1        0.0188
      9 C          -8.8901  -18.2328   21.1345 C.ar    1  UNL1        0.0799
     10 C          -5.1665  -19.1796   20.5835 C.ar    1  UNL1        0.2792
     11 N          -3.8718  -18.4222   20.5870 N.ar    1  UNL1       -0.1884
     12 C          -2.7968  -19.3394   20.0839 C.ar    1  UNL1        0.1965
     13 N          -3.4272  -20.6637   19.7694 N.ar    1  UNL1       -0.0587
     14 O          -4.8918  -20.5649   20.0782 O.2     1  UNL1       -0.3311
     15 C          -1.3462  -18.9931   19.9235 C.3     1  UNL1        0.1355
     16 N          -0.6641  -18.1292   20.9426 N.3     1  UNL1       -0.3147
     17 H          -1.0669  -17.1924   20.9185 H       1  UNL1        0.1192
     18 H           0.3324  -18.0764   20.7314 H       1  UNL1        0.1192
     19 C          -8.9099  -16.5013   23.1708 C.3     1  UNL1        0.1538
     20 C          -9.0528  -16.2233   28.3576 C.3     1  UNL1        0.0310
     21 C          -8.3200  -16.0161   27.0652 C.ar    1  UNL1       -0.0224
     22 C          -6.9258  -15.4627   27.0740 C.ar    1  UNL1       -0.0085
     23 C          -6.1931  -15.2555   25.7816 C.ar    1  UNL1       -0.0224
     24 C          -4.7989  -14.7021   25.7903 C.3     1  UNL1        0.0310
     25 C          -6.8544  -15.6017   24.4806 C.ar    1  UNL1       -0.0066
     26 C          -8.2485  -16.1551   24.4719 C.ar    1  UNL1        0.0015
     27 C          -8.9813  -16.3622   25.7642 C.ar    1  UNL1       -0.0066
@<TRIPOS>BOND
     1    20    21    1
     2    21    22   ar
     3    22    23   ar
     4    23    24    1
     5    23    25   ar
     6    25    26   ar
     7    26    19    1
     8    19     1    1
     9     1     2   ar
    10     2     3   ar
    11     3    10    1
    12    10    11   ar
    13    11    12   ar
    14    12    15    1
    15    15    16    1
    16    12    13   ar
    17    13    14   ar
    18     3     4   ar
    19     4     5   ar
    20     5     6   ar
    21     6     7   ar
    22     7     8   ar
    23     8     9   ar
    24    26    27   ar
    25    27    21   ar
    26     9     1   ar
    27    14    10   ar
    28     9     4   ar
    29    16    17    1
    30    16    18    1
