@<TRIPOS>MOLECULE
*****
 41 44 0 0 0
SMALL
GASTEIGER

@<TRIPOS>ATOM
      1 C           6.7100   -2.6139   31.7499 C.3     1  UNL1        0.1139
      2 C           6.3684   -1.8012   32.9636 C.ar    1  UNL1       -0.0029
      3 C           7.3997   -0.9026   33.5790 C.ar    1  UNL1       -0.0026
      4 C           7.0581   -0.0899   34.7927 C.ar    1  UNL1       -0.0003
      5 C           5.6852   -0.1759   35.3908 C.ar    1  UNL1       -0.0000
      6 C           4.6538   -1.0745   34.7753 C.ar    1  UNL1       -0.0003
      7 C           4.9954   -1.8872   33.5617 C.ar    1  UNL1       -0.0026
      8 C           5.3436    0.6368   36.6044 C.ar    1  UNL1        0.0001
      9 C           6.3972    1.4734   37.2677 C.ar    1  UNL1        0.0000
     10 C           6.0556    2.2861   38.4813 C.ar    1  UNL1        0.0001
     11 C           4.6605    2.2622   39.0316 C.ar    1  UNL1        0.0045
     12 C           3.6068    1.4255   38.3684 C.ar    1  UNL1        0.0531
     13 C           3.9484    0.6128   37.1547 C.ar    1  UNL1        0.0045
     14 C           2.2117    1.4015   38.9187 C.2     1  UNL1        0.2427
     15 N           1.1945    2.3885   38.4274 N.am    1  UNL1       -0.3253
     16 O           1.8336    0.3906   39.9604 O.2     1  UNL1       -0.2704
     17 H           1.4427    3.0520   37.7437 H       1  UNL1        0.1453
     18 H           0.2788    2.3728   38.7886 H       1  UNL1        0.1453
     19 C           8.6713   -1.8995   30.2030 C.3     1  UNL1        0.1152
     20 N           7.2027   -1.9346   30.5067 N.am    1  UNL1       -0.2729
     21 C           6.2270   -1.2903   29.5672 C.2     1  UNL1        0.2462
     22 O           6.7198   -0.6109   28.3239 O.2     1  UNL1       -0.2730
     23 C           4.7585   -1.3253   29.8708 C.3     1  UNL1        0.1780
     24 N           3.9851   -0.0450   29.9832 N.pl3   1  UNL1       -0.2868
     25 C           4.2063    0.8645   31.1555 C.ar    1  UNL1        0.0498
     26 C           5.5198    1.5699   31.3200 C.ar    1  UNL1        0.0155
     27 C           5.7410    2.4793   32.4922 C.ar    1  UNL1        0.0135
     28 C           4.6487    2.6832   33.4999 C.ar    1  UNL1        0.0683
     29 CL          4.8700    3.5926   34.6721 Cl      1  UNL1       -0.0814
     30 C           3.3353    1.9777   33.3353 C.ar    1  UNL1        0.0694
     31 CL          2.2431    2.1816   34.3430 Cl      1  UNL1       -0.0813
     32 C           3.1141    1.0683   32.1632 C.ar    1  UNL1        0.0268
     33 C           2.9905    0.3260   28.9235 C.3     1  UNL1        0.1986
     34 C           1.5356    0.0177   29.1194 C.1     1  UNL1        0.0954
     35 N           0.0808   -0.2905   29.3154 N.1     1  UNL1       -0.1941
     36 C           6.5588   -4.1060   31.7796 C.3     1  UNL1        0.0967
     37 N           7.2389   -4.9495   30.7423 N.3     1  UNL1       -0.2710
     38 C           6.6905   -5.2965   29.3899 C.3     1  UNL1        0.0722
     39 C           7.6995   -6.1555   28.6871 C.3     1  UNL1        0.0188
     40 C           8.8714   -6.3396   29.6051 C.3     1  UNL1        0.0188
     41 C           8.5867   -5.5943   30.8753 C.3     1  UNL1        0.0722
@<TRIPOS>BOND
     1    19    20    1
     2    20    21   am
     3    21    22    2
     4    21    23    1
     5    23    24    1
     6    24    33    1
     7    33    34    1
     8    34    35    3
     9    24    25    1
    10    25    26   ar
    11    26    27   ar
    12    27    28   ar
    13    28    29    1
    14    28    30   ar
    15    30    31    1
    16    30    32   ar
    17    20     1    1
    18     1    36    1
    19    36    37    1
    20    37    38    1
    21    38    39    1
    22    39    40    1
    23    40    41    1
    24     1     2    1
    25     2     3   ar
    26     3     4   ar
    27     4     5   ar
    28     5     8    1
    29     8     9   ar
    30     9    10   ar
    31    10    11   ar
    32    11    12   ar
    33    12    14    1
    34    14    15   am
    35    14    16    2
    36    12    13   ar
    37     5     6   ar
    38     6     7   ar
    39    32    25   ar
    40    41    37    1
    41     7     2   ar
    42    13     8   ar
    43    15    17    1
    44    15    18    1
@<TRIPOS>MOLECULE
*****
 41 44 0 0 0
SMALL
GASTEIGER

@<TRIPOS>ATOM
      1 C           4.3005   -2.1639   18.8896 C.3     1  UNL1        0.1139
      2 C           3.2934   -1.0547   18.9647 C.ar    1  UNL1       -0.0029
      3 C           2.0552   -1.2209   19.7948 C.ar    1  UNL1       -0.0026
      4 C           1.0481   -0.1117   19.8699 C.ar    1  UNL1       -0.0003
      5 C           1.2794    1.1636   19.1149 C.ar    1  UNL1       -0.0000
      6 C           2.5177    1.3298   18.2848 C.ar    1  UNL1       -0.0003
      7 C           3.5247    0.2206   18.2097 C.ar    1  UNL1       -0.0026
      8 C           0.2723    2.2728   19.1900 C.ar    1  UNL1        0.0001
      9 C           0.3387    3.4131   18.2178 C.ar    1  UNL1        0.0000
     10 C          -0.6683    4.5222   18.2929 C.ar    1  UNL1        0.0001
     11 C          -1.7417    4.4911   19.3402 C.ar    1  UNL1        0.0045
     12 C          -1.8081    3.3507   20.3125 C.ar    1  UNL1        0.0531
     13 C          -0.8011    2.2415   20.2374 C.ar    1  UNL1        0.0045
     14 C          -2.8815    3.3195   21.3597 C.2     1  UNL1        0.2427
     15 N          -4.2347    2.7624   21.0305 N.am    1  UNL1       -0.3253
     16 O          -2.6016    3.8455   22.7363 O.2     1  UNL1       -0.2704
     17 H          -4.4183    2.4172   20.1269 H       1  UNL1        0.1453
     18 H          -4.9392    2.7419   21.7178 H       1  UNL1        0.1453
     19 C           3.4783   -4.6122   19.1721 C.3     1  UNL1        0.1152
     20 N           4.1329   -3.3879   19.7403 N.am    1  UNL1       -0.2729
     21 C           4.6198   -3.3878   21.1590 C.2     1  UNL1        0.2462
     22 O           4.4522   -4.6119   22.0097 O.2     1  UNL1       -0.2730
     23 C           5.2744   -2.1636   21.7271 C.3     1  UNL1        0.1780
     24 N           4.6455   -1.4452   22.8841 N.pl3   1  UNL1       -0.2868
     25 C           3.9480   -0.1355   22.6641 C.ar    1  UNL1        0.0498
     26 C           4.6034    0.9345   21.8424 C.ar    1  UNL1        0.0155
     27 C           3.9059    2.2441   21.6225 C.ar    1  UNL1        0.0135
     28 C           2.5530    2.4836   22.2243 C.ar    1  UNL1        0.0683
     29 CL          1.8555    3.7933   22.0044 Cl      1  UNL1       -0.0814
     30 C           1.8976    1.4136   23.0461 C.ar    1  UNL1        0.0694
     31 CL          0.5447    1.6531   23.6480 Cl      1  UNL1       -0.0813
     32 C           2.5951    0.1040   23.2660 C.ar    1  UNL1        0.0268
     33 C           4.7141   -2.0365   24.2609 C.3     1  UNL1        0.1986
     34 C           5.8877   -2.8830   24.6560 C.1     1  UNL1        0.0954
     35 N           7.0614   -3.7294   25.0511 N.1     1  UNL1       -0.1941
     36 C           5.4752   -2.0490   17.9639 C.3     1  UNL1        0.0967
     37 N           6.7849   -1.5266   18.4753 N.3     1  UNL1       -0.2710
     38 C           7.8976   -2.3502   19.0528 C.3     1  UNL1        0.0722
     39 C           9.0123   -1.4215   19.4335 C.3     1  UNL1        0.0188
     40 C           8.5885   -0.0238   19.0914 C.3     1  UNL1        0.0188
     41 C           7.2119   -0.0888   18.4992 C.3     1  UNL1        0.0722
@<TRIPOS>BOND
     1    19    20    1
     2    20    21   am
     3    21    22    2
     4    21    23    1
     5    23    24    1
     6    24    33    1
     7    33    34    1
     8    34    35    3
     9    24    25    1
    10    25    26   ar
    11    26    27   ar
    12    27    28   ar
    13    28    29    1
    14    28    30   ar
    15    30    31    1
    16    30    32   ar
    17    20     1    1
    18     1    36    1
    19    36    37    1
    20    37    38    1
    21    38    39    1
    22    39    40    1
    23    40    41    1
    24     1     2    1
    25     2     3   ar
    26     3     4   ar
    27     4     5   ar
    28     5     8    1
    29     8     9   ar
    30     9    10   ar
    31    10    11   ar
    32    11    12   ar
    33    12    14    1
    34    14    15   am
    35    14    16    2
    36    12    13   ar
    37     5     6   ar
    38     6     7   ar
    39    32    25   ar
    40    41    37    1
    41     7     2   ar
    42    13     8   ar
    43    15    17    1
    44    15    18    1
@<TRIPOS>MOLECULE
*****
 41 44 0 0 0
SMALL
GASTEIGER

@<TRIPOS>ATOM
      1 C           3.0404   -1.5781   20.3472 C.3     1  UNL1        0.1139
      2 C           3.3490   -1.5007   21.8131 C.ar    1  UNL1       -0.0029
      3 C           2.6354   -0.5045   22.6781 C.ar    1  UNL1       -0.0026
      4 C           2.9440   -0.4272   24.1440 C.ar    1  UNL1       -0.0003
      5 C           3.9662   -1.3459   24.7448 C.ar    1  UNL1       -0.0000
      6 C           4.6798   -2.3422   23.8797 C.ar    1  UNL1       -0.0003
      7 C           4.3712   -2.4195   22.4138 C.ar    1  UNL1       -0.0026
      8 C           4.2748   -1.2686   26.2107 C.ar    1  UNL1        0.0001
      9 C           5.6768   -1.4916   26.6947 C.ar    1  UNL1        0.0000
     10 C           5.9854   -1.4142   28.1606 C.ar    1  UNL1        0.0001
     11 C           4.8919   -1.1138   29.1424 C.ar    1  UNL1        0.0045
     12 C           3.4897   -0.8908   28.6584 C.ar    1  UNL1        0.0531
     13 C           3.1812   -0.9682   27.1925 C.ar    1  UNL1        0.0045
     14 C           2.3962   -0.5904   29.6402 C.2     1  UNL1        0.2427
     15 N           1.1534    0.1158   29.1857 N.am    1  UNL1       -0.3253
     16 O           2.5456   -0.9962   31.0765 O.2     1  UNL1       -0.2704
     17 H           1.0553    0.3822   28.2430 H       1  UNL1        0.1453
     18 H           0.4357    0.3130   29.8301 H       1  UNL1        0.1453
     19 C           3.4185   -3.8982   19.2408 C.3     1  UNL1        0.1152
     20 N           3.8467   -2.4770   19.4574 N.am    1  UNL1       -0.2729
     21 C           5.0813   -1.9548   18.7842 C.2     1  UNL1        0.2462
     22 O           5.8876   -2.8538   17.8944 O.2     1  UNL1       -0.2730
     23 C           5.5095   -0.5337   19.0008 C.3     1  UNL1        0.1780
     24 N           6.6747   -0.2294   19.8950 N.pl3   1  UNL1       -0.2868
     25 C           6.4454    0.3968   21.2387 C.ar    1  UNL1        0.0498
     26 C           7.2306   -0.0710   22.4280 C.ar    1  UNL1        0.0155
     27 C           7.0013    0.5553   23.7716 C.ar    1  UNL1        0.0135
     28 C           5.9869    1.6494   23.9258 C.ar    1  UNL1        0.0683
     29 CL          5.7576    2.2756   25.2694 Cl      1  UNL1       -0.0814
     30 C           5.2017    2.1172   22.7365 C.ar    1  UNL1        0.0694
     31 CL          4.1872    3.2113   22.8907 Cl      1  UNL1       -0.0813
     32 C           5.4310    1.4909   21.3929 C.ar    1  UNL1        0.0268
     33 C           8.0691   -0.5514   19.4457 C.3     1  UNL1        0.1986
     34 C           8.6367   -1.9193   19.6837 C.1     1  UNL1        0.0954
     35 N           9.2043   -3.2872   19.9217 N.1     1  UNL1       -0.1941
     36 C           1.9254   -0.7564   19.7711 C.3     1  UNL1        0.0967
     37 N           2.1324    0.7045   19.5012 N.3     1  UNL1       -0.2710
     38 C           2.8407    1.2904   18.3160 C.3     1  UNL1        0.0722
     39 C           2.8135    2.7840   18.4514 C.3     1  UNL1        0.0188
     40 C           2.0883    3.1212   19.7205 C.3     1  UNL1        0.0188
     41 C           1.6674    1.8360   20.3693 C.3     1  UNL1        0.0722
@<TRIPOS>BOND
     1    19    20    1
     2    20    21   am
     3    21    22    2
     4    21    23    1
     5    23    24    1
     6    24    33    1
     7    33    34    1
     8    34    35    3
     9    24    25    1
    10    25    26   ar
    11    26    27   ar
    12    27    28   ar
    13    28    29    1
    14    28    30   ar
    15    30    31    1
    16    30    32   ar
    17    20     1    1
    18     1    36    1
    19    36    37    1
    20    37    38    1
    21    38    39    1
    22    39    40    1
    23    40    41    1
    24     1     2    1
    25     2     3   ar
    26     3     4   ar
    27     4     5   ar
    28     5     8    1
    29     8     9   ar
    30     9    10   ar
    31    10    11   ar
    32    11    12   ar
    33    12    14    1
    34    14    15   am
    35    14    16    2
    36    12    13   ar
    37     5     6   ar
    38     6     7   ar
    39    32    25   ar
    40    41    37    1
    41     7     2   ar
    42    13     8   ar
    43    15    17    1
    44    15    18    1
@<TRIPOS>MOLECULE
*****
 41 44 0 0 0
SMALL
GASTEIGER

@<TRIPOS>ATOM
      1 C           4.5116    0.2032   28.5224 C.3     1  UNL1        0.1139
      2 C           4.2408   -0.1268   27.0844 C.ar    1  UNL1       -0.0029
      3 C           4.5293   -1.5036   26.5637 C.ar    1  UNL1       -0.0026
      4 C           4.2584   -1.8336   25.1258 C.ar    1  UNL1       -0.0003
      5 C           3.6991   -0.7869   24.2085 C.ar    1  UNL1       -0.0000
      6 C           3.4106    0.5900   24.7292 C.ar    1  UNL1       -0.0003
      7 C           3.6815    0.9201   26.1671 C.ar    1  UNL1       -0.0026
      8 C           3.4283   -1.1169   22.7705 C.ar    1  UNL1        0.0001
      9 C           4.2425   -2.1679   22.0760 C.ar    1  UNL1        0.0000
     10 C           3.9717   -2.4980   20.6381 C.ar    1  UNL1        0.0001
     11 C           2.8866   -1.7770   19.8946 C.ar    1  UNL1        0.0045
     12 C           2.0723   -0.7259   20.5891 C.ar    1  UNL1        0.0531
     13 C           2.3432   -0.3959   22.0271 C.ar    1  UNL1        0.0045
     14 C           0.9872   -0.0049   19.8456 C.2     1  UNL1        0.2427
     15 N          -0.3201    0.2850   20.5216 N.am    1  UNL1       -0.3253
     16 O           1.2095    0.4261   18.4262 O.2     1  UNL1       -0.2704
     17 H          -0.4659    0.0021   21.4532 H       1  UNL1        0.1453
     18 H          -1.0322    0.7582   20.0336 H       1  UNL1        0.1453
     19 C           6.4678    1.8909   28.7973 C.3     1  UNL1        0.1152
     20 N           5.9098    0.5094   28.9711 N.am    1  UNL1       -0.2729
     21 C           6.7500   -0.5660   29.5937 C.2     1  UNL1        0.2462
     22 O           8.1482   -0.2598   30.0425 O.2     1  UNL1       -0.2730
     23 C           6.1921   -1.9474   29.7676 C.3     1  UNL1        0.1780
     24 N           6.3942   -2.6807   31.0605 N.pl3   1  UNL1       -0.2868
     25 C           5.9862   -2.0435   32.3558 C.ar    1  UNL1        0.0498
     26 C           4.5906   -2.2257   32.8743 C.ar    1  UNL1        0.0155
     27 C           4.1826   -1.5886   34.1695 C.ar    1  UNL1        0.0135
     28 C           5.1703   -0.7692   34.9462 C.ar    1  UNL1        0.0683
     29 CL          4.7623   -0.1321   36.2414 Cl      1  UNL1       -0.0814
     30 C           6.5660   -0.5870   34.4276 C.ar    1  UNL1        0.0694
     31 CL          7.5537    0.2323   35.2042 Cl      1  UNL1       -0.0813
     32 C           6.9739   -1.2242   33.1324 C.ar    1  UNL1        0.0268
     33 C           7.0042   -4.0510   31.0581 C.3     1  UNL1        0.1986
     34 C           6.9432   -4.8970   29.8209 C.1     1  UNL1        0.0954
     35 N           6.8822   -5.7430   28.5838 N.1     1  UNL1       -0.1941
     36 C           3.3842    0.2272   29.5116 C.3     1  UNL1        0.0967
     37 N           2.0220    0.6880   29.0852 N.3     1  UNL1       -0.2710
     38 C           0.8535   -0.1953   28.7623 C.3     1  UNL1        0.0722
     39 C          -0.3016    0.6838   28.3844 C.3     1  UNL1        0.0188
     40 C           0.1530    2.1105   28.4737 C.3     1  UNL1        0.0188
     41 C           1.5891    2.1131   28.9069 C.3     1  UNL1        0.0722
@<TRIPOS>BOND
     1    19    20    1
     2    20    21   am
     3    21    22    2
     4    21    23    1
     5    23    24    1
     6    24    33    1
     7    33    34    1
     8    34    35    3
     9    24    25    1
    10    25    26   ar
    11    26    27   ar
    12    27    28   ar
    13    28    29    1
    14    28    30   ar
    15    30    31    1
    16    30    32   ar
    17    20     1    1
    18     1    36    1
    19    36    37    1
    20    37    38    1
    21    38    39    1
    22    39    40    1
    23    40    41    1
    24     1     2    1
    25     2     3   ar
    26     3     4   ar
    27     4     5   ar
    28     5     8    1
    29     8     9   ar
    30     9    10   ar
    31    10    11   ar
    32    11    12   ar
    33    12    14    1
    34    14    15   am
    35    14    16    2
    36    12    13   ar
    37     5     6   ar
    38     6     7   ar
    39    32    25   ar
    40    41    37    1
    41     7     2   ar
    42    13     8   ar
    43    15    17    1
    44    15    18    1
@<TRIPOS>MOLECULE
*****
 41 44 0 0 0
SMALL
GASTEIGER

@<TRIPOS>ATOM
      1 C           5.7030   -0.7740   21.3921 C.3     1  UNL1        0.1139
      2 C           6.2654   -1.9726   22.0972 C.ar    1  UNL1       -0.0029
      3 C           5.4321   -2.7109   23.1023 C.ar    1  UNL1       -0.0026
      4 C           5.9945   -3.9095   23.8074 C.ar    1  UNL1       -0.0003
      5 C           7.3902   -4.3697   23.5074 C.ar    1  UNL1       -0.0000
      6 C           8.2236   -3.6314   22.5022 C.ar    1  UNL1       -0.0003
      7 C           7.6612   -2.4328   21.7971 C.ar    1  UNL1       -0.0026
      8 C           7.9526   -5.5683   24.2124 C.ar    1  UNL1        0.0001
      9 C           8.7364   -6.5909   23.4444 C.ar    1  UNL1        0.0000
     10 C           9.2988   -7.7895   24.1495 C.ar    1  UNL1        0.0001
     11 C           9.0774   -7.9654   25.6226 C.ar    1  UNL1        0.0045
     12 C           8.2936   -6.9427   26.3907 C.ar    1  UNL1        0.0531
     13 C           7.7312   -5.7442   25.6856 C.ar    1  UNL1        0.0045
     14 C           8.0723   -7.1186   27.8638 C.2     1  UNL1        0.2427
     15 N           7.0749   -6.2575   28.5804 N.am    1  UNL1       -0.3253
     16 O           8.8484   -8.1557   28.6202 O.2     1  UNL1       -0.2704
     17 H           6.5655   -5.5768   28.0840 H       1  UNL1        0.1453
     18 H           6.9296   -6.3730   29.5473 H       1  UNL1        0.1453
     19 C           7.0802    1.3964   21.7700 C.3     1  UNL1        0.1152
     20 N           5.8383    0.5884   22.0047 N.am    1  UNL1       -0.2729
     21 C           4.7317    1.1431   22.8520 C.2     1  UNL1        0.2462
     22 O           4.8671    2.5056   23.4646 O.2     1  UNL1       -0.2730
     23 C           3.4899    0.3352   23.0867 C.3     1  UNL1        0.1780
     24 N           2.2543    0.9972   23.6208 N.pl3   1  UNL1       -0.2868
     25 C           1.9195    0.8950   25.0794 C.ar    1  UNL1        0.0498
     26 C           2.9338    0.3593   26.0460 C.ar    1  UNL1        0.0155
     27 C           2.5990    0.2571   27.5045 C.ar    1  UNL1        0.0135
     28 C           1.2499    0.6906   27.9965 C.ar    1  UNL1        0.0683
     29 CL          0.9151    0.5884   29.4552 Cl      1  UNL1       -0.0814
     30 C           0.2356    1.2264   27.0300 C.ar    1  UNL1        0.0694
     31 CL         -1.1134    1.6599   27.5220 Cl      1  UNL1       -0.0813
     32 C           0.5705    1.3285   25.5714 C.ar    1  UNL1        0.0268
     33 C           1.3536    1.7613   22.6963 C.3     1  UNL1        0.1986
     34 C           0.6164    1.0437   21.6046 C.1     1  UNL1        0.0954
     35 N          -0.1207    0.3262   20.5129 N.1     1  UNL1       -0.1941
     36 C           5.0052   -0.9380   20.0744 C.3     1  UNL1        0.0967
     37 N           4.6151   -2.3055   19.5973 N.3     1  UNL1       -0.2710
     38 C           5.5001   -3.2691   18.8636 C.3     1  UNL1        0.0722
     39 C           4.7036   -4.5087   18.5831 C.3     1  UNL1        0.0188
     40 C           3.3261   -4.3113   19.1434 C.3     1  UNL1        0.0188
     41 C           3.2715   -2.9497   19.7702 C.3     1  UNL1        0.0722
@<TRIPOS>BOND
     1    19    20    1
     2    20    21   am
     3    21    22    2
     4    21    23    1
     5    23    24    1
     6    24    33    1
     7    33    34    1
     8    34    35    3
     9    24    25    1
    10    25    26   ar
    11    26    27   ar
    12    27    28   ar
    13    28    29    1
    14    28    30   ar
    15    30    31    1
    16    30    32   ar
    17    20     1    1
    18     1    36    1
    19    36    37    1
    20    37    38    1
    21    38    39    1
    22    39    40    1
    23    40    41    1
    24     1     2    1
    25     2     3   ar
    26     3     4   ar
    27     4     5   ar
    28     5     8    1
    29     8     9   ar
    30     9    10   ar
    31    10    11   ar
    32    11    12   ar
    33    12    14    1
    34    14    15   am
    35    14    16    2
    36    12    13   ar
    37     5     6   ar
    38     6     7   ar
    39    32    25   ar
    40    41    37    1
    41     7     2   ar
    42    13     8   ar
    43    15    17    1
    44    15    18    1
@<TRIPOS>MOLECULE
*****
 41 44 0 0 0
SMALL
GASTEIGER

@<TRIPOS>ATOM
      1 C           3.8604   -1.8185   21.0975 C.3     1  UNL1        0.1139
      2 C           4.6683   -2.4765   22.1766 C.ar    1  UNL1       -0.0029
      3 C           5.6658   -3.5397   21.8239 C.ar    1  UNL1       -0.0026
      4 C           6.4737   -4.1977   22.9029 C.ar    1  UNL1       -0.0003
      5 C           6.2841   -3.7926   24.3346 C.ar    1  UNL1       -0.0000
      6 C           5.2865   -2.7293   24.6874 C.ar    1  UNL1       -0.0003
      7 C           4.4786   -2.0713   23.6083 C.ar    1  UNL1       -0.0026
      8 C           7.0920   -4.4506   25.4137 C.ar    1  UNL1        0.0001
      9 C           8.2490   -5.3337   25.0514 C.ar    1  UNL1        0.0000
     10 C           9.0569   -5.9917   26.1304 C.ar    1  UNL1        0.0001
     11 C           8.7078   -5.7666   27.5717 C.ar    1  UNL1        0.0045
     12 C           7.5507   -4.8834   27.9341 C.ar    1  UNL1        0.0531
     13 C           6.7428   -4.2254   26.8550 C.ar    1  UNL1        0.0045
     14 C           7.2015   -4.6583   29.3753 C.2     1  UNL1        0.2427
     15 N           7.3129   -3.2850   29.9684 N.am    1  UNL1       -0.3253
     16 O           6.7411   -5.8065   30.2236 O.2     1  UNL1       -0.2704
     17 H           7.6151   -2.5314   29.4116 H       1  UNL1        0.1453
     18 H           7.0837   -3.1372   30.9143 H       1  UNL1        0.1453
     19 C           3.4085   -3.2980   19.0101 C.3     1  UNL1        0.1152
     20 N           4.1220   -2.1484   19.6579 N.am    1  UNL1       -0.2729
     21 C           5.0971   -1.3287   18.8658 C.2     1  UNL1        0.2462
     22 O           5.3587   -1.6586   17.4261 O.2     1  UNL1       -0.2730
     23 C           5.8106   -0.1792   19.5135 C.3     1  UNL1        0.1780
     24 N           7.2955   -0.2370   19.7174 N.pl3   1  UNL1       -0.2868
     25 C           7.8545   -0.6533   21.0456 C.ar    1  UNL1        0.0498
     26 C           8.9238   -1.7031   21.1136 C.ar    1  UNL1        0.0155
     27 C           9.4827   -2.1193   22.4418 C.ar    1  UNL1        0.0135
     28 C           8.9724   -1.4859   23.7021 C.ar    1  UNL1        0.0683
     29 CL          9.5314   -1.9022   25.0304 Cl      1  UNL1       -0.0814
     30 C           7.9031   -0.4362   23.6342 C.ar    1  UNL1        0.0694
     31 CL          7.3928    0.1973   24.8944 Cl      1  UNL1       -0.0813
     32 C           7.3442   -0.0199   22.3059 C.ar    1  UNL1        0.0268
     33 C           8.2214    0.1215   18.5931 C.3     1  UNL1        0.1986
     34 C           7.7250    0.9557   17.4495 C.1     1  UNL1        0.0954
     35 N           7.2285    1.7900   16.3061 N.1     1  UNL1       -0.1941
     36 C           2.7908   -0.8306   21.4582 C.3     1  UNL1        0.0967
     37 N           2.2543    0.1072   20.4178 N.3     1  UNL1       -0.2710
     38 C           2.7490    1.4966   20.1440 C.3     1  UNL1        0.0722
     39 C           1.9294    2.0684   19.0254 C.3     1  UNL1        0.0188
     40 C           0.9281    1.0325   18.6078 C.3     1  UNL1        0.0188
     41 C           1.1289   -0.1796   19.4683 C.3     1  UNL1        0.0722
@<TRIPOS>BOND
     1    19    20    1
     2    20    21   am
     3    21    22    2
     4    21    23    1
     5    23    24    1
     6    24    33    1
     7    33    34    1
     8    34    35    3
     9    24    25    1
    10    25    26   ar
    11    26    27   ar
    12    27    28   ar
    13    28    29    1
    14    28    30   ar
    15    30    31    1
    16    30    32   ar
    17    20     1    1
    18     1    36    1
    19    36    37    1
    20    37    38    1
    21    38    39    1
    22    39    40    1
    23    40    41    1
    24     1     2    1
    25     2     3   ar
    26     3     4   ar
    27     4     5   ar
    28     5     8    1
    29     8     9   ar
    30     9    10   ar
    31    10    11   ar
    32    11    12   ar
    33    12    14    1
    34    14    15   am
    35    14    16    2
    36    12    13   ar
    37     5     6   ar
    38     6     7   ar
    39    32    25   ar
    40    41    37    1
    41     7     2   ar
    42    13     8   ar
    43    15    17    1
    44    15    18    1
@<TRIPOS>MOLECULE
*****
 41 44 0 0 0
SMALL
GASTEIGER

@<TRIPOS>ATOM
      1 C           3.2028   -1.8317   20.6104 C.3     1  UNL1        0.1139
      2 C           3.7339   -1.8621   22.0130 C.ar    1  UNL1       -0.0029
      3 C           4.7707   -2.8744   22.4006 C.ar    1  UNL1       -0.0026
      4 C           5.3018   -2.9048   23.8031 C.ar    1  UNL1       -0.0003
      5 C           4.7960   -1.9229   24.8180 C.ar    1  UNL1       -0.0000
      6 C           3.7592   -0.9105   24.4304 C.ar    1  UNL1       -0.0003
      7 C           3.2281   -0.8801   23.0279 C.ar    1  UNL1       -0.0026
      8 C           5.3271   -1.9533   26.2205 C.ar    1  UNL1        0.0001
      9 C           5.1430   -0.7657   27.1181 C.ar    1  UNL1        0.0000
     10 C           5.6741   -0.7961   28.5206 C.ar    1  UNL1        0.0001
     11 C           6.3892   -2.0140   29.0255 C.ar    1  UNL1        0.0045
     12 C           6.5734   -3.2017   28.1279 C.ar    1  UNL1        0.0531
     13 C           6.0423   -3.1713   26.7254 C.ar    1  UNL1        0.0045
     14 C           7.2885   -4.4197   28.6329 C.2     1  UNL1        0.2427
     15 N           6.5114   -5.6529   28.9870 N.am    1  UNL1       -0.3253
     16 O           8.7808   -4.4045   28.7837 O.2     1  UNL1       -0.2704
     17 H           5.5319   -5.6628   28.8880 H       1  UNL1        0.1453
     18 H           6.9808   -6.4523   29.3184 H       1  UNL1        0.1453
     19 C           3.3707   -3.9601   19.1299 C.3     1  UNL1        0.1152
     20 N           3.8920   -2.6118   19.5304 N.am    1  UNL1       -0.2729
     21 C           5.1026   -2.0436   18.8509 C.2     1  UNL1        0.2462
     22 O           5.7918   -2.8237   17.7708 O.2     1  UNL1       -0.2730
     23 C           5.6239   -0.6953   19.2514 C.3     1  UNL1        0.1780
     24 N           6.7204   -0.5872   20.2693 N.pl3   1  UNL1       -0.2868
     25 C           6.5232    0.2504   21.4980 C.ar    1  UNL1        0.0498
     26 C           7.3029   -0.0501   22.7436 C.ar    1  UNL1        0.0155
     27 C           7.1057    0.7875   23.9722 C.ar    1  UNL1        0.0135
     28 C           6.1288    1.9256   23.9552 C.ar    1  UNL1        0.0683
     29 CL          5.9316    2.7632   25.1838 Cl      1  UNL1       -0.0814
     30 C           5.3490    2.2261   22.7095 C.ar    1  UNL1        0.0694
     31 CL          4.3721    3.3642   22.6925 Cl      1  UNL1       -0.0813
     32 C           5.5462    1.3885   21.4809 C.ar    1  UNL1        0.0268
     33 C           8.0139   -1.3167   20.0585 C.3     1  UNL1        0.1986
     34 C           8.1439   -2.7504   20.4801 C.1     1  UNL1        0.0954
     35 N           8.2738   -4.1840   20.9016 N.1     1  UNL1       -0.1941
     36 C           1.9825   -1.0212   20.2880 C.3     1  UNL1        0.0967
     37 N           2.1258    0.3976   19.8229 N.3     1  UNL1       -0.2710
     38 C           2.4944    0.8383   18.4373 C.3     1  UNL1        0.0722
     39 C           2.5221    2.3379   18.4198 C.3     1  UNL1        0.0188
     40 C           2.1705    2.8241   19.7946 C.3     1  UNL1        0.0188
     41 C           1.9256    1.6249   20.6618 C.3     1  UNL1        0.0722
@<TRIPOS>BOND
     1    19    20    1
     2    20    21   am
     3    21    22    2
     4    21    23    1
     5    23    24    1
     6    24    33    1
     7    33    34    1
     8    34    35    3
     9    24    25    1
    10    25    26   ar
    11    26    27   ar
    12    27    28   ar
    13    28    29    1
    14    28    30   ar
    15    30    31    1
    16    30    32   ar
    17    20     1    1
    18     1    36    1
    19    36    37    1
    20    37    38    1
    21    38    39    1
    22    39    40    1
    23    40    41    1
    24     1     2    1
    25     2     3   ar
    26     3     4   ar
    27     4     5   ar
    28     5     8    1
    29     8     9   ar
    30     9    10   ar
    31    10    11   ar
    32    11    12   ar
    33    12    14    1
    34    14    15   am
    35    14    16    2
    36    12    13   ar
    37     5     6   ar
    38     6     7   ar
    39    32    25   ar
    40    41    37    1
    41     7     2   ar
    42    13     8   ar
    43    15    17    1
    44    15    18    1
@<TRIPOS>MOLECULE
*****
 41 44 0 0 0
SMALL
GASTEIGER

@<TRIPOS>ATOM
      1 C           3.3856    0.9854   27.6251 C.3     1  UNL1        0.1139
      2 C           3.3944    0.3955   26.2460 C.ar    1  UNL1       -0.0029
      3 C           2.7700    1.1442   25.1060 C.ar    1  UNL1       -0.0026
      4 C           2.7788    0.5543   23.7269 C.ar    1  UNL1       -0.0003
      5 C           3.4121   -0.7842   23.4877 C.ar    1  UNL1       -0.0000
      6 C           4.0366   -1.5330   24.6277 C.ar    1  UNL1       -0.0003
      7 C           4.0277   -0.9431   26.0068 C.ar    1  UNL1       -0.0026
      8 C           3.4210   -1.3741   22.1086 C.ar    1  UNL1        0.0001
      9 C           2.4587   -0.8734   21.0726 C.ar    1  UNL1        0.0000
     10 C           2.4676   -1.4633   19.6934 C.ar    1  UNL1        0.0001
     11 C           3.4386   -2.5538   19.3504 C.ar    1  UNL1        0.0045
     12 C           4.4009   -3.0545   20.3864 C.ar    1  UNL1        0.0531
     13 C           4.3921   -2.4647   21.7656 C.ar    1  UNL1        0.0045
     14 C           5.3720   -4.1451   20.0434 C.2     1  UNL1        0.2427
     15 N           6.8111   -4.0227   20.4484 N.am    1  UNL1       -0.3253
     16 O           4.9040   -5.3580   19.2952 O.2     1  UNL1       -0.2704
     17 H           7.1182   -3.2266   20.9395 H       1  UNL1        0.1453
     18 H           7.4484   -4.7385   20.2232 H       1  UNL1        0.1453
     19 C           3.8705    3.5365   27.7075 C.3     1  UNL1        0.1152
     20 N           4.3041    2.1228   27.9602 N.am    1  UNL1       -0.2729
     21 C           5.6563    1.8468   28.5480 C.2     1  UNL1        0.2462
     22 O           6.5748    2.9844   28.8831 O.2     1  UNL1       -0.2730
     23 C           6.0898    0.4333   28.8007 C.3     1  UNL1        0.1780
     24 N           5.9344   -0.1660   30.1670 N.pl3   1  UNL1       -0.2868
     25 C           6.2935   -1.6036   30.4006 C.ar    1  UNL1        0.0498
     26 C           6.7622   -2.0491   31.7540 C.ar    1  UNL1        0.0155
     27 C           7.1213   -3.4866   31.9876 C.ar    1  UNL1        0.0135
     28 C           7.0116   -4.4786   30.8678 C.ar    1  UNL1        0.0683
     29 CL          7.3707   -5.9162   31.1015 Cl      1  UNL1       -0.0814
     30 C           6.5429   -4.0331   29.5144 C.ar    1  UNL1        0.0694
     31 CL          6.4333   -5.0251   28.3946 Cl      1  UNL1       -0.0813
     32 C           6.1839   -2.5956   29.2808 C.ar    1  UNL1        0.0268
     33 C           5.4199    0.6721   31.2995 C.3     1  UNL1        0.1986
     34 C           4.0388    0.4402   31.8371 C.1     1  UNL1        0.0954
     35 N           2.6578    0.2083   32.3747 N.1     1  UNL1       -0.1941
     36 C           2.4581    0.4377   28.6691 C.3     1  UNL1        0.0967
     37 N           0.9752    0.6037   28.5165 N.3     1  UNL1       -0.2710
     38 C           0.2824    1.7292   27.8070 C.3     1  UNL1        0.0722
     39 C          -1.1962    1.4945   27.8985 C.3     1  UNL1        0.0188
     40 C          -1.4174    0.2239   28.6646 C.3     1  UNL1        0.0188
     41 C          -0.0754   -0.3266   29.0465 C.3     1  UNL1        0.0722
@<TRIPOS>BOND
     1    19    20    1
     2    20    21   am
     3    21    22    2
     4    21    23    1
     5    23    24    1
     6    24    33    1
     7    33    34    1
     8    34    35    3
     9    24    25    1
    10    25    26   ar
    11    26    27   ar
    12    27    28   ar
    13    28    29    1
    14    28    30   ar
    15    30    31    1
    16    30    32   ar
    17    20     1    1
    18     1    36    1
    19    36    37    1
    20    37    38    1
    21    38    39    1
    22    39    40    1
    23    40    41    1
    24     1     2    1
    25     2     3   ar
    26     3     4   ar
    27     4     5   ar
    28     5     8    1
    29     8     9   ar
    30     9    10   ar
    31    10    11   ar
    32    11    12   ar
    33    12    14    1
    34    14    15   am
    35    14    16    2
    36    12    13   ar
    37     5     6   ar
    38     6     7   ar
    39    32    25   ar
    40    41    37    1
    41     7     2   ar
    42    13     8   ar
    43    15    17    1
    44    15    18    1
@<TRIPOS>MOLECULE
*****
 41 44 0 0 0
SMALL
GASTEIGER

@<TRIPOS>ATOM
      1 C           4.0267   -1.9962   20.4301 C.3     1  UNL1        0.1139
      2 C           4.6607   -2.4594   21.7082 C.ar    1  UNL1       -0.0029
      3 C           5.7813   -3.4558   21.6715 C.ar    1  UNL1       -0.0026
      4 C           6.4153   -3.9189   22.9496 C.ar    1  UNL1       -0.0003
      5 C           5.9288   -3.3856   24.2644 C.ar    1  UNL1       -0.0000
      6 C           4.8081   -2.3891   24.3012 C.ar    1  UNL1       -0.0003
      7 C           4.1741   -1.9260   23.0231 C.ar    1  UNL1       -0.0026
      8 C           6.5628   -3.8488   25.5425 C.ar    1  UNL1        0.0001
      9 C           6.8944   -2.8568   26.6177 C.ar    1  UNL1        0.0000
     10 C           7.5284   -3.3200   27.8958 C.ar    1  UNL1        0.0001
     11 C           7.8308   -4.7750   28.0987 C.ar    1  UNL1        0.0045
     12 C           7.4993   -5.7671   27.0235 C.ar    1  UNL1        0.0531
     13 C           6.8652   -5.3039   25.7454 C.ar    1  UNL1        0.0045
     14 C           7.8017   -7.2221   27.2264 C.2     1  UNL1        0.2427
     15 N           6.9615   -8.2643   26.5497 N.am    1  UNL1       -0.3253
     16 O           8.9444   -7.6350   28.1060 O.2     1  UNL1       -0.2704
     17 H           6.2115   -7.9933   25.9724 H       1  UNL1        0.1453
     18 H           7.1600   -9.2194   26.6829 H       1  UNL1        0.1453
     19 C           4.3806   -3.4513   18.3070 C.3     1  UNL1        0.1152
     20 N           4.7170   -2.2366   19.1203 N.am    1  UNL1       -0.2729
     21 C           5.7439   -1.2624   18.6238 C.2     1  UNL1        0.2462
     22 O           6.4342   -1.5028   17.3140 O.2     1  UNL1       -0.2730
     23 C           6.0804   -0.0478   19.4371 C.3     1  UNL1        0.1780
     24 N           7.2747   -0.0600   20.3445 N.pl3   1  UNL1       -0.2868
     25 C           7.1049    0.2046   21.8113 C.ar    1  UNL1        0.0498
     26 C           7.9802   -0.4980   22.8064 C.ar    1  UNL1        0.0155
     27 C           7.8104   -0.2333   24.2730 C.ar    1  UNL1        0.0135
     28 C           6.7654    0.7340   24.7445 C.ar    1  UNL1        0.0683
     29 CL          6.5957    0.9987   26.2113 Cl      1  UNL1       -0.0814
     30 C           5.8902    1.4366   23.7494 C.ar    1  UNL1        0.0694
     31 CL          4.8451    2.4039   24.2210 Cl      1  UNL1       -0.0813
     32 C           6.0599    1.1719   22.2828 C.ar    1  UNL1        0.0268
     33 C           8.6387   -0.3369   19.7853 C.3     1  UNL1        0.1986
     34 C           9.0872   -1.7518   19.5681 C.1     1  UNL1        0.0954
     35 N           9.5358   -3.1665   19.3509 N.1     1  UNL1       -0.1941
     36 C           2.7022   -1.2927   20.4619 C.3     1  UNL1        0.0967
     37 N           2.5885    0.1151   19.9568 N.3     1  UNL1       -0.2710
     38 C           2.8412    1.3607   20.7534 C.3     1  UNL1        0.0722
     39 C           2.6110    2.5399   19.8554 C.3     1  UNL1        0.0188
     40 C           2.2161    2.0231   18.5037 C.3     1  UNL1        0.0188
     41 C           2.2022    0.5245   18.5664 C.3     1  UNL1        0.0722
@<TRIPOS>BOND
     1    19    20    1
     2    20    21   am
     3    21    22    2
     4    21    23    1
     5    23    24    1
     6    24    33    1
     7    33    34    1
     8    34    35    3
     9    24    25    1
    10    25    26   ar
    11    26    27   ar
    12    27    28   ar
    13    28    29    1
    14    28    30   ar
    15    30    31    1
    16    30    32   ar
    17    20     1    1
    18     1    36    1
    19    36    37    1
    20    37    38    1
    21    38    39    1
    22    39    40    1
    23    40    41    1
    24     1     2    1
    25     2     3   ar
    26     3     4   ar
    27     4     5   ar
    28     5     8    1
    29     8     9   ar
    30     9    10   ar
    31    10    11   ar
    32    11    12   ar
    33    12    14    1
    34    14    15   am
    35    14    16    2
    36    12    13   ar
    37     5     6   ar
    38     6     7   ar
    39    32    25   ar
    40    41    37    1
    41     7     2   ar
    42    13     8   ar
    43    15    17    1
    44    15    18    1
