@<TRIPOS>MOLECULE
*****
 43 46 0 0 0
SMALL
GASTEIGER

@<TRIPOS>ATOM
      1 C           7.1598   -5.7338   29.4335 C.3     1  UNL1        0.1035
      2 C           7.1919   -4.2470   29.2380 C.3     1  UNL1        0.0933
      3 N           7.1735   -4.0510   30.7250 N.3     1  UNL1       -0.2711
      4 C           7.1414   -5.5379   30.9205 C.3     1  UNL1        0.0933
      5 C           7.1832   -2.8611   31.6382 C.3     1  UNL1        0.0578
      6 C           8.3886   -1.9703   31.6967 C.3     1  UNL1        0.0187
      7 C           8.3982   -0.7803   32.6100 C.3     1  UNL1        0.0326
      8 C           7.2025   -0.4813   33.4647 C.3     1  UNL1        0.1085
      9 O           8.1009    0.6498   33.8688 O.3     1  UNL1       -0.3826
     10 C           5.9970   -1.3721   33.4063 C.3     1  UNL1        0.0326
     11 C           5.9874   -2.5620   32.4931 C.3     1  UNL1        0.0187
     12 H           8.9383    0.5869   33.3832 H       1  UNL1        0.2107
     13 C           6.3187    0.2106   34.4599 C.ar    1  UNL1        0.0211
     14 C           5.8901   -0.5045   35.7069 C.ar    1  UNL1        0.0043
     15 C           5.0064    0.1874   36.7020 C.ar    1  UNL1        0.0575
     16 C           4.5513    1.5944   36.4501 C.ar    1  UNL1        0.2251
     17 N           4.9798    2.3094   35.2032 N.ar    1  UNL1       -0.2104
     18 C           5.8636    1.6176   34.2080 C.ar    1  UNL1        0.1000
     19 O           3.6675    2.2862   37.4453 O.3     1  UNL1       -0.4509
     20 C           3.2305    1.5676   38.6873 C.3     1  UNL1        0.3095
     21 C           1.7750    1.5041   39.0443 C.3     1  UNL1        0.4381
     22 F           0.3195    1.4406   39.4013 F       1  UNL1       -0.1663
     23 F           1.7151    0.0895   38.5489 F       1  UNL1       -0.1663
     24 F           1.8348    2.9186   39.5397 F       1  UNL1       -0.1663
     25 O           9.3603   -7.7665   29.5948 O.2     1  UNL1       -0.2733
     26 C           8.2504   -7.9401   28.6009 C.2     1  UNL1        0.2426
     27 N           7.1502   -6.9237   28.5202 N.am    1  UNL1       -0.3018
     28 H           6.4217   -7.0376   27.8678 H       1  UNL1        0.1495
     29 C           8.2407   -9.1299   27.6876 C.3     1  UNL1        0.1759
     30 N           6.9919   -9.9463   27.5326 N.am    1  UNL1       -0.2931
     31 C           6.9899  -11.3951   27.9210 C.2     1  UNL1        0.2462
     32 O           8.2368  -12.0276   28.4644 O.2     1  UNL1       -0.2701
     33 H           6.1735   -9.5312   27.1760 H       1  UNL1        0.1502
     34 C           5.7411  -12.2115   27.7661 C.ar    1  UNL1        0.0533
     35 C           5.5575  -13.0790   26.5563 C.ar    1  UNL1        0.0045
     36 C           4.3087  -13.8954   26.4014 C.ar    1  UNL1        0.0001
     37 C           3.2435  -13.8442   27.4563 C.ar    1  UNL1        0.0039
     38 C           3.4271  -12.9767   28.6661 C.ar    1  UNL1        0.0716
     39 C           4.6759  -12.1603   28.8210 C.ar    1  UNL1        0.0084
     40 C           2.3619  -12.9255   29.7210 C.3     1  UNL1        0.4186
     41 F           1.2968  -12.8743   30.7758 F       1  UNL1       -0.1659
     42 F           1.6789  -14.1016   29.0883 F       1  UNL1       -0.1659
     43 F           3.0450  -11.7494   30.3536 F       1  UNL1       -0.1659
@<TRIPOS>BOND
     1    25    26    2
     2    26    29    1
     3    29    30    1
     4    30    31   am
     5    31    32    2
     6    31    34    1
     7    34    35   ar
     8    35    36   ar
     9    36    37   ar
    10    37    38   ar
    11    38    40    1
    12    40    41    1
    13    40    42    1
    14    40    43    1
    15    38    39   ar
    16    26    27   am
    17    27     1    1
    18     1     2    1
    19     2     3    1
    20     5     3    1
    21     5     6    1
    22     6     7    1
    23     7     8    1
    24     8     9    1
    25     8    13    1
    26    13    14   ar
    27    14    15   ar
    28    15    16   ar
    29    16    19    1
    30    19    20    1
    31    20    21    1
    32    21    22    1
    33    21    23    1
    34    21    24    1
    35    16    17   ar
    36    17    18   ar
    37     8    10    1
    38    10    11    1
    39     3     4    1
    40    39    34   ar
    41     4     1    1
    42    11     5    1
    43    18    13   ar
    44    30    33    1
    45    27    28    1
    46     9    12    1
@<TRIPOS>MOLECULE
*****
 43 46 0 0 0
SMALL
GASTEIGER

@<TRIPOS>ATOM
      1 C           2.8791    0.0411   26.7586 C.3     1  UNL1        0.1035
      2 C           2.4914   -0.8112   27.9304 C.3     1  UNL1        0.0933
      3 N           3.4380   -0.0417   28.8033 N.3     1  UNL1       -0.2711
      4 C           3.8258    0.8106   27.6314 C.3     1  UNL1        0.0933
      5 C           3.8332   -0.1003   30.2491 C.3     1  UNL1        0.0578
      6 C           4.9323   -1.0211   30.6895 C.3     1  UNL1        0.0187
      7 C           5.3275   -1.0797   32.1353 C.3     1  UNL1        0.0326
      8 C           4.6235   -0.2174   33.1407 C.3     1  UNL1        0.1085
      9 O           5.5954   -0.9240   34.0386 O.3     1  UNL1       -0.3826
     10 C           3.5244    0.7034   32.7004 C.3     1  UNL1        0.0326
     11 C           3.1292    0.7620   31.2546 C.3     1  UNL1        0.0187
     12 H           6.1362   -1.5342   33.5131 H       1  UNL1        0.2107
     13 C           4.2571    0.3995   34.4580 C.ar    1  UNL1        0.0211
     14 C           4.7453   -0.2158   35.7360 C.ar    1  UNL1        0.0043
     15 C           4.3789    0.4011   37.0532 C.ar    1  UNL1        0.0575
     16 C           3.5242    1.6332   37.0925 C.ar    1  UNL1        0.2251
     17 N           3.0360    2.2484   35.8146 N.ar    1  UNL1       -0.2104
     18 C           3.4024    1.6316   34.4973 C.ar    1  UNL1        0.1000
     19 O           3.1578    2.2500   38.4098 O.3     1  UNL1       -0.4509
     20 C           1.7976    2.0138   38.9962 C.3     1  UNL1        0.3095
     21 C           1.3680    0.6229   39.3580 C.3     1  UNL1        0.4381
     22 F           0.9385   -0.7680   39.7199 F       1  UNL1       -0.1663
     23 F          -0.0117    0.9162   38.8477 F       1  UNL1       -0.1663
     24 F           2.7476    0.3296   39.8683 F       1  UNL1       -0.1663
     25 O           0.7450    1.9500   25.8629 O.2     1  UNL1       -0.2733
     26 C           1.4169    1.0541   24.8649 C.2     1  UNL1        0.2426
     27 N           2.4839    0.0997   25.3127 N.am    1  UNL1       -0.3018
     28 H           2.9248   -0.4883   24.6577 H       1  UNL1        0.1495
     29 C           1.0217    1.1126   23.4191 C.3     1  UNL1        0.1759
     30 N           1.9640    0.6151   22.3633 N.am    1  UNL1       -0.2931
     31 C           1.4311    0.1557   21.0386 C.2     1  UNL1        0.2462
     32 O          -0.0441    0.1937   20.7696 O.2     1  UNL1       -0.2701
     33 H           2.9322    0.5902   22.5398 H       1  UNL1        0.1502
     34 C           2.3734   -0.3418   19.9828 C.ar    1  UNL1        0.0533
     35 C           2.8893    0.5989   18.9345 C.ar    1  UNL1        0.0045
     36 C           3.8315    0.1014   17.8787 C.ar    1  UNL1        0.0001
     37 C           4.2579   -1.3367   17.8713 C.ar    1  UNL1        0.0039
     38 C           3.7420   -2.2773   18.9196 C.ar    1  UNL1        0.0716
     39 C           2.7998   -1.7799   19.9753 C.ar    1  UNL1        0.0084
     40 C           4.1684   -3.7154   18.9122 C.3     1  UNL1        0.4186
     41 F           4.5947   -5.1536   18.9047 F       1  UNL1       -0.1659
     42 F           5.5844   -3.2943   18.6524 F       1  UNL1       -0.1659
     43 F           2.7523   -4.1366   19.1719 F       1  UNL1       -0.1659
@<TRIPOS>BOND
     1    25    26    2
     2    26    29    1
     3    29    30    1
     4    30    31   am
     5    31    32    2
     6    31    34    1
     7    34    35   ar
     8    35    36   ar
     9    36    37   ar
    10    37    38   ar
    11    38    40    1
    12    40    41    1
    13    40    42    1
    14    40    43    1
    15    38    39   ar
    16    26    27   am
    17    27     1    1
    18     1     2    1
    19     2     3    1
    20     5     3    1
    21     5     6    1
    22     6     7    1
    23     7     8    1
    24     8     9    1
    25     8    13    1
    26    13    14   ar
    27    14    15   ar
    28    15    16   ar
    29    16    19    1
    30    19    20    1
    31    20    21    1
    32    21    22    1
    33    21    23    1
    34    21    24    1
    35    16    17   ar
    36    17    18   ar
    37     8    10    1
    38    10    11    1
    39     3     4    1
    40    39    34   ar
    41     4     1    1
    42    11     5    1
    43    18    13   ar
    44    30    33    1
    45    27    28    1
    46     9    12    1
@<TRIPOS>MOLECULE
*****
 43 46 0 0 0
SMALL
GASTEIGER

@<TRIPOS>ATOM
      1 C           6.4463   -3.8455   24.6845 C.3     1  UNL1        0.1035
      2 C           6.1137   -2.7967   25.7040 C.3     1  UNL1        0.0933
      3 N           6.4708   -3.7525   26.8036 N.3     1  UNL1       -0.2711
      4 C           6.8033   -4.8012   25.7840 C.3     1  UNL1        0.0933
      5 C           6.4881   -3.6867   28.3020 C.3     1  UNL1        0.0578
      6 C           6.8333   -4.9075   29.1024 C.3     1  UNL1        0.0187
      7 C           6.8506   -4.8417   30.6009 C.3     1  UNL1        0.0326
      8 C           6.5227   -3.5552   31.2990 C.3     1  UNL1        0.1085
      9 O           6.7858   -4.4353   32.4848 O.3     1  UNL1       -0.3826
     10 C           6.1775   -2.3345   30.4986 C.3     1  UNL1        0.0326
     11 C           6.1602   -2.4002   29.0002 C.3     1  UNL1        0.0187
     12 H           7.0172   -5.3269   32.1807 H       1  UNL1        0.2107
     13 C           6.2862   -2.5743   32.4089 C.ar    1  UNL1        0.0211
     14 C           7.3841   -1.6456   32.8356 C.ar    1  UNL1        0.0043
     15 C           7.1475   -0.6647   33.9455 C.ar    1  UNL1        0.0575
     16 C           5.8131   -0.6126   34.6287 C.ar    1  UNL1        0.2251
     17 N           4.7153   -1.5413   34.2020 N.ar    1  UNL1       -0.2104
     18 C           4.9517   -2.5222   33.0921 C.ar    1  UNL1        0.1000
     19 O           5.5767    0.3683   35.7386 O.3     1  UNL1       -0.4509
     20 C           4.4365    0.1626   36.6913 C.3     1  UNL1        0.3095
     21 C           4.3150    1.0242   37.9130 C.3     1  UNL1        0.4381
     22 F           4.1935    1.8859   39.1348 F       1  UNL1       -0.1663
     23 F           5.7504    1.4343   37.7666 F       1  UNL1       -0.1663
     24 F           2.8796    0.6142   38.0595 F       1  UNL1       -0.1663
     25 O           9.0180   -4.1266   23.1654 O.2     1  UNL1       -0.2733
     26 C           7.7148   -4.0517   22.4265 C.2     1  UNL1        0.2426
     27 N           6.4289   -3.9112   23.1859 N.am    1  UNL1       -0.3018
     28 H           5.5736   -3.8620   22.7009 H       1  UNL1        0.1495
     29 C           7.6974   -4.1174   20.9280 C.3     1  UNL1        0.1759
     30 N           6.9123   -3.1093   20.1422 N.am    1  UNL1       -0.2931
     31 C           5.4210   -3.2344   20.0399 C.2     1  UNL1        0.2462
     32 O           4.7148   -4.3675   20.7235 O.2     1  UNL1       -0.2701
     33 H           7.3758   -2.3657   19.6935 H       1  UNL1        0.1502
     34 C           4.6360   -2.2263   19.2540 C.ar    1  UNL1        0.0533
     35 C           5.1475   -1.7453   17.9286 C.ar    1  UNL1        0.0045
     36 C           4.3624   -0.7373   17.1428 C.ar    1  UNL1        0.0001
     37 C           3.0658   -0.2103   17.6824 C.ar    1  UNL1        0.0039
     38 C           2.5543   -0.6914   19.0079 C.ar    1  UNL1        0.0716
     39 C           3.3394   -1.6994   19.7937 C.ar    1  UNL1        0.0084
     40 C           1.2577   -0.1645   19.5475 C.3     1  UNL1        0.4186
     41 F          -0.0389    0.3624   20.0872 F       1  UNL1       -0.1659
     42 F           1.0237    0.5748   18.2635 F       1  UNL1       -0.1659
     43 F           1.4917   -0.9037   20.8316 F       1  UNL1       -0.1659
@<TRIPOS>BOND
     1    25    26    2
     2    26    29    1
     3    29    30    1
     4    30    31   am
     5    31    32    2
     6    31    34    1
     7    34    35   ar
     8    35    36   ar
     9    36    37   ar
    10    37    38   ar
    11    38    40    1
    12    40    41    1
    13    40    42    1
    14    40    43    1
    15    38    39   ar
    16    26    27   am
    17    27     1    1
    18     1     2    1
    19     2     3    1
    20     5     3    1
    21     5     6    1
    22     6     7    1
    23     7     8    1
    24     8     9    1
    25     8    13    1
    26    13    14   ar
    27    14    15   ar
    28    15    16   ar
    29    16    19    1
    30    19    20    1
    31    20    21    1
    32    21    22    1
    33    21    23    1
    34    21    24    1
    35    16    17   ar
    36    17    18   ar
    37     8    10    1
    38    10    11    1
    39     3     4    1
    40    39    34   ar
    41     4     1    1
    42    11     5    1
    43    18    13   ar
    44    30    33    1
    45    27    28    1
    46     9    12    1
@<TRIPOS>MOLECULE
*****
 43 46 0 0 0
SMALL
GASTEIGER

@<TRIPOS>ATOM
      1 C           1.0031    1.5636   26.7666 C.3     1  UNL1        0.1035
      2 C           2.0618    2.1865   27.6275 C.3     1  UNL1        0.0933
      3 N           1.0446    2.4288   28.7030 N.3     1  UNL1       -0.2711
      4 C          -0.0141    1.8059   27.8421 C.3     1  UNL1        0.0933
      5 C           1.0739    3.0405   30.0723 C.3     1  UNL1        0.0578
      6 C           0.5902    4.4456   30.2765 C.3     1  UNL1        0.0187
      7 C           0.6196    5.0573   31.6458 C.3     1  UNL1        0.0326
      8 C           1.1327    4.2640   32.8108 C.3     1  UNL1        0.1085
      9 O           0.7853    5.5484   33.5032 O.3     1  UNL1       -0.3826
     10 C           1.6164    2.8589   32.6066 C.3     1  UNL1        0.0326
     11 C           1.5870    2.2471   31.2374 C.3     1  UNL1        0.0187
     12 H           0.4301    6.1784   32.8567 H       1  UNL1        0.2107
     13 C           1.5251    3.9167   34.2163 C.ar    1  UNL1        0.0211
     14 C           1.2583    4.8849   35.3305 C.ar    1  UNL1        0.0043
     15 C           1.6507    4.5376   36.7360 C.ar    1  UNL1        0.0575
     16 C           2.3099    3.2221   37.0273 C.ar    1  UNL1        0.2251
     17 N           2.5766    2.2539   35.9132 N.ar    1  UNL1       -0.2104
     18 C           2.1843    2.6011   34.5076 C.ar    1  UNL1        0.1000
     19 O           2.7023    2.8748   38.4328 O.3     1  UNL1       -0.4509
     20 C           1.6677    2.3811   39.4001 C.3     1  UNL1        0.3095
     21 C           1.2362    0.9449   39.3687 C.3     1  UNL1        0.4381
     22 F           0.8048   -0.4914   39.3373 F       1  UNL1       -0.1663
     23 F          -0.1860    1.3765   39.1660 F       1  UNL1       -0.1663
     24 F           2.6584    0.5132   39.5714 F       1  UNL1       -0.1663
     25 O           0.0909    3.1898   24.4163 O.2     1  UNL1       -0.2733
     26 C           0.5177    1.7649   24.2222 C.2     1  UNL1        0.2426
     27 N           0.9738    0.9519   25.3973 N.am    1  UNL1       -0.3018
     28 H           1.2539    0.0167   25.2698 H       1  UNL1        0.1495
     29 C           0.4884    1.1532   22.8529 C.3     1  UNL1        0.1759
     30 N           1.7574    0.6561   22.2263 N.am    1  UNL1       -0.2931
     31 C           1.7142   -0.0491   20.9031 C.2     1  UNL1        0.2462
     32 O           0.4022   -0.2572   20.2065 O.2     1  UNL1       -0.2701
     33 H           2.6185    0.7926   22.6834 H       1  UNL1        0.1502
     34 C           2.9832   -0.5462   20.2764 C.ar    1  UNL1        0.0533
     35 C           4.1299    0.3954   20.0561 C.ar    1  UNL1        0.0045
     36 C           5.3987   -0.1018   19.4295 C.ar    1  UNL1        0.0001
     37 C           5.5210   -1.5405   19.0231 C.ar    1  UNL1        0.0039
     38 C           4.3743   -2.4821   19.2434 C.ar    1  UNL1        0.0716
     39 C           3.1055   -1.9850   19.8701 C.ar    1  UNL1        0.0084
     40 C           4.4966   -3.9208   18.8371 C.3     1  UNL1        0.4186
     41 F           4.6188   -5.3596   18.4307 F       1  UNL1       -0.1659
     42 F           5.5882   -3.5564   17.8750 F       1  UNL1       -0.1659
     43 F           3.4050   -4.2853   19.7992 F       1  UNL1       -0.1659
@<TRIPOS>BOND
     1    25    26    2
     2    26    29    1
     3    29    30    1
     4    30    31   am
     5    31    32    2
     6    31    34    1
     7    34    35   ar
     8    35    36   ar
     9    36    37   ar
    10    37    38   ar
    11    38    40    1
    12    40    41    1
    13    40    42    1
    14    40    43    1
    15    38    39   ar
    16    26    27   am
    17    27     1    1
    18     1     2    1
    19     2     3    1
    20     5     3    1
    21     5     6    1
    22     6     7    1
    23     7     8    1
    24     8     9    1
    25     8    13    1
    26    13    14   ar
    27    14    15   ar
    28    15    16   ar
    29    16    19    1
    30    19    20    1
    31    20    21    1
    32    21    22    1
    33    21    23    1
    34    21    24    1
    35    16    17   ar
    36    17    18   ar
    37     8    10    1
    38    10    11    1
    39     3     4    1
    40    39    34   ar
    41     4     1    1
    42    11     5    1
    43    18    13   ar
    44    30    33    1
    45    27    28    1
    46     9    12    1
@<TRIPOS>MOLECULE
*****
 43 46 0 0 0
SMALL
GASTEIGER

@<TRIPOS>ATOM
      1 C          -3.2076    3.4299   21.3772 C.3     1  UNL1        0.1035
      2 C          -4.5064    2.8674   21.8739 C.3     1  UNL1        0.0933
      3 N          -4.8313    4.1839   22.5152 N.3     1  UNL1       -0.2711
      4 C          -3.5325    4.7464   22.0185 C.3     1  UNL1        0.0933
      5 C          -5.9793    4.7171   23.3200 C.3     1  UNL1        0.0578
      6 C          -5.7186    5.4735   24.5888 C.3     1  UNL1        0.0187
      7 C          -6.8667    6.0067   25.3935 C.3     1  UNL1        0.0326
      8 C          -8.2755    5.7835   24.9294 C.3     1  UNL1        0.1085
      9 O          -8.5354    6.5555   26.1889 O.3     1  UNL1       -0.3826
     10 C          -8.5363    5.0272   23.6606 C.3     1  UNL1        0.0326
     11 C          -7.3882    4.4940   22.8559 C.3     1  UNL1        0.0187
     12 H          -7.6913    6.7771   26.6123 H       1  UNL1        0.2107
     13 C          -9.7746    5.8285   24.9027 C.ar    1  UNL1        0.0211
     14 C         -10.5632    4.5524   24.8946 C.ar    1  UNL1        0.0043
     15 C         -12.0622    4.5974   24.8679 C.ar    1  UNL1        0.0575
     16 C         -12.7728    5.9183   24.8493 C.ar    1  UNL1        0.2251
     17 N         -11.9843    7.1942   24.8575 N.ar    1  UNL1       -0.2104
     18 C         -10.4852    7.1494   24.8842 C.ar    1  UNL1        0.1000
     19 O         -14.2719    5.9631   24.8226 O.3     1  UNL1       -0.4509
     20 C         -15.0604    4.6872   24.8127 C.3     1  UNL1        0.3095
     21 C         -15.8246    4.2873   23.5856 C.3     1  UNL1        0.4381
     22 F         -16.5888    3.8873   22.3583 F       1  UNL1       -0.1663
     23 F         -17.0360    4.0171   24.4279 F       1  UNL1       -0.1663
     24 F         -14.6133    4.5574   22.7431 F       1  UNL1       -0.1663
     25 O          -0.5989    2.8018   22.7189 O.2     1  UNL1       -0.2733
     26 C          -0.7552    2.5826   21.2433 C.2     1  UNL1        0.2426
     27 N          -2.0595    2.8966   20.5724 N.am    1  UNL1       -0.3018
     28 H          -2.1621    2.7527   19.6039 H       1  UNL1        0.1495
     29 C           0.3928    2.0494   20.4385 C.3     1  UNL1        0.1759
     30 N           1.1833    0.8790   20.9438 N.am    1  UNL1       -0.2931
     31 C           2.0393    0.0882   19.9994 C.2     1  UNL1        0.2462
     32 O           2.1048    0.4677   18.5497 O.2     1  UNL1       -0.2701
     33 H           1.1404    0.6298   21.8953 H       1  UNL1        0.1502
     34 C           2.8299   -1.0822   20.5047 C.ar    1  UNL1        0.0533
     35 C           3.2627   -1.1314   21.9400 C.ar    1  UNL1        0.0045
     36 C           4.0532   -2.3018   22.4453 C.ar    1  UNL1        0.0001
     37 C           4.4109   -3.4230   21.5152 C.ar    1  UNL1        0.0039
     38 C           3.9780   -3.3738   20.0799 C.ar    1  UNL1        0.0716
     39 C           3.1875   -2.2034   19.5746 C.ar    1  UNL1        0.0084
     40 C           4.3357   -4.4949   19.1498 C.3     1  UNL1        0.4186
     41 F           4.6933   -5.6161   18.2197 F       1  UNL1       -0.1659
     42 F           5.3895   -3.6346   18.5179 F       1  UNL1       -0.1659
     43 F           3.2819   -5.3553   19.7817 F       1  UNL1       -0.1659
@<TRIPOS>BOND
     1    25    26    2
     2    26    29    1
     3    29    30    1
     4    30    31   am
     5    31    32    2
     6    31    34    1
     7    34    35   ar
     8    35    36   ar
     9    36    37   ar
    10    37    38   ar
    11    38    40    1
    12    40    41    1
    13    40    42    1
    14    40    43    1
    15    38    39   ar
    16    26    27   am
    17    27     1    1
    18     1     2    1
    19     2     3    1
    20     5     3    1
    21     5     6    1
    22     6     7    1
    23     7     8    1
    24     8     9    1
    25     8    13    1
    26    13    14   ar
    27    14    15   ar
    28    15    16   ar
    29    16    19    1
    30    19    20    1
    31    20    21    1
    32    21    22    1
    33    21    23    1
    34    21    24    1
    35    16    17   ar
    36    17    18   ar
    37     8    10    1
    38    10    11    1
    39     3     4    1
    40    39    34   ar
    41     4     1    1
    42    11     5    1
    43    18    13   ar
    44    30    33    1
    45    27    28    1
    46     9    12    1
@<TRIPOS>MOLECULE
*****
 43 46 0 0 0
SMALL
GASTEIGER

@<TRIPOS>ATOM
      1 C           7.1100   -4.7203   28.5393 C.3     1  UNL1        0.1035
      2 C           6.4001   -5.3897   27.4000 C.3     1  UNL1        0.0933
      3 N           7.3302   -4.7243   26.4294 N.3     1  UNL1       -0.2711
      4 C           8.0401   -4.0549   27.5687 C.3     1  UNL1        0.0933
      5 C           7.4859   -4.7270   24.9376 C.3     1  UNL1        0.0578
      6 C           8.2558   -5.8253   24.2659 C.3     1  UNL1        0.0187
      7 C           8.4114   -5.8280   22.7739 C.3     1  UNL1        0.0326
      8 C           7.7972   -4.7325   21.9538 C.3     1  UNL1        0.1085
      9 O           8.4301   -5.5487   20.8660 O.3     1  UNL1       -0.3826
     10 C           7.0273   -3.6343   22.6255 C.3     1  UNL1        0.0326
     11 C           6.8716   -3.6316   24.1173 C.3     1  UNL1        0.0187
     12 H           8.8788   -6.3151   21.2563 H       1  UNL1        0.2107
     13 C           7.4028   -3.9205   20.7558 C.ar    1  UNL1        0.0211
     14 C           5.9792   -3.9242   20.2829 C.ar    1  UNL1        0.0043
     15 C           5.5848   -3.1122   19.0850 C.ar    1  UNL1        0.0575
     16 C           6.6139   -2.2965   18.3599 C.ar    1  UNL1        0.2251
     17 N           8.0374   -2.2929   18.8328 N.ar    1  UNL1       -0.2104
     18 C           8.4319   -3.1049   20.0308 C.ar    1  UNL1        0.1000
     19 O           6.2194   -1.4846   17.1620 O.3     1  UNL1       -0.4509
     20 C           5.5852   -0.1376   17.3446 C.3     1  UNL1        0.3095
     21 C           4.0968   -0.0229   17.4911 C.3     1  UNL1        0.4381
     22 F           2.6084    0.0917   17.6375 F       1  UNL1       -0.1663
     23 F           4.2826    0.9396   18.6265 F       1  UNL1       -0.1663
     24 F           3.9110   -0.9854   16.3558 F       1  UNL1       -0.1663
     25 O           6.2671   -2.2132   29.9549 O.2     1  UNL1       -0.2733
     26 C           6.5328   -3.4641   30.7390 C.2     1  UNL1        0.2426
     27 N           6.9543   -4.7176   30.0312 N.am    1  UNL1       -0.3018
     28 H           7.1287   -5.5385   30.5459 H       1  UNL1        0.1495
     29 C           6.3771   -3.4614   32.2309 C.3     1  UNL1        0.1759
     30 N           6.0369   -2.1881   32.9472 N.am    1  UNL1       -0.2931
     31 C           4.6993   -2.0338   33.6082 C.2     1  UNL1        0.2462
     32 O           3.7019   -3.1528   33.5530 O.2     1  UNL1       -0.2701
     33 H           6.6915   -1.4536   32.9834 H       1  UNL1        0.1502
     34 C           4.3591   -0.7605   34.3245 C.ar    1  UNL1        0.0533
     35 C           4.8413   -0.5372   35.7272 C.ar    1  UNL1        0.0045
     36 C           4.5011    0.7361   36.4434 C.ar    1  UNL1        0.0001
     37 C           3.6786    1.7860   35.7570 C.ar    1  UNL1        0.0039
     38 C           3.1963    1.5627   34.3543 C.ar    1  UNL1        0.0716
     39 C           3.5366    0.2894   33.6381 C.ar    1  UNL1        0.0084
     40 C           2.3738    2.6126   33.6679 C.3     1  UNL1        0.4186
     41 F           1.5513    3.6625   32.9814 F       1  UNL1       -0.1659
     42 F           1.8215    3.0464   34.9933 F       1  UNL1       -0.1659
     43 F           2.9261    2.1787   32.3425 F       1  UNL1       -0.1659
@<TRIPOS>BOND
     1    25    26    2
     2    26    29    1
     3    29    30    1
     4    30    31   am
     5    31    32    2
     6    31    34    1
     7    34    35   ar
     8    35    36   ar
     9    36    37   ar
    10    37    38   ar
    11    38    40    1
    12    40    41    1
    13    40    42    1
    14    40    43    1
    15    38    39   ar
    16    26    27   am
    17    27     1    1
    18     1     2    1
    19     2     3    1
    20     5     3    1
    21     5     6    1
    22     6     7    1
    23     7     8    1
    24     8     9    1
    25     8    13    1
    26    13    14   ar
    27    14    15   ar
    28    15    16   ar
    29    16    19    1
    30    19    20    1
    31    20    21    1
    32    21    22    1
    33    21    23    1
    34    21    24    1
    35    16    17   ar
    36    17    18   ar
    37     8    10    1
    38    10    11    1
    39     3     4    1
    40    39    34   ar
    41     4     1    1
    42    11     5    1
    43    18    13   ar
    44    30    33    1
    45    27    28    1
    46     9    12    1
@<TRIPOS>MOLECULE
*****
 43 46 0 0 0
SMALL
GASTEIGER

@<TRIPOS>ATOM
      1 C          -0.5240    3.6676   19.9300 C.3     1  UNL1        0.1035
      2 C          -0.9369    4.7757   20.8528 C.3     1  UNL1        0.0933
      3 N          -2.0241    3.9059   21.4109 N.3     1  UNL1       -0.2711
      4 C          -1.6112    2.7977   20.4881 C.3     1  UNL1        0.0933
      5 C          -3.0848    4.0743   22.4580 C.3     1  UNL1        0.0578
      6 C          -2.8385    3.5975   23.8586 C.3     1  UNL1        0.0187
      7 C          -3.8993    3.7660   24.9058 C.3     1  UNL1        0.0326
      8 C          -5.2063    4.4114   24.5522 C.3     1  UNL1        0.1085
      9 O          -5.4424    4.1239   26.0053 O.3     1  UNL1       -0.3826
     10 C          -5.4527    4.8882   23.1515 C.3     1  UNL1        0.0326
     11 C          -4.3919    4.7198   22.1044 C.3     1  UNL1        0.0187
     12 H          -4.6587    3.6933   26.3812 H       1  UNL1        0.2107
     13 C          -6.5954    4.9569   24.7032 C.ar    1  UNL1        0.0211
     14 C          -6.8758    6.0233   25.7202 C.ar    1  UNL1        0.0043
     15 C          -8.2649    6.5689   25.8713 C.ar    1  UNL1        0.0575
     16 C          -9.3735    6.0481   25.0054 C.ar    1  UNL1        0.2251
     17 N          -9.0931    4.9818   23.9885 N.ar    1  UNL1       -0.2104
     18 C          -7.7040    4.4361   23.8373 C.ar    1  UNL1        0.1000
     19 O         -10.7625    6.5937   25.1565 O.3     1  UNL1       -0.4509
     20 C         -11.8794    6.0443   24.3195 C.3     1  UNL1        0.3095
     21 C         -12.9478    5.2032   24.9530 C.3     1  UNL1        0.4381
     22 F         -14.0161    4.3623   25.5865 F       1  UNL1       -0.1663
     23 F         -12.0103    4.0326   24.9798 F       1  UNL1       -0.1663
     24 F         -13.8852    6.3739   24.9262 F       1  UNL1       -0.1663
     25 O           2.3727    3.7042   20.7097 O.2     1  UNL1       -0.2733
     26 C           1.9851    3.5174   19.2727 C.2     1  UNL1        0.2426
     27 N           0.5368    3.4991   18.8829 N.am    1  UNL1       -0.3018
     28 H           0.2824    3.3765   17.9397 H       1  UNL1        0.1495
     29 C           3.0458    3.3490   18.2256 C.3     1  UNL1        0.1759
     30 N           3.9349    2.1410   18.2461 N.am    1  UNL1       -0.2931
     31 C           3.3336    0.7669   18.2279 C.2     1  UNL1        0.2462
     32 O           1.8434    0.6007   18.1891 O.2     1  UNL1       -0.2701
     33 H           4.9130    2.2500   18.2715 H       1  UNL1        0.1502
     34 C           4.2227   -0.4411   18.2484 C.ar    1  UNL1        0.0533
     35 C           5.6364   -0.3404   17.7571 C.ar    1  UNL1        0.0045
     36 C           6.5253   -1.5484   17.7776 C.ar    1  UNL1        0.0001
     37 C           6.0007   -2.8571   18.2894 C.ar    1  UNL1        0.0039
     38 C           4.5870   -2.9578   18.7808 C.ar    1  UNL1        0.0716
     39 C           3.6981   -1.7499   18.7602 C.ar    1  UNL1        0.0084
     40 C           4.0624   -4.2665   19.2926 C.3     1  UNL1        0.4186
     41 F           3.5377   -5.5753   19.8044 F       1  UNL1       -0.1659
     42 F           4.6742   -4.9711   18.1182 F       1  UNL1       -0.1659
     43 F           3.4506   -3.5620   20.4670 F       1  UNL1       -0.1659
@<TRIPOS>BOND
     1    25    26    2
     2    26    29    1
     3    29    30    1
     4    30    31   am
     5    31    32    2
     6    31    34    1
     7    34    35   ar
     8    35    36   ar
     9    36    37   ar
    10    37    38   ar
    11    38    40    1
    12    40    41    1
    13    40    42    1
    14    40    43    1
    15    38    39   ar
    16    26    27   am
    17    27     1    1
    18     1     2    1
    19     2     3    1
    20     5     3    1
    21     5     6    1
    22     6     7    1
    23     7     8    1
    24     8     9    1
    25     8    13    1
    26    13    14   ar
    27    14    15   ar
    28    15    16   ar
    29    16    19    1
    30    19    20    1
    31    20    21    1
    32    21    22    1
    33    21    23    1
    34    21    24    1
    35    16    17   ar
    36    17    18   ar
    37     8    10    1
    38    10    11    1
    39     3     4    1
    40    39    34   ar
    41     4     1    1
    42    11     5    1
    43    18    13   ar
    44    30    33    1
    45    27    28    1
    46     9    12    1
@<TRIPOS>MOLECULE
*****
 43 46 0 0 0
SMALL
GASTEIGER

@<TRIPOS>ATOM
      1 C           6.6926   -3.8108   27.7323 C.3     1  UNL1        0.1035
      2 C           6.7617   -2.3864   28.1974 C.3     1  UNL1        0.0933
      3 N           6.6915   -2.8484   29.6227 N.3     1  UNL1       -0.2711
      4 C           6.6224   -4.2728   29.1576 C.3     1  UNL1        0.0933
      5 C           6.6908   -2.1679   30.9595 C.3     1  UNL1        0.0578
      6 C           7.9679   -2.0376   31.7354 C.3     1  UNL1        0.0187
      7 C           7.9671   -1.3571   33.0722 C.3     1  UNL1        0.0326
      8 C           6.6893   -0.8069   33.6330 C.3     1  UNL1        0.1085
      9 O           7.6368   -0.4415   34.7368 O.3     1  UNL1       -0.3826
     10 C           5.4122   -0.9373   32.8570 C.3     1  UNL1        0.0326
     11 C           5.4129   -1.6177   31.5203 C.3     1  UNL1        0.0187
     12 H           8.5303   -0.7426   34.5089 H       1  UNL1        0.2107
     13 C           5.7405   -0.1298   34.5772 C.ar    1  UNL1        0.0211
     14 C           4.7631    0.8836   34.0597 C.ar    1  UNL1        0.0043
     15 C           3.8144    1.5607   35.0039 C.ar    1  UNL1        0.0575
     16 C           3.8430    1.2243   36.4654 C.ar    1  UNL1        0.2251
     17 N           4.8203    0.2110   36.9828 N.ar    1  UNL1       -0.2104
     18 C           5.7692   -0.4662   36.0387 C.ar    1  UNL1        0.1000
     19 O           2.8942    1.9015   37.4095 O.3     1  UNL1       -0.4509
     20 C           2.2581    1.1213   38.5215 C.3     1  UNL1        0.3095
     21 C           1.0499    1.6659   39.2242 C.3     1  UNL1        0.4381
     22 F          -0.1582    2.2106   39.9268 F       1  UNL1       -0.1663
     23 F           0.9127    0.3803   39.9848 F       1  UNL1       -0.1663
     24 F           1.1871    2.9515   38.4637 F       1  UNL1       -0.1663
     25 O           9.2883   -4.3787   26.3396 O.2     1  UNL1       -0.2733
     26 C           7.9912   -4.7752   25.6991 C.2     1  UNL1        0.2426
     27 N           6.6933   -4.4912   26.3954 N.am    1  UNL1       -0.3018
     28 H           5.8420   -4.7515   25.9751 H       1  UNL1        0.1495
     29 C           7.9919   -5.4556   24.3624 C.3     1  UNL1        0.1759
     30 N           7.2486   -4.8467   23.2104 N.am    1  UNL1       -0.2931
     31 C           7.9942   -4.4062   21.9856 C.2     1  UNL1        0.2462
     32 O           9.4829   -4.5746   21.9127 O.2     1  UNL1       -0.2701
     33 H           6.2715   -4.7362   23.2583 H       1  UNL1        0.1502
     34 C           7.2509   -3.7973   20.8337 C.ar    1  UNL1        0.0533
     35 C           7.8810   -2.6971   20.0321 C.ar    1  UNL1        0.0045
     36 C           7.1378   -2.0882   18.8803 C.ar    1  UNL1        0.0001
     37 C           5.7645   -2.5796   18.5299 C.ar    1  UNL1        0.0039
     38 C           5.1345   -3.6798   19.3315 C.ar    1  UNL1        0.0716
     39 C           5.8777   -4.2886   20.4834 C.ar    1  UNL1        0.0084
     40 C           3.7612   -4.1711   18.9812 C.3     1  UNL1        0.4186
     41 F           2.3879   -4.6625   18.6308 F       1  UNL1       -0.1659
     42 F           4.2940   -5.5673   18.8509 F       1  UNL1       -0.1659
     43 F           3.2284   -2.7750   19.1114 F       1  UNL1       -0.1659
@<TRIPOS>BOND
     1    25    26    2
     2    26    29    1
     3    29    30    1
     4    30    31   am
     5    31    32    2
     6    31    34    1
     7    34    35   ar
     8    35    36   ar
     9    36    37   ar
    10    37    38   ar
    11    38    40    1
    12    40    41    1
    13    40    42    1
    14    40    43    1
    15    38    39   ar
    16    26    27   am
    17    27     1    1
    18     1     2    1
    19     2     3    1
    20     5     3    1
    21     5     6    1
    22     6     7    1
    23     7     8    1
    24     8     9    1
    25     8    13    1
    26    13    14   ar
    27    14    15   ar
    28    15    16   ar
    29    16    19    1
    30    19    20    1
    31    20    21    1
    32    21    22    1
    33    21    23    1
    34    21    24    1
    35    16    17   ar
    36    17    18   ar
    37     8    10    1
    38    10    11    1
    39     3     4    1
    40    39    34   ar
    41     4     1    1
    42    11     5    1
    43    18    13   ar
    44    30    33    1
    45    27    28    1
    46     9    12    1
@<TRIPOS>MOLECULE
*****
 43 46 0 0 0
SMALL
GASTEIGER

@<TRIPOS>ATOM
      1 C          -1.3599    3.1899   20.3718 C.3     1  UNL1        0.1035
      2 C          -2.5923    3.8979   19.8923 C.3     1  UNL1        0.0933
      3 N          -3.0263    4.1046   21.3132 N.3     1  UNL1       -0.2711
      4 C          -1.7939    3.3965   21.7926 C.3     1  UNL1        0.0933
      5 C          -4.2047    4.7513   21.9788 C.3     1  UNL1        0.0578
      6 C          -4.1519    6.2034   22.3514 C.3     1  UNL1        0.0187
      7 C          -5.3304    6.8502   23.0171 C.3     1  UNL1        0.0326
      8 C          -6.5614    6.0449   23.3102 C.3     1  UNL1        0.1085
      9 O          -6.9876    7.3780   23.8496 O.3     1  UNL1       -0.3826
     10 C          -6.6141    4.5928   22.9377 C.3     1  UNL1        0.0326
     11 C          -5.4358    3.9461   22.2720 C.3     1  UNL1        0.0187
     12 H          -6.2715    8.0206   23.7264 H       1  UNL1        0.2107
     13 C          -7.9405    5.7026   23.7907 C.ar    1  UNL1        0.0211
     14 C          -8.8545    6.7863   24.2809 C.ar    1  UNL1        0.0043
     15 C         -10.2336    6.4441   24.7614 C.ar    1  UNL1        0.0575
     16 C         -10.6988    5.0180   24.7517 C.ar    1  UNL1        0.2251
     17 N          -9.7849    3.9343   24.2615 N.ar    1  UNL1       -0.2104
     18 C          -8.4057    4.2765   23.7810 C.ar    1  UNL1        0.1000
     19 O         -12.0779    4.6758   25.2322 O.3     1  UNL1       -0.4509
     20 C         -13.1953    5.6631   25.0696 C.3     1  UNL1        0.3095
     21 C         -14.2666    5.7623   26.1148 C.3     1  UNL1        0.4381
     22 F         -15.3380    5.8614   27.1599 F       1  UNL1       -0.1663
     23 F         -13.9445    7.2146   26.3073 F       1  UNL1       -0.1663
     24 F         -14.5888    4.3100   25.9223 F       1  UNL1       -0.1663
     25 O           1.2394    4.6718   20.1529 O.2     1  UNL1       -0.2733
     26 C           1.1181    3.2840   19.5966 C.2     1  UNL1        0.2426
     27 N          -0.1815    2.5431   19.7060 N.am    1  UNL1       -0.3018
     28 H          -0.2611    1.6322   19.3409 H       1  UNL1        0.1495
     29 C           2.2964    2.6372   18.9308 C.3     1  UNL1        0.1759
     30 N           2.9799    1.4719   19.5828 N.am    1  UNL1       -0.2931
     31 C           2.3166    0.1267   19.5993 C.2     1  UNL1        0.2462
     32 O           0.9698   -0.0534   18.9639 O.2     1  UNL1       -0.2701
     33 H           3.8638    1.5901   19.9999 H       1  UNL1        0.1502
     34 C           3.0001   -1.0386   20.2513 C.ar    1  UNL1        0.0533
     35 C           3.3093   -1.0018   21.7186 C.ar    1  UNL1        0.0045
     36 C           3.9928   -2.1670   22.3705 C.ar    1  UNL1        0.0001
     37 C           4.3670   -3.3691   21.5551 C.ar    1  UNL1        0.0039
     38 C           4.0578   -3.4060   20.0878 C.ar    1  UNL1        0.0716
     39 C           3.3743   -2.2408   19.4359 C.ar    1  UNL1        0.0084
     40 C           4.4320   -4.6081   19.2724 C.3     1  UNL1        0.4186
     41 F           4.8063   -5.8103   18.4570 F       1  UNL1       -0.1659
     42 F           3.0340   -4.6776   18.7332 F       1  UNL1       -0.1659
     43 F           5.8300   -4.5387   19.8117 F       1  UNL1       -0.1659
@<TRIPOS>BOND
     1    25    26    2
     2    26    29    1
     3    29    30    1
     4    30    31   am
     5    31    32    2
     6    31    34    1
     7    34    35   ar
     8    35    36   ar
     9    36    37   ar
    10    37    38   ar
    11    38    40    1
    12    40    41    1
    13    40    42    1
    14    40    43    1
    15    38    39   ar
    16    26    27   am
    17    27     1    1
    18     1     2    1
    19     2     3    1
    20     5     3    1
    21     5     6    1
    22     6     7    1
    23     7     8    1
    24     8     9    1
    25     8    13    1
    26    13    14   ar
    27    14    15   ar
    28    15    16   ar
    29    16    19    1
    30    19    20    1
    31    20    21    1
    32    21    22    1
    33    21    23    1
    34    21    24    1
    35    16    17   ar
    36    17    18   ar
    37     8    10    1
    38    10    11    1
    39     3     4    1
    40    39    34   ar
    41     4     1    1
    42    11     5    1
    43    18    13   ar
    44    30    33    1
    45    27    28    1
    46     9    12    1
