@<TRIPOS>MOLECULE
*****
 18 20 0 0 0
SMALL
GASTEIGER

@<TRIPOS>ATOM
      1 C         -10.3202  -17.4089   23.8136 C.3     1  UNL1        0.0463
      2 C         -10.5829  -16.6059   22.5742 C.3     1  UNL1        0.0065
      3 C         -11.1023  -15.9819   21.3129 C.3     1  UNL1        0.0004
      4 C         -12.3850  -16.6694   20.9497 C.3     1  UNL1        0.0000
      5 C         -12.6584  -17.7184   21.9864 C.3     1  UNL1        0.0004
      6 C         -11.5447  -17.6792   22.9904 C.3     1  UNL1        0.0065
      7 C          -9.0316  -16.7843   24.2603 C.ar    1  UNL1       -0.0196
      8 C          -7.9118  -16.5930   23.2807 C.ar    1  UNL1       -0.0033
      9 C          -6.6232  -15.9685   23.7274 C.ar    1  UNL1        0.0119
     10 C          -6.4544  -15.5353   25.1535 C.ar    1  UNL1        0.0682
     11 CL         -5.1657  -14.9108   25.6001 Cl      1  UNL1       -0.0814
     12 C          -7.5742  -15.7267   26.1330 C.ar    1  UNL1        0.0679
     13 CL         -7.4053  -15.2936   27.5592 Cl      1  UNL1       -0.0814
     14 C          -8.8627  -16.3512   25.6864 C.ar    1  UNL1        0.0080
     15 C         -10.5051  -18.4287   24.8981 C.3     1  UNL1        0.1460
     16 O          -9.5514  -19.5806   25.0147 O.3     1  UNL1       -0.3534
     17 C          -8.3331  -20.1244   22.7853 C.3     1  UNL1        0.0346
     18 C          -9.3298  -20.4922   23.8443 C.3     1  UNL1        0.1423
@<TRIPOS>BOND
     1    17    18    1
     2    18    16    1
     3    16    15    1
     4     1    15    1
     5     1     7    1
     6     7     8   ar
     7     8     9   ar
     8     9    10   ar
     9    10    11    1
    10    10    12   ar
    11    12    13    1
    12    12    14   ar
    13     1     2    1
    14     2     3    1
    15     3     4    1
    16     4     5    1
    17     6     5    1
    18     6     1    1
    19    14     7   ar
    20     6     2    1
@<TRIPOS>MOLECULE
*****
 18 20 0 0 0
SMALL
GASTEIGER

@<TRIPOS>ATOM
      1 C          -7.8019  -16.2452   24.1268 C.3     1  UNL1        0.0463
      2 C          -8.2220  -15.9776   25.5417 C.3     1  UNL1        0.0065
      3 C          -8.3393  -15.6396   26.9984 C.3     1  UNL1        0.0004
      4 C          -6.9791  -15.2470   27.4942 C.3     1  UNL1        0.0000
      5 C          -6.0211  -15.3424   26.3440 C.3     1  UNL1        0.0004
      6 C          -6.7892  -15.7939   25.1373 C.3     1  UNL1        0.0065
      7 C          -9.1194  -16.6528   23.5367 C.ar    1  UNL1       -0.0196
      8 C         -10.0396  -17.5530   24.3064 C.ar    1  UNL1       -0.0033
      9 C         -11.3570  -17.9605   23.7162 C.ar    1  UNL1        0.0119
     10 C         -11.7542  -17.4677   22.3563 C.ar    1  UNL1        0.0682
     11 CL        -13.0716  -17.8752   21.7661 Cl      1  UNL1       -0.0814
     12 C         -10.8339  -16.5674   21.5865 C.ar    1  UNL1        0.0679
     13 CL        -11.2310  -16.0746   20.2266 Cl      1  UNL1       -0.0814
     14 C          -9.5165  -16.1599   22.1767 C.ar    1  UNL1        0.0080
     15 C          -6.9242  -16.3714   22.9169 C.3     1  UNL1        0.1460
     16 O          -6.0881  -17.6013   22.7218 O.3     1  UNL1       -0.3534
     17 C          -7.5603  -19.7002   22.3007 C.3     1  UNL1        0.0346
     18 C          -6.5624  -18.6937   21.8097 C.3     1  UNL1        0.1423
@<TRIPOS>BOND
     1    17    18    1
     2    18    16    1
     3    16    15    1
     4     1    15    1
     5     1     7    1
     6     7     8   ar
     7     8     9   ar
     8     9    10   ar
     9    10    11    1
    10    10    12   ar
    11    12    13    1
    12    12    14   ar
    13     1     2    1
    14     2     3    1
    15     3     4    1
    16     4     5    1
    17     6     5    1
    18     6     1    1
    19    14     7   ar
    20     6     2    1
@<TRIPOS>MOLECULE
*****
 18 20 0 0 0
SMALL
GASTEIGER

@<TRIPOS>ATOM
      1 C          -9.9831  -17.1308   22.1821 C.3     1  UNL1        0.0463
      2 C          -9.0915  -18.1080   21.4749 C.3     1  UNL1        0.0065
      3 C          -8.4521  -19.1349   20.5879 C.3     1  UNL1        0.0004
      4 C          -9.4717  -19.5765   19.5802 C.3     1  UNL1        0.0000
      5 C         -10.7413  -18.8226   19.8444 C.3     1  UNL1        0.0004
      6 C         -10.5063  -17.9151   21.0153 C.3     1  UNL1        0.0065
      7 C          -9.0360  -16.6250   23.2296 C.ar    1  UNL1       -0.0196
      8 C          -7.8307  -15.8272   22.8285 C.ar    1  UNL1       -0.0033
      9 C          -6.8837  -15.3214   23.8760 C.ar    1  UNL1        0.0119
     10 C          -7.1418  -15.6134   25.3245 C.ar    1  UNL1        0.0682
     11 CL         -6.1947  -15.1076   26.3719 Cl      1  UNL1       -0.0814
     12 C          -8.3470  -16.4112   25.7255 C.ar    1  UNL1        0.0679
     13 CL         -8.6052  -16.7033   27.1740 Cl      1  UNL1       -0.0814
     14 C          -9.2941  -16.9170   24.6780 C.ar    1  UNL1        0.0080
     15 C         -11.2036  -16.3293   22.5255 C.3     1  UNL1        0.1460
     16 O         -12.5428  -17.0000   22.6074 O.3     1  UNL1       -0.3534
     17 C         -14.0922  -18.1500   24.3472 C.3     1  UNL1        0.0346
     18 C         -12.7807  -18.0783   23.6226 C.3     1  UNL1        0.1423
@<TRIPOS>BOND
     1    17    18    1
     2    18    16    1
     3    16    15    1
     4     1    15    1
     5     1     7    1
     6     7     8   ar
     7     8     9   ar
     8     9    10   ar
     9    10    11    1
    10    10    12   ar
    11    12    13    1
    12    12    14   ar
    13     1     2    1
    14     2     3    1
    15     3     4    1
    16     4     5    1
    17     6     5    1
    18     6     1    1
    19    14     7   ar
    20     6     2    1
@<TRIPOS>MOLECULE
*****
 18 20 0 0 0
SMALL
GASTEIGER

@<TRIPOS>ATOM
      1 C          -9.3027  -17.4504   22.4635 C.3     1  UNL1        0.0463
      2 C         -10.5814  -16.6682   22.5215 C.3     1  UNL1        0.0065
      3 C         -11.9362  -16.0548   22.3262 C.3     1  UNL1        0.0004
      4 C         -12.5678  -16.6979   21.1272 C.3     1  UNL1        0.0000
      5 C         -11.6033  -17.7088   20.5814 C.3     1  UNL1        0.0004
      6 C         -10.3757  -17.6905   21.4431 C.3     1  UNL1        0.0065
      7 C          -8.5876  -16.8684   23.6468 C.ar    1  UNL1       -0.0196
      8 C          -9.2635  -16.8261   24.9852 C.ar    1  UNL1       -0.0033
      9 C          -8.5484  -16.2441   26.1683 C.ar    1  UNL1        0.0119
     10 C          -7.1574  -15.7045   26.0131 C.ar    1  UNL1        0.0682
     11 CL         -6.4423  -15.1225   27.1963 Cl      1  UNL1       -0.0814
     12 C          -6.4816  -15.7468   24.6747 C.ar    1  UNL1        0.0679
     13 CL         -5.0907  -15.2071   24.5194 Cl      1  UNL1       -0.0814
     14 C          -7.1967  -16.3287   23.4915 C.ar    1  UNL1        0.0080
     15 C          -8.2724  -18.4346   21.9947 C.3     1  UNL1        0.1460
     16 O          -7.7490  -18.3610   20.5909 O.3     1  UNL1       -0.3534
     17 C          -8.9181  -19.9805   18.9294 C.3     1  UNL1        0.0346
     18 C          -7.7149  -19.5941   19.7375 C.3     1  UNL1        0.1423
@<TRIPOS>BOND
     1    17    18    1
     2    18    16    1
     3    16    15    1
     4     1    15    1
     5     1     7    1
     6     7     8   ar
     7     8     9   ar
     8     9    10   ar
     9    10    11    1
    10    10    12   ar
    11    12    13    1
    12    12    14   ar
    13     1     2    1
    14     2     3    1
    15     3     4    1
    16     4     5    1
    17     6     5    1
    18     6     1    1
    19    14     7   ar
    20     6     2    1
@<TRIPOS>MOLECULE
*****
 18 20 0 0 0
SMALL
GASTEIGER

@<TRIPOS>ATOM
      1 C          -9.4502  -17.5064   22.4694 C.3     1  UNL1        0.0463
      2 C         -10.3013  -17.3794   21.2408 C.3     1  UNL1        0.0065
      3 C         -11.3497  -17.1023   20.2045 C.3     1  UNL1        0.0004
      4 C         -12.4713  -16.3585   20.8670 C.3     1  UNL1        0.0000
      5 C         -12.1160  -16.1758   22.3128 C.3     1  UNL1        0.0004
      6 C         -10.7749  -16.8067   22.5439 C.3     1  UNL1        0.0065
      7 C          -8.2799  -18.2520   21.8995 C.ar    1  UNL1       -0.0196
      8 C          -8.4546  -19.0975   20.6730 C.ar    1  UNL1       -0.0033
      9 C          -7.2843  -19.8430   20.1031 C.ar    1  UNL1        0.0119
     10 C          -5.9394  -19.7429   20.7598 C.ar    1  UNL1        0.0682
     11 CL         -4.7692  -20.4884   20.1899 Cl      1  UNL1       -0.0814
     12 C          -5.7648  -18.8973   21.9864 C.ar    1  UNL1        0.0679
     13 CL         -4.4199  -18.7972   22.6431 Cl      1  UNL1       -0.0814
     14 C          -6.9350  -18.1518   22.5562 C.ar    1  UNL1        0.0080
     15 C          -9.0055  -17.3746   23.8959 C.3     1  UNL1        0.1460
     16 O          -9.2177  -16.0847   24.6316 O.3     1  UNL1       -0.3534
     17 C          -8.1988  -15.9880   27.0195 C.3     1  UNL1        0.0346
     18 C          -8.1684  -15.5790   25.5767 C.3     1  UNL1        0.1423
@<TRIPOS>BOND
     1    17    18    1
     2    18    16    1
     3    16    15    1
     4     1    15    1
     5     1     7    1
     6     7     8   ar
     7     8     9   ar
     8     9    10   ar
     9    10    11    1
    10    10    12   ar
    11    12    13    1
    12    12    14   ar
    13     1     2    1
    14     2     3    1
    15     3     4    1
    16     4     5    1
    17     6     5    1
    18     6     1    1
    19    14     7   ar
    20     6     2    1
@<TRIPOS>MOLECULE
*****
 18 20 0 0 0
SMALL
GASTEIGER

@<TRIPOS>ATOM
      1 C          -8.0486  -18.8394   21.5168 C.3     1  UNL1        0.0463
      2 C          -8.4359  -19.3978   20.1796 C.3     1  UNL1        0.0065
      3 C          -9.1132  -19.8733   18.9285 C.3     1  UNL1        0.0004
      4 C         -10.5810  -19.5933   19.0609 C.3     1  UNL1        0.0000
      5 C         -10.8108  -18.9447   20.3938 C.3     1  UNL1        0.0004
      6 C          -9.4851  -18.8239   21.0852 C.3     1  UNL1        0.0065
      7 C          -6.5681  -19.0775   21.4795 C.ar    1  UNL1       -0.0196
      8 C          -5.9845  -20.0144   20.4639 C.ar    1  UNL1       -0.0033
      9 C          -4.5040  -20.2525   20.4267 C.ar    1  UNL1        0.0119
     10 C          -3.6071  -19.5536   21.4050 C.ar    1  UNL1        0.0682
     11 CL         -2.1265  -19.7917   21.3677 Cl      1  UNL1       -0.0814
     12 C          -4.1907  -18.6166   22.4206 C.ar    1  UNL1        0.0679
     13 CL         -3.2938  -17.9177   23.3989 Cl      1  UNL1       -0.0814
     14 C          -5.6712  -18.3786   22.4578 C.ar    1  UNL1        0.0080
     15 C          -8.1754  -18.1982   22.8670 C.3     1  UNL1        0.1460
     16 O          -9.5140  -18.1255   23.5399 O.3     1  UNL1       -0.3534
     17 C          -9.7153  -20.5599   24.4248 C.3     1  UNL1        0.0346
     18 C          -9.8509  -19.0824   24.6449 C.3     1  UNL1        0.1423
@<TRIPOS>BOND
     1    17    18    1
     2    18    16    1
     3    16    15    1
     4     1    15    1
     5     1     7    1
     6     7     8   ar
     7     8     9   ar
     8     9    10   ar
     9    10    11    1
    10    10    12   ar
    11    12    13    1
    12    12    14   ar
    13     1     2    1
    14     2     3    1
    15     3     4    1
    16     4     5    1
    17     6     5    1
    18     6     1    1
    19    14     7   ar
    20     6     2    1
@<TRIPOS>MOLECULE
*****
 18 20 0 0 0
SMALL
GASTEIGER

@<TRIPOS>ATOM
      1 C          -7.9173  -17.5730   22.7587 C.3     1  UNL1        0.0463
      2 C          -7.5909  -19.0063   22.4602 C.3     1  UNL1        0.0065
      3 C          -6.9719  -20.3315   22.1277 C.3     1  UNL1        0.0004
      4 C          -5.5048  -20.1146   21.9029 C.3     1  UNL1        0.0000
      5 C          -5.2170  -18.6553   22.0964 C.3     1  UNL1        0.0004
      6 C          -6.5062  -17.9703   22.4408 C.3     1  UNL1        0.0065
      7 C          -9.3930  -17.6873   23.0023 C.ar    1  UNL1       -0.0196
      8 C          -9.9003  -18.4543   24.1874 C.ar    1  UNL1       -0.0033
      9 C         -11.3760  -18.5685   24.4309 C.ar    1  UNL1        0.0119
     10 C         -12.3443  -17.9158   23.4894 C.ar    1  UNL1        0.0682
     11 CL        -13.8200  -18.0301   23.7330 Cl      1  UNL1       -0.0814
     12 C         -11.8369  -17.1489   22.3044 C.ar    1  UNL1        0.0679
     13 CL        -12.8053  -16.4961   21.3630 Cl      1  UNL1       -0.0814
     14 C         -10.3613  -17.0346   22.0609 C.ar    1  UNL1        0.0080
     15 C          -7.7313  -16.1000   22.9727 C.3     1  UNL1        0.1460
     16 O          -6.5426  -15.5974   23.7372 O.3     1  UNL1       -0.3534
     17 C          -5.3782  -15.4463   26.0548 C.3     1  UNL1        0.0346
     18 C          -6.6271  -15.4212   25.2244 C.3     1  UNL1        0.1423
@<TRIPOS>BOND
     1    17    18    1
     2    18    16    1
     3    16    15    1
     4     1    15    1
     5     1     7    1
     6     7     8   ar
     7     8     9   ar
     8     9    10   ar
     9    10    11    1
    10    10    12   ar
    11    12    13    1
    12    12    14   ar
    13     1     2    1
    14     2     3    1
    15     3     4    1
    16     4     5    1
    17     6     5    1
    18     6     1    1
    19    14     7   ar
    20     6     2    1
@<TRIPOS>MOLECULE
*****
 18 20 0 0 0
SMALL
GASTEIGER

@<TRIPOS>ATOM
      1 C          -8.1744  -17.6651   22.1506 C.3     1  UNL1        0.0463
      2 C          -6.9673  -18.5550   22.1203 C.3     1  UNL1        0.0065
      3 C          -5.8739  -19.5344   21.8116 C.3     1  UNL1        0.0004
      4 C          -6.1652  -20.1482   20.4743 C.3     1  UNL1        0.0000
      5 C          -7.4387  -19.5482   19.9564 C.3     1  UNL1        0.0004
      6 C          -7.9344  -18.5636   20.9736 C.3     1  UNL1        0.0065
      7 C          -7.9705  -16.9949   23.4770 C.ar    1  UNL1       -0.0196
      8 C          -9.0827  -16.9695   24.4832 C.ar    1  UNL1       -0.0033
      9 C          -8.8788  -16.2993   25.8096 C.ar    1  UNL1        0.0119
     10 C          -7.5628  -15.6546   26.1297 C.ar    1  UNL1        0.0682
     11 CL         -7.3589  -14.9844   27.4562 Cl      1  UNL1       -0.0814
     12 C          -6.4507  -15.6801   25.1236 C.ar    1  UNL1        0.0679
     13 CL         -5.1346  -15.0354   25.4437 Cl      1  UNL1       -0.0814
     14 C          -6.6545  -16.3502   23.7972 C.ar    1  UNL1        0.0080
     15 C          -9.4523  -17.0079   21.7203 C.3     1  UNL1        0.1460
     16 O         -10.5843  -17.8406   21.1959 O.3     1  UNL1       -0.3534
     17 C         -10.9583  -20.1113   22.4019 C.3     1  UNL1        0.0346
     18 C         -11.3820  -18.6976   22.1337 C.3     1  UNL1        0.1423
@<TRIPOS>BOND
     1    17    18    1
     2    18    16    1
     3    16    15    1
     4     1    15    1
     5     1     7    1
     6     7     8   ar
     7     8     9   ar
     8     9    10   ar
     9    10    11    1
    10    10    12   ar
    11    12    13    1
    12    12    14   ar
    13     1     2    1
    14     2     3    1
    15     3     4    1
    16     4     5    1
    17     6     5    1
    18     6     1    1
    19    14     7   ar
    20     6     2    1
@<TRIPOS>MOLECULE
*****
 18 20 0 0 0
SMALL
GASTEIGER

@<TRIPOS>ATOM
      1 C          -5.4884  -18.5613   21.9694 C.3     1  UNL1        0.0463
      2 C          -4.6696  -19.3911   21.0255 C.3     1  UNL1        0.0065
      3 C          -3.6120  -20.1366   20.2667 C.3     1  UNL1        0.0004
      4 C          -2.2989  -19.9063   20.9543 C.3     1  UNL1        0.0000
      5 C          -2.5449  -19.0185   22.1381 C.3     1  UNL1        0.0004
      6 C          -4.0100  -18.7001   22.1821 C.3     1  UNL1        0.0065
      7 C          -6.8462  -18.7311   21.3547 C.ar    1  UNL1       -0.0196
      8 C          -6.9874  -19.4078   20.0235 C.ar    1  UNL1       -0.0033
      9 C          -8.3451  -19.5777   19.4089 C.ar    1  UNL1        0.0119
     10 C          -9.5615  -19.0708   20.1254 C.ar    1  UNL1        0.0682
     11 CL        -10.9193  -19.2406   19.5107 Cl      1  UNL1       -0.0814
     12 C          -9.4202  -18.3941   21.4566 C.ar    1  UNL1        0.0679
     13 CL        -10.6366  -17.8872   22.1731 Cl      1  UNL1       -0.0814
     14 C          -8.0626  -18.2242   22.0712 C.ar    1  UNL1        0.0080
     15 C          -5.8358  -17.6724   23.1267 C.3     1  UNL1        0.1460
     16 O          -5.0773  -16.3972   23.3470 O.3     1  UNL1       -0.3534
     17 C          -5.4373  -15.5022   25.7593 C.3     1  UNL1        0.0346
     18 C          -5.6194  -15.3534   24.2779 C.3     1  UNL1        0.1423
@<TRIPOS>BOND
     1    17    18    1
     2    18    16    1
     3    16    15    1
     4     1    15    1
     5     1     7    1
     6     7     8   ar
     7     8     9   ar
     8     9    10   ar
     9    10    11    1
    10    10    12   ar
    11    12    13    1
    12    12    14   ar
    13     1     2    1
    14     2     3    1
    15     3     4    1
    16     4     5    1
    17     6     5    1
    18     6     1    1
    19    14     7   ar
    20     6     2    1
