@<TRIPOS>MOLECULE
*****
 28 31 0 0 0
SMALL
GASTEIGER

@<TRIPOS>ATOM
      1 C          -8.1630  -18.7487   22.4835 C.ar    1  UNL1        0.1637
      2 N          -9.0520  -19.3386   23.5378 N.ar    1  UNL1       -0.2334
      3 C         -10.4214  -18.7492   23.3723 C.ar    1  UNL1        0.0940
      4 C         -11.7017  -18.9581   24.1254 C.ar    1  UNL1        0.0239
      5 C         -12.9393  -18.2129   23.7217 C.ar    1  UNL1        0.0790
      6 C         -12.8967  -17.2589   22.5650 C.ar    1  UNL1        0.0798
      7 C         -11.6164  -17.0500   21.8120 C.ar    1  UNL1        0.2972
      8 C         -10.3787  -17.7952   22.2156 C.ar    1  UNL1        0.1179
      9 S          -8.9829  -17.7948   21.6662 S.2     1  UNL1       -0.0558
     10 C          -4.3017  -18.8148   22.0934 C.3     1  UNL1        0.2255
     11 C          -4.6425  -20.2550   21.8489 C.3     1  UNL1        0.2407
     12 O          -6.1304  -20.4055   21.9653 O.2     1  UNL1       -0.4564
     13 C          -6.7092  -19.0583   22.2817 C.2     1  UNL1        0.2456
     14 N          -5.5791  -18.0752   22.3609 N.2     1  UNL1       -0.2248
     15 O          -2.2583  -17.8295   23.3597 O.2     1  UNL1       -0.2726
     16 C          -2.9254  -18.2188   22.0739 C.2     1  UNL1        0.2519
     17 N          -2.2160  -18.0120   20.7684 N.am    1  UNL1       -0.2779
     18 C          -0.8447  -17.4303   20.5926 C.3     1  UNL1        0.0935
     19 C          -0.5347  -17.4094   19.1251 C.3     1  UNL1        0.0233
     20 C          -1.7145  -17.9783   18.3940 C.3     1  UNL1        0.0233
     21 C          -2.7536  -18.3507   19.4096 C.3     1  UNL1        0.0935
     22 C         -14.2197  -18.4218   24.4748 C.3     1  UNL1        0.4188
     23 F         -15.5001  -18.6306   25.2279 F       1  UNL1       -0.1659
     24 F         -13.4565  -18.4446   25.7659 F       1  UNL1       -0.1659
     25 F         -14.9829  -18.3989   23.1837 F       1  UNL1       -0.1659
     26 N         -11.5737  -16.0959   20.6552 N.pl3   1  UNL1        0.0815
     27 O         -12.7453  -15.9933   19.7240 O.2     1  UNL1        0.0415
     28 O         -10.3596  -15.2445   20.4297 O.co2   1  UNL1       -0.5760
@<TRIPOS>UNITY_ATOM_ATTR
26 1
charge 1
28 1
charge -1
@<TRIPOS>BOND
     1    15    16    2
     2    10    16    1
     3    10    11    1
     4    11    12    1
     5    12    13    1
     6    13     1    1
     7     1     2   ar
     8     2     3   ar
     9     3     4   ar
    10     4     5   ar
    11     5    22    1
    12    22    23    1
    13    22    24    1
    14    22    25    1
    15     5     6   ar
    16     6     7   ar
    17     7    26    1
    18    26    27    2
    19    26    28    1
    20     7     8   ar
    21     8     9   ar
    22    13    14    2
    23    16    17   am
    24    17    18    1
    25    18    19    1
    26    19    20    1
    27    20    21    1
    28    14    10    1
    29    21    17    1
    30     9     1   ar
    31     8     3   ar
@<TRIPOS>MOLECULE
*****
 28 31 0 0 0
SMALL
GASTEIGER

@<TRIPOS>ATOM
      1 C          -8.1527  -19.1602   21.5381 C.ar    1  UNL1        0.1637
      2 N          -8.8907  -19.7558   22.7003 N.ar    1  UNL1       -0.2334
      3 C         -10.2044  -19.0435   22.8293 C.ar    1  UNL1        0.0940
      4 C         -11.3429  -19.2043   23.7926 C.ar    1  UNL1        0.0239
      5 C         -12.5555  -18.3292   23.6734 C.ar    1  UNL1        0.0790
      6 C         -12.6295  -17.2935   22.5909 C.ar    1  UNL1        0.0798
      7 C         -11.4910  -17.1328   21.6276 C.ar    1  UNL1        0.2972
      8 C         -10.2785  -18.0078   21.7468 C.ar    1  UNL1        0.1179
      9 S          -9.0104  -18.0799   20.9488 S.2     1  UNL1       -0.0558
     10 C          -4.5364  -19.4890   20.1671 C.3     1  UNL1        0.2255
     11 C          -4.8769  -20.9253   20.4342 C.3     1  UNL1        0.2407
     12 O          -6.2730  -20.9769   20.9802 O.2     1  UNL1       -0.4564
     13 C          -6.7954  -19.5725   21.0507 C.2     1  UNL1        0.2456
     14 N          -5.7221  -18.6530   20.5482 N.2     1  UNL1       -0.2248
     15 O          -2.6819  -19.5574   18.3489 O.2     1  UNL1       -0.2726
     16 C          -3.2382  -18.9785   19.6159 C.2     1  UNL1        0.2519
     17 N          -2.4961  -17.8889   20.3317 N.am    1  UNL1       -0.2779
     18 C          -1.1938  -17.2804   19.9031 C.3     1  UNL1        0.0935
     19 C          -0.8190  -16.2320   20.9083 C.3     1  UNL1        0.0233
     20 C          -1.8897  -16.1925   21.9580 C.3     1  UNL1        0.0233
     21 C          -2.9262  -17.2165   21.6017 C.3     1  UNL1        0.0935
     22 C         -13.6940  -18.4900   24.6368 C.3     1  UNL1        0.4188
     23 F         -14.8325  -18.6507   25.6001 F       1  UNL1       -0.1659
     24 F         -14.6661  -18.1611   23.5427 F       1  UNL1       -0.1659
     25 F         -12.7219  -18.8189   25.7307 F       1  UNL1       -0.1659
     26 N         -11.5651  -16.0970   20.5451 N.pl3   1  UNL1        0.0815
     27 O         -10.3899  -15.2028   20.2810 O.2     1  UNL1        0.0415
     28 O         -12.8141  -15.9555   19.7267 O.co2   1  UNL1       -0.5760
@<TRIPOS>UNITY_ATOM_ATTR
26 1
charge 1
28 1
charge -1
@<TRIPOS>BOND
     1    15    16    2
     2    10    16    1
     3    10    11    1
     4    11    12    1
     5    12    13    1
     6    13     1    1
     7     1     2   ar
     8     2     3   ar
     9     3     4   ar
    10     4     5   ar
    11     5    22    1
    12    22    23    1
    13    22    24    1
    14    22    25    1
    15     5     6   ar
    16     6     7   ar
    17     7    26    1
    18    26    27    2
    19    26    28    1
    20     7     8   ar
    21     8     9   ar
    22    13    14    2
    23    16    17   am
    24    17    18    1
    25    18    19    1
    26    19    20    1
    27    20    21    1
    28    14    10    1
    29    21    17    1
    30     9     1   ar
    31     8     3   ar
@<TRIPOS>MOLECULE
*****
 28 31 0 0 0
SMALL
GASTEIGER

@<TRIPOS>ATOM
      1 C           3.9213   -1.1768   24.7940 C.ar    1  UNL1        0.1637
      2 N           4.5806   -2.4102   24.2518 N.ar    1  UNL1       -0.2334
      3 C           4.2259   -2.5247   22.7988 C.ar    1  UNL1        0.0940
      4 C           4.5894   -3.5374   21.7537 C.ar    1  UNL1        0.0239
      5 C           4.0744   -3.3875   20.3529 C.ar    1  UNL1        0.0790
      6 C           3.1960   -2.2248   19.9972 C.ar    1  UNL1        0.0798
      7 C           2.8325   -1.2121   21.0422 C.ar    1  UNL1        0.2972
      8 C           3.3475   -1.3620   22.4431 C.ar    1  UNL1        0.1179
      9 S           3.1592   -0.5290   23.6762 S.2     1  UNL1       -0.0558
     10 C           3.7552   -0.5093   28.6140 C.3     1  UNL1        0.2255
     11 C           4.5316    0.6853   28.1444 C.3     1  UNL1        0.2407
     12 O           4.6883    0.5806   26.6563 O.2     1  UNL1       -0.4564
     13 C           4.0088   -0.6786   26.2062 C.2     1  UNL1        0.2456
     14 N           3.4322   -1.3522   27.4160 N.2     1  UNL1       -0.2248
     15 O           1.9584   -0.5854   30.4889 O.2     1  UNL1       -0.2726
     16 C           3.3697   -0.8083   30.0324 C.2     1  UNL1        0.2519
     17 N           4.3956   -1.3304   30.9943 N.am    1  UNL1       -0.2779
     18 C           4.1592   -1.6728   32.4355 C.3     1  UNL1        0.0935
     19 C           5.4554   -2.1557   33.0157 C.3     1  UNL1        0.0233
     20 C           6.4928   -2.1117   31.9332 C.3     1  UNL1        0.0233
     21 C           5.8378   -1.6016   30.6839 C.3     1  UNL1        0.0935
     22 C           4.4379   -4.4003   19.3077 C.3     1  UNL1        0.4188
     23 F           4.8013   -5.4130   18.2626 F       1  UNL1       -0.1659
     24 F           2.9871   -4.5679   18.9657 F       1  UNL1       -0.1659
     25 F           5.8887   -4.2326   19.6498 F       1  UNL1       -0.1659
     26 N           1.9541   -0.0494   20.6865 N.pl3   1  UNL1        0.0815
     27 O           0.4878   -0.2615   20.4516 O.2     1  UNL1        0.0415
     28 O           2.5419    1.3253   20.5655 O.co2   1  UNL1       -0.5760
@<TRIPOS>UNITY_ATOM_ATTR
26 1
charge 1
28 1
charge -1
@<TRIPOS>BOND
     1    15    16    2
     2    10    16    1
     3    10    11    1
     4    11    12    1
     5    12    13    1
     6    13     1    1
     7     1     2   ar
     8     2     3   ar
     9     3     4   ar
    10     4     5   ar
    11     5    22    1
    12    22    23    1
    13    22    24    1
    14    22    25    1
    15     5     6   ar
    16     6     7   ar
    17     7    26    1
    18    26    27    2
    19    26    28    1
    20     7     8   ar
    21     8     9   ar
    22    13    14    2
    23    16    17   am
    24    17    18    1
    25    18    19    1
    26    19    20    1
    27    20    21    1
    28    14    10    1
    29    21    17    1
    30     9     1   ar
    31     8     3   ar
@<TRIPOS>MOLECULE
*****
 28 31 0 0 0
SMALL
GASTEIGER

@<TRIPOS>ATOM
      1 C           5.9384   -3.5505   23.7415 C.ar    1  UNL1        0.1637
      2 N           4.9270   -2.4843   24.0421 N.ar    1  UNL1       -0.2334
      3 C           4.2222   -2.1403   22.7634 C.ar    1  UNL1        0.0940
      4 C           3.1306   -1.1600   22.4515 C.ar    1  UNL1        0.0239
      5 C           2.6147   -1.0334   21.0486 C.ar    1  UNL1        0.0790
      6 C           3.1904   -1.8869   19.9579 C.ar    1  UNL1        0.0798
      7 C           4.2821   -2.8672   20.2698 C.ar    1  UNL1        0.2972
      8 C           4.7980   -2.9939   21.6726 C.ar    1  UNL1        0.1179
      9 S           5.8586   -3.8655   22.2771 S.2     1  UNL1       -0.0558
     10 C           7.7116   -5.3333   26.6984 C.3     1  UNL1        0.2255
     11 C           8.8781   -5.0130   25.8114 C.3     1  UNL1        0.2407
     12 O           8.3558   -4.3062   24.5958 O.2     1  UNL1       -0.4564
     13 C           6.8665   -4.1897   24.7315 C.2     1  UNL1        0.2456
     14 N           6.4683   -4.8244   26.0309 N.2     1  UNL1       -0.2248
     15 O           8.2346   -7.4653   28.0878 O.2     1  UNL1       -0.2726
     16 C           7.7768   -6.0385   28.0206 C.2     1  UNL1        0.2519
     17 N           7.3842   -5.3169   29.2757 N.am    1  UNL1       -0.2779
     18 C           7.3978   -5.8887   30.6624 C.3     1  UNL1        0.0935
     19 C           6.9311   -4.8220   31.6081 C.3     1  UNL1        0.0233
     20 C           6.6291   -3.5910   30.8060 C.3     1  UNL1        0.0233
     21 C           6.9092   -3.8969   29.3644 C.3     1  UNL1        0.0935
     22 C           1.5229   -0.0531   20.7367 C.3     1  UNL1        0.4188
     23 F           0.4313    0.9272   20.4247 F       1  UNL1       -0.1659
     24 F           2.1960    0.9714   21.6012 F       1  UNL1       -0.1659
     25 F           0.8500   -1.0777   19.8722 F       1  UNL1       -0.1659
     26 N           4.8578   -3.7208   19.1790 N.pl3   1  UNL1        0.0815
     27 O           4.7925   -5.2158   19.2830 O.2     1  UNL1        0.0415
     28 O           5.4989   -3.0794   17.9841 O.co2   1  UNL1       -0.5760
@<TRIPOS>UNITY_ATOM_ATTR
26 1
charge 1
28 1
charge -1
@<TRIPOS>BOND
     1    15    16    2
     2    10    16    1
     3    10    11    1
     4    11    12    1
     5    12    13    1
     6    13     1    1
     7     1     2   ar
     8     2     3   ar
     9     3     4   ar
    10     4     5   ar
    11     5    22    1
    12    22    23    1
    13    22    24    1
    14    22    25    1
    15     5     6   ar
    16     6     7   ar
    17     7    26    1
    18    26    27    2
    19    26    28    1
    20     7     8   ar
    21     8     9   ar
    22    13    14    2
    23    16    17   am
    24    17    18    1
    25    18    19    1
    26    19    20    1
    27    20    21    1
    28    14    10    1
    29    21    17    1
    30     9     1   ar
    31     8     3   ar
@<TRIPOS>MOLECULE
*****
 28 31 0 0 0
SMALL
GASTEIGER

@<TRIPOS>ATOM
      1 C           1.2404    0.6191   21.0299 C.ar    1  UNL1        0.1637
      2 N           1.2642   -0.3442   19.8804 N.ar    1  UNL1       -0.2334
      3 C           2.3409   -1.3546   20.1446 C.ar    1  UNL1        0.0940
      4 C           2.8199   -2.5395   19.3593 C.ar    1  UNL1        0.0239
      5 C           3.9406   -3.3855   19.8870 C.ar    1  UNL1        0.0790
      6 C           4.5821   -3.0467   21.1998 C.ar    1  UNL1        0.0798
      7 C           4.1031   -1.8619   21.9851 C.ar    1  UNL1        0.2972
      8 C           2.9825   -1.0158   21.4575 C.ar    1  UNL1        0.1179
      9 S           2.3023    0.2040   22.0046 S.2     1  UNL1       -0.0558
     10 C          -1.6342    3.2272   21.0259 C.3     1  UNL1        0.2255
     11 C          -0.5746    3.9649   21.7895 C.3     1  UNL1        0.2407
     12 O           0.6312    3.0777   21.8839 O.2     1  UNL1       -0.4564
     13 C           0.3168    1.7916   21.1787 C.2     1  UNL1        0.2456
     14 N          -1.0833    1.8840   20.6484 N.2     1  UNL1       -0.2248
     15 O          -3.3145    4.2151   19.3082 O.2     1  UNL1       -0.2726
     16 C          -3.0041    3.7422   20.6975 C.2     1  UNL1        0.2519
     17 N          -4.0639    3.7843   21.7583 N.am    1  UNL1       -0.2779
     18 C          -5.4716    4.2705   21.5795 C.3     1  UNL1        0.0935
     19 C          -6.1796    4.1343   22.8949 C.3     1  UNL1        0.0233
     20 C          -5.2095    3.5639   23.8866 C.3     1  UNL1        0.0233
     21 C          -3.9019    3.3476   23.1842 C.3     1  UNL1        0.0935
     22 C           4.4197   -4.5704   19.1017 C.3     1  UNL1        0.4188
     23 F           4.8987   -5.7553   18.3164 F       1  UNL1       -0.1659
     24 F           3.4894   -5.4582   19.8740 F       1  UNL1       -0.1659
     25 F           5.3499   -3.6825   18.3295 F       1  UNL1       -0.1659
     26 N           4.7447   -1.5231   23.2979 N.pl3   1  UNL1        0.0815
     27 O           4.0003   -1.7572   24.5791 O.2     1  UNL1        0.0415
     28 O           6.1306   -0.9503   23.3297 O.co2   1  UNL1       -0.5760
@<TRIPOS>UNITY_ATOM_ATTR
26 1
charge 1
28 1
charge -1
@<TRIPOS>BOND
     1    15    16    2
     2    10    16    1
     3    10    11    1
     4    11    12    1
     5    12    13    1
     6    13     1    1
     7     1     2   ar
     8     2     3   ar
     9     3     4   ar
    10     4     5   ar
    11     5    22    1
    12    22    23    1
    13    22    24    1
    14    22    25    1
    15     5     6   ar
    16     6     7   ar
    17     7    26    1
    18    26    27    2
    19    26    28    1
    20     7     8   ar
    21     8     9   ar
    22    13    14    2
    23    16    17   am
    24    17    18    1
    25    18    19    1
    26    19    20    1
    27    20    21    1
    28    14    10    1
    29    21    17    1
    30     9     1   ar
    31     8     3   ar
@<TRIPOS>MOLECULE
*****
 28 31 0 0 0
SMALL
GASTEIGER

@<TRIPOS>ATOM
      1 C          -7.5492  -19.1085   21.6494 C.ar    1  UNL1        0.1637
      2 N          -8.9403  -19.5614   21.3184 N.ar    1  UNL1       -0.2334
      3 C          -9.8813  -18.9195   22.2943 C.ar    1  UNL1        0.0940
      4 C         -11.3707  -18.9988   22.4531 C.ar    1  UNL1        0.0239
      5 C         -12.0506  -18.2285   23.5460 C.ar    1  UNL1        0.0790
      6 C         -11.2410  -17.3789   24.4801 C.ar    1  UNL1        0.0798
      7 C          -9.7516  -17.2995   24.3214 C.ar    1  UNL1        0.2972
      8 C          -9.0717  -18.0698   23.2285 C.ar    1  UNL1        0.1179
      9 S          -7.6304  -18.1866   22.8299 S.2     1  UNL1       -0.0558
     10 C          -4.1323  -19.4099   19.8328 C.3     1  UNL1        0.2255
     11 C          -4.6064  -20.8327   19.7967 C.3     1  UNL1        0.2407
     12 O          -5.9440  -20.8929   20.4728 O.2     1  UNL1       -0.4564
     13 C          -6.2967  -19.5074   20.9268 C.2     1  UNL1        0.2456
     14 N          -5.1771  -18.5909   20.5312 N.2     1  UNL1       -0.2248
     15 O          -2.3294  -19.4256   17.9623 O.2     1  UNL1       -0.2726
     16 C          -2.8405  -18.8965   19.2694 C.2     1  UNL1        0.2519
     17 N          -2.0597  -17.8538   20.0133 N.am    1  UNL1       -0.2779
     18 C          -0.7586  -17.2483   19.5767 C.3     1  UNL1        0.0935
     19 C          -0.3378  -16.2538   20.6179 C.3     1  UNL1        0.0233
     20 C          -1.3787  -16.2448   21.6979 C.3     1  UNL1        0.0233
     21 C          -2.4429  -17.2336   21.3242 C.3     1  UNL1        0.0935
     22 C         -13.5401  -18.3079   23.7048 C.3     1  UNL1        0.4188
     23 F         -15.0296  -18.3872   23.8635 F       1  UNL1       -0.1659
     24 F         -13.3700  -18.5624   25.1732 F       1  UNL1       -0.1659
     25 F         -13.7102  -18.0533   22.2364 F       1  UNL1       -0.1659
     26 N          -8.9420  -16.4498   25.2555 N.pl3   1  UNL1        0.0815
     27 O          -8.6851  -16.9133   26.6589 O.2     1  UNL1        0.0415
     28 O          -8.3893  -15.1366   24.7864 O.co2   1  UNL1       -0.5760
@<TRIPOS>UNITY_ATOM_ATTR
26 1
charge 1
28 1
charge -1
@<TRIPOS>BOND
     1    15    16    2
     2    10    16    1
     3    10    11    1
     4    11    12    1
     5    12    13    1
     6    13     1    1
     7     1     2   ar
     8     2     3   ar
     9     3     4   ar
    10     4     5   ar
    11     5    22    1
    12    22    23    1
    13    22    24    1
    14    22    25    1
    15     5     6   ar
    16     6     7   ar
    17     7    26    1
    18    26    27    2
    19    26    28    1
    20     7     8   ar
    21     8     9   ar
    22    13    14    2
    23    16    17   am
    24    17    18    1
    25    18    19    1
    26    19    20    1
    27    20    21    1
    28    14    10    1
    29    21    17    1
    30     9     1   ar
    31     8     3   ar
@<TRIPOS>MOLECULE
*****
 28 31 0 0 0
SMALL
GASTEIGER

@<TRIPOS>ATOM
      1 C           5.2249   -1.7199   24.3257 C.ar    1  UNL1        0.1637
      2 N           4.3356   -0.6032   23.8651 N.ar    1  UNL1       -0.2334
      3 C           3.8092   -0.9601   22.5066 C.ar    1  UNL1        0.0940
      4 C           2.8892   -0.2402   21.5658 C.ar    1  UNL1        0.0239
      5 C           2.5332   -0.8576   20.2458 C.ar    1  UNL1        0.0790
      6 C           3.0971   -2.1948   19.8668 C.ar    1  UNL1        0.0798
      7 C           4.0171   -2.9147   20.8077 C.ar    1  UNL1        0.2972
      8 C           4.3731   -2.2974   22.1276 C.ar    1  UNL1        0.1179
      9 S           5.2481   -2.7670   23.2518 S.2     1  UNL1       -0.0558
     10 C           6.4680   -2.0953   27.9835 C.3     1  UNL1        0.2255
     11 C           7.7228   -1.6455   27.2955 C.3     1  UNL1        0.2407
     12 O           7.4099   -1.4501   25.8416 O.2     1  UNL1       -0.4564
     13 C           5.9616   -1.7792   25.6309 C.2     1  UNL1        0.2456
     14 N           5.3795   -2.1779   26.9546 N.2     1  UNL1       -0.2248
     15 O           5.8091   -1.3628   30.3874 O.2     1  UNL1       -0.2726
     16 C           6.3266   -2.4076   29.4437 C.2     1  UNL1        0.2519
     17 N           6.7025   -3.7648   29.9603 N.am    1  UNL1       -0.2779
     18 C           6.6157   -4.2203   31.3868 C.3     1  UNL1        0.0935
     19 C           7.0909   -5.6418   31.4491 C.3     1  UNL1        0.0233
     20 C           7.4713   -6.0646   30.0612 C.3     1  UNL1        0.0233
     21 C           7.2313   -4.9046   29.1410 C.3     1  UNL1        0.0935
     22 C           1.6131   -0.1376   19.3049 C.3     1  UNL1        0.4188
     23 F           0.6931    0.5824   18.3641 F       1  UNL1       -0.1659
     24 F           2.7819    0.2189   18.4350 F       1  UNL1       -0.1659
     25 F           0.4444   -0.4941   20.1749 F       1  UNL1       -0.1659
     26 N           4.5810   -4.2520   20.4287 N.pl3   1  UNL1        0.0815
     27 O           3.6652   -5.4236   20.2313 O.2     1  UNL1        0.0415
     28 O           6.0607   -4.4178   20.2470 O.co2   1  UNL1       -0.5760
@<TRIPOS>UNITY_ATOM_ATTR
26 1
charge 1
28 1
charge -1
@<TRIPOS>BOND
     1    15    16    2
     2    10    16    1
     3    10    11    1
     4    11    12    1
     5    12    13    1
     6    13     1    1
     7     1     2   ar
     8     2     3   ar
     9     3     4   ar
    10     4     5   ar
    11     5    22    1
    12    22    23    1
    13    22    24    1
    14    22    25    1
    15     5     6   ar
    16     6     7   ar
    17     7    26    1
    18    26    27    2
    19    26    28    1
    20     7     8   ar
    21     8     9   ar
    22    13    14    2
    23    16    17   am
    24    17    18    1
    25    18    19    1
    26    19    20    1
    27    20    21    1
    28    14    10    1
    29    21    17    1
    30     9     1   ar
    31     8     3   ar
