@<TRIPOS>MOLECULE
*****
 29 33 0 0 0
SMALL
GASTEIGER

@<TRIPOS>ATOM
      1 C           6.7531   -4.3840   23.8057 C.ar    1  UNL1        0.1902
      2 N           7.6515   -5.1485   22.8792 N.ar    1  UNL1       -0.1269
      3 N           7.3231   -4.7404   21.4736 N.ar    1  UNL1       -0.1316
      4 C           6.2217   -3.7238   21.5314 C.ar    1  UNL1        0.1615
      5 N           5.8694   -3.5034   22.9727 N.ar    1  UNL1       -0.2940
      6 C           4.7895   -2.5295   23.3404 C.3     1  UNL1        0.1302
      7 C           4.0618   -1.7759   22.2668 C.3     1  UNL1        0.1186
      8 N           4.4141   -1.9962   20.8255 N.am    1  UNL1       -0.2688
      9 C           3.6865   -1.2426   19.7519 C.2     1  UNL1        0.2493
     10 O           4.0387   -1.4630   18.3106 O.2     1  UNL1       -0.2699
     11 C           5.4941   -2.9702   20.4578 C.3     1  UNL1        0.1343
     12 C           5.8463   -3.1905   19.0165 C.3     1  UNL1        0.0298
     13 C           6.4413   -3.1083   28.9199 C.3     1  UNL1        0.0527
     14 C           6.5972   -3.8962   27.6531 C.ar    1  UNL1        0.0665
     15 C           6.8451   -5.3725   27.5580 C.ar    1  UNL1        0.0517
     16 S           6.9337   -5.7349   26.1051 S.2     1  UNL1       -0.0633
     17 C           6.7405   -4.4826   25.3024 C.ar    1  UNL1        0.1462
     18 N           6.5326   -3.3462   26.2591 N.ar    1  UNL1       -0.2395
     19 C           2.6066   -0.2687   20.1196 C.ar    1  UNL1        0.0536
     20 C           2.9480    1.1701   20.3710 C.ar    1  UNL1        0.0045
     21 C           1.8680    2.1440   20.7387 C.ar    1  UNL1        0.0006
     22 C           0.4467    1.6791   20.8551 C.ar    1  UNL1        0.0060
     23 C           0.1052    0.2403   20.6038 C.ar    1  UNL1        0.0006
     24 C           1.1851   -0.7336   20.2361 C.ar    1  UNL1        0.0045
     25 C          -0.6333    2.6530   21.2228 C.ar    1  UNL1        0.0295
     26 C          -1.6995    3.1750   20.3059 C.ar    1  UNL1        0.0070
     27 C          -2.5618    4.1205   21.0884 C.ar    1  UNL1        0.0075
     28 C          -2.0286    4.1829   22.4891 C.ar    1  UNL1        0.0354
     29 S          -0.8367    3.2759   22.5722 S.2     1  UNL1       -0.0864
@<TRIPOS>BOND
     1    13    14    1
     2    14    15   ar
     3    15    16   ar
     4    16    17   ar
     5    17     1    1
     6     1     2   ar
     7     2     3   ar
     8     3     4   ar
     9     4     5   ar
    10     5     6    1
    11     6     7    1
    12     7     8    1
    13     8     9   am
    14     9    10    2
    15     9    19    1
    16    19    20   ar
    17    20    21   ar
    18    21    22   ar
    19    22    25    1
    20    25    26   ar
    21    26    27   ar
    22    27    28   ar
    23    28    29   ar
    24    22    23   ar
    25    23    24   ar
    26     8    11    1
    27    11    12    1
    28    17    18   ar
    29    18    14   ar
    30     5     1   ar
    31    24    19   ar
    32    11     4    1
    33    29    25   ar
@<TRIPOS>MOLECULE
*****
 29 33 0 0 0
SMALL
GASTEIGER

@<TRIPOS>ATOM
      1 C           8.1307   -5.2194   27.6242 C.ar    1  UNL1        0.1902
      2 N           9.2609   -6.1988   27.5088 N.ar    1  UNL1       -0.1269
      3 N           9.5168   -6.4415   26.0509 N.ar    1  UNL1       -0.1316
      4 C           8.5448   -5.6121   25.2652 C.ar    1  UNL1        0.1615
      5 N           7.6881   -4.8568   26.2376 N.ar    1  UNL1       -0.2940
      6 C           6.6157   -3.9364   25.7348 C.3     1  UNL1        0.1302
      7 C           6.3999   -3.7714   24.2596 C.3     1  UNL1        0.1186
      8 N           7.2566   -4.5267   23.2872 N.am    1  UNL1       -0.2688
      9 C           7.0409   -4.3617   21.8120 C.2     1  UNL1        0.2493
     10 O           7.8976   -5.1170   20.8396 O.2     1  UNL1       -0.2699
     11 C           8.3291   -5.4471   23.7901 C.3     1  UNL1        0.1343
     12 C           9.1858   -6.2024   22.8177 C.3     1  UNL1        0.0298
     13 C           6.0031   -1.9901   31.2194 C.3     1  UNL1        0.0527
     14 C           6.5677   -3.2103   30.5544 C.ar    1  UNL1        0.0665
     15 C           6.7232   -4.5640   31.1817 C.ar    1  UNL1        0.0517
     16 S           7.3277   -5.4814   30.1603 S.2     1  UNL1       -0.0633
     17 C           7.5457   -4.6947   28.9019 C.ar    1  UNL1        0.1462
     18 N           7.0760   -3.2911   29.1455 N.ar    1  UNL1       -0.2395
     19 C           5.9685   -3.4413   21.3092 C.ar    1  UNL1        0.0536
     20 C           6.1700   -1.9559   21.3612 C.ar    1  UNL1        0.0045
     21 C           5.0975   -1.0355   20.8583 C.ar    1  UNL1        0.0006
     22 C           3.8236   -1.6006   20.3036 C.ar    1  UNL1        0.0060
     23 C           3.6221   -3.0861   20.2517 C.ar    1  UNL1        0.0006
     24 C           4.6945   -4.0065   20.7545 C.ar    1  UNL1        0.0045
     25 C           2.7511   -0.6803   19.8008 C.ar    1  UNL1        0.0295
     26 C           1.3947   -0.4898   20.4122 C.ar    1  UNL1        0.0070
     27 C           0.6521    0.5194   19.5876 C.ar    1  UNL1        0.0075
     28 C           1.5495    0.9526   18.4664 C.ar    1  UNL1        0.0354
     29 S           2.8469    0.2111   18.5982 S.2     1  UNL1       -0.0864
@<TRIPOS>BOND
     1    13    14    1
     2    14    15   ar
     3    15    16   ar
     4    16    17   ar
     5    17     1    1
     6     1     2   ar
     7     2     3   ar
     8     3     4   ar
     9     4     5   ar
    10     5     6    1
    11     6     7    1
    12     7     8    1
    13     8     9   am
    14     9    10    2
    15     9    19    1
    16    19    20   ar
    17    20    21   ar
    18    21    22   ar
    19    22    25    1
    20    25    26   ar
    21    26    27   ar
    22    27    28   ar
    23    28    29   ar
    24    22    23   ar
    25    23    24   ar
    26     8    11    1
    27    11    12    1
    28    17    18   ar
    29    18    14   ar
    30     5     1   ar
    31    24    19   ar
    32    11     4    1
    33    29    25   ar
@<TRIPOS>MOLECULE
*****
 29 33 0 0 0
SMALL
GASTEIGER

@<TRIPOS>ATOM
      1 C          -0.3857    2.9569   20.5688 C.ar    1  UNL1        0.1902
      2 N          -1.6315    3.6106   20.0485 N.ar    1  UNL1       -0.1269
      3 N          -2.5225    3.9070   21.2182 N.ar    1  UNL1       -0.1316
      4 C          -1.8274    3.4365   22.4614 C.ar    1  UNL1        0.1615
      5 N          -0.5068    2.8493   22.0600 N.ar    1  UNL1       -0.2940
      6 C           0.4149    2.2925   23.1042 C.3     1  UNL1        0.1302
      7 C           0.0159    2.3229   24.5499 C.3     1  UNL1        0.1186
      8 N          -1.3047    2.9100   24.9513 N.am    1  UNL1       -0.2688
      9 C          -1.7037    2.9404   26.3969 C.2     1  UNL1        0.2493
     10 O          -3.0244    3.5276   26.7983 O.2     1  UNL1       -0.2699
     11 C          -2.2264    3.4668   23.9070 C.3     1  UNL1        0.1343
     12 C          -3.5471    4.0540   24.3084 C.3     1  UNL1        0.0298
     13 C           2.8921   -0.1095   17.7879 C.3     1  UNL1        0.0527
     14 C           2.2837    1.0829   18.4646 C.ar    1  UNL1        0.0665
     15 C           2.8491    2.4722   18.4791 C.ar    1  UNL1        0.0517
     16 S           1.9179    3.3433   19.2691 S.2     1  UNL1       -0.0633
     17 C           0.7771    2.4924   19.7428 C.ar    1  UNL1        0.1462
     18 N           1.0032    1.0954   19.2456 N.ar    1  UNL1       -0.2395
     19 C          -0.7821    2.3836   27.4411 C.ar    1  UNL1        0.0536
     20 C          -0.9037    0.9486   27.8607 C.ar    1  UNL1        0.0045
     21 C           0.0180    0.3918   28.9050 C.ar    1  UNL1        0.0006
     22 C           1.0613    1.2700   29.5297 C.ar    1  UNL1        0.0060
     23 C           1.1830    2.7050   29.1101 C.ar    1  UNL1        0.0006
     24 C           0.2614    3.2618   28.0658 C.ar    1  UNL1        0.0045
     25 C           1.9831    0.7132   30.5740 C.ar    1  UNL1        0.0295
     26 C           2.7093   -0.5972   30.5008 C.ar    1  UNL1        0.0070
     27 C           3.5154   -0.7512   31.7563 C.ar    1  UNL1        0.0075
     28 C           3.2874    0.4642   32.6056 C.ar    1  UNL1        0.0354
     29 S           2.3403    1.3692   31.8747 S.2     1  UNL1       -0.0864
@<TRIPOS>BOND
     1    13    14    1
     2    14    15   ar
     3    15    16   ar
     4    16    17   ar
     5    17     1    1
     6     1     2   ar
     7     2     3   ar
     8     3     4   ar
     9     4     5   ar
    10     5     6    1
    11     6     7    1
    12     7     8    1
    13     8     9   am
    14     9    10    2
    15     9    19    1
    16    19    20   ar
    17    20    21   ar
    18    21    22   ar
    19    22    25    1
    20    25    26   ar
    21    26    27   ar
    22    27    28   ar
    23    28    29   ar
    24    22    23   ar
    25    23    24   ar
    26     8    11    1
    27    11    12    1
    28    17    18   ar
    29    18    14   ar
    30     5     1   ar
    31    24    19   ar
    32    11     4    1
    33    29    25   ar
@<TRIPOS>MOLECULE
*****
 29 33 0 0 0
SMALL
GASTEIGER

@<TRIPOS>ATOM
      1 C           2.2735   -0.3649   19.8524 C.ar    1  UNL1        0.1902
      2 N           1.5071    0.2429   18.7153 N.ar    1  UNL1       -0.1269
      3 N           0.5565    1.2538   19.2850 N.ar    1  UNL1       -0.1316
      4 C           0.7354    1.2706   20.7742 C.ar    1  UNL1        0.1615
      5 N           1.7965    0.2702   21.1249 N.ar    1  UNL1       -0.2940
      6 C           2.1914    0.0668   22.5576 C.3     1  UNL1        0.1302
      7 C           1.5251    0.8639   23.6396 C.3     1  UNL1        0.1186
      8 N           0.4639    1.8643   23.2889 N.am    1  UNL1       -0.2688
      9 C          -0.2024    2.6614   24.3709 C.2     1  UNL1        0.2493
     10 O          -1.2636    3.6618   24.0201 O.2     1  UNL1       -0.2699
     11 C           0.0691    2.0677   21.8561 C.3     1  UNL1        0.1343
     12 C          -0.9921    3.0681   21.5054 C.3     1  UNL1        0.0298
     13 C           4.6954   -4.9663   18.9344 C.3     1  UNL1        0.0527
     14 C           4.4443   -3.5374   19.3154 C.ar    1  UNL1        0.0665
     15 C           5.4731   -2.5617   19.8052 C.ar    1  UNL1        0.0517
     16 S           4.7851   -1.2545   20.0660 S.2     1  UNL1       -0.0633
     17 C           3.3312   -1.4223   19.7374 C.ar    1  UNL1        0.1462
     18 N           3.1206   -2.8332   19.2735 N.ar    1  UNL1       -0.2395
     19 C           0.1925    2.4580   25.8036 C.ar    1  UNL1        0.0536
     20 C           1.2987    3.2768   26.4001 C.ar    1  UNL1        0.0045
     21 C           1.6936    3.0734   27.8329 C.ar    1  UNL1        0.0006
     22 C           0.9823    2.0512   28.6690 C.ar    1  UNL1        0.0060
     23 C          -0.1239    1.2324   28.0725 C.ar    1  UNL1        0.0006
     24 C          -0.5188    1.4358   26.6398 C.ar    1  UNL1        0.0045
     25 C           1.3771    1.8478   30.1018 C.ar    1  UNL1        0.0295
     26 C           0.7501    2.5113   31.2919 C.ar    1  UNL1        0.0070
     27 C           1.4538    2.0187   32.5216 C.ar    1  UNL1        0.0075
     28 C           2.5158    1.0506   32.0915 C.ar    1  UNL1        0.0354
     29 S           2.4684    0.9450   30.5958 S.2     1  UNL1       -0.0864
@<TRIPOS>BOND
     1    13    14    1
     2    14    15   ar
     3    15    16   ar
     4    16    17   ar
     5    17     1    1
     6     1     2   ar
     7     2     3   ar
     8     3     4   ar
     9     4     5   ar
    10     5     6    1
    11     6     7    1
    12     7     8    1
    13     8     9   am
    14     9    10    2
    15     9    19    1
    16    19    20   ar
    17    20    21   ar
    18    21    22   ar
    19    22    25    1
    20    25    26   ar
    21    26    27   ar
    22    27    28   ar
    23    28    29   ar
    24    22    23   ar
    25    23    24   ar
    26     8    11    1
    27    11    12    1
    28    17    18   ar
    29    18    14   ar
    30     5     1   ar
    31    24    19   ar
    32    11     4    1
    33    29    25   ar
@<TRIPOS>MOLECULE
*****
 29 33 0 0 0
SMALL
GASTEIGER

@<TRIPOS>ATOM
      1 C           6.9239   -3.9229   29.6000 C.ar    1  UNL1        0.1902
      2 N           7.7013   -5.1431   29.9958 N.ar    1  UNL1       -0.1269
      3 N           8.0710   -5.8831   28.7445 N.ar    1  UNL1       -0.1316
      4 C           7.5221   -5.1203   27.5754 C.ar    1  UNL1        0.1615
      5 N           6.8131   -3.9088   28.1041 N.ar    1  UNL1       -0.2940
      6 C           6.1583   -2.9493   27.1552 C.3     1  UNL1        0.1302
      7 C           6.2124   -3.2013   25.6774 C.3     1  UNL1        0.1186
      8 N           6.9214   -4.4129   25.1487 N.am    1  UNL1       -0.2688
      9 C           6.9755   -4.6649   23.6711 C.2     1  UNL1        0.2493
     10 O           7.6845   -5.8765   23.1424 O.2     1  UNL1       -0.2699
     11 C           7.5762   -5.3724   26.0978 C.3     1  UNL1        0.1343
     12 C           8.2852   -6.5839   25.5691 C.3     1  UNL1        0.0298
     13 C           4.7074   -1.6587   33.8239 C.3     1  UNL1        0.0527
     14 C           5.3380   -1.8561   32.4772 C.ar    1  UNL1        0.0665
     15 C           5.6302   -0.7797   31.4742 C.ar    1  UNL1        0.0517
     16 S           6.2599   -1.4230   30.2742 S.2     1  UNL1       -0.0633
     17 C           6.3568   -2.8968   30.5357 C.ar    1  UNL1        0.1462
     18 N           5.7870   -3.1645   31.8972 N.ar    1  UNL1       -0.2395
     19 C           6.3207   -3.7054   22.7222 C.ar    1  UNL1        0.0536
     20 C           7.1104   -2.5719   22.1378 C.ar    1  UNL1        0.0045
     21 C           6.4555   -1.6124   21.1888 C.ar    1  UNL1        0.0006
     22 C           5.0109   -1.7864   20.8242 C.ar    1  UNL1        0.0060
     23 C           4.2212   -2.9200   21.4086 C.ar    1  UNL1        0.0006
     24 C           4.8761   -3.8795   22.3575 C.ar    1  UNL1        0.0045
     25 C           4.3560   -0.8269   19.8752 C.ar    1  UNL1        0.0295
     26 C           2.9122   -0.8359   19.4689 C.ar    1  UNL1        0.0070
     27 C           2.6938    0.2955   18.5085 C.ar    1  UNL1        0.0075
     28 C           4.0028    1.0038   18.3213 C.ar    1  UNL1        0.0354
     29 S           5.0302    0.3100   19.1660 S.2     1  UNL1       -0.0864
@<TRIPOS>BOND
     1    13    14    1
     2    14    15   ar
     3    15    16   ar
     4    16    17   ar
     5    17     1    1
     6     1     2   ar
     7     2     3   ar
     8     3     4   ar
     9     4     5   ar
    10     5     6    1
    11     6     7    1
    12     7     8    1
    13     8     9   am
    14     9    10    2
    15     9    19    1
    16    19    20   ar
    17    20    21   ar
    18    21    22   ar
    19    22    25    1
    20    25    26   ar
    21    26    27   ar
    22    27    28   ar
    23    28    29   ar
    24    22    23   ar
    25    23    24   ar
    26     8    11    1
    27    11    12    1
    28    17    18   ar
    29    18    14   ar
    30     5     1   ar
    31    24    19   ar
    32    11     4    1
    33    29    25   ar
@<TRIPOS>MOLECULE
*****
 29 33 0 0 0
SMALL
GASTEIGER

@<TRIPOS>ATOM
      1 C           6.2262   -3.2125   24.9515 C.ar    1  UNL1        0.1902
      2 N           6.9955   -4.4257   24.5199 N.ar    1  UNL1       -0.1269
      3 N           6.7000   -4.6701   23.0697 N.ar    1  UNL1       -0.1316
      4 C           5.7480   -3.6080   22.6052 C.ar    1  UNL1        0.1615
      5 N           5.4552   -2.7072   23.7682 N.ar    1  UNL1       -0.2940
      6 C           4.5243   -1.5431   23.5995 C.3     1  UNL1        0.1302
      7 C           3.8863   -1.2799   22.2677 C.3     1  UNL1        0.1186
      8 N           4.1791   -2.1808   21.1047 N.am    1  UNL1       -0.2688
      9 C           3.5411   -1.9176   19.7729 C.2     1  UNL1        0.2493
     10 O           3.8339   -2.8185   18.6099 O.2     1  UNL1       -0.2699
     11 C           5.1100   -3.3449   21.2734 C.3     1  UNL1        0.1343
     12 C           5.4028   -4.2457   20.1104 C.3     1  UNL1        0.0298
     13 C           4.6380   -0.8718   29.4102 C.3     1  UNL1        0.0527
     14 C           5.4975   -1.5344   28.3748 C.ar    1  UNL1        0.0665
     15 C           6.9618   -1.8329   28.5042 C.ar    1  UNL1        0.0517
     16 S           7.4130   -2.4979   27.2375 S.2     1  UNL1       -0.0633
     17 C           6.2276   -2.6103   26.3254 C.ar    1  UNL1        0.1462
     18 N           5.0437   -2.0149   27.0282 N.ar    1  UNL1       -0.2395
     19 C           2.6102   -0.7536   19.6042 C.ar    1  UNL1        0.0536
     20 C           1.2696   -0.7616   20.2771 C.ar    1  UNL1        0.0045
     21 C           0.3388    0.4025   20.1083 C.ar    1  UNL1        0.0006
     22 C           0.7485    1.5746   19.2667 C.ar    1  UNL1        0.0060
     23 C           2.0891    1.5826   18.5939 C.ar    1  UNL1        0.0006
     24 C           3.0200    0.4186   18.7626 C.ar    1  UNL1        0.0045
     25 C          -0.1823    2.7387   19.0980 C.ar    1  UNL1        0.0295
     26 C          -1.1933    3.2117   20.1001 C.ar    1  UNL1        0.0070
     27 C          -1.9014    4.3995   19.5189 C.ar    1  UNL1        0.0075
     28 C          -1.3280    4.6607   18.1576 C.ar    1  UNL1        0.0354
     29 S          -0.2655    3.6342   17.8975 S.2     1  UNL1       -0.0864
@<TRIPOS>BOND
     1    13    14    1
     2    14    15   ar
     3    15    16   ar
     4    16    17   ar
     5    17     1    1
     6     1     2   ar
     7     2     3   ar
     8     3     4   ar
     9     4     5   ar
    10     5     6    1
    11     6     7    1
    12     7     8    1
    13     8     9   am
    14     9    10    2
    15     9    19    1
    16    19    20   ar
    17    20    21   ar
    18    21    22   ar
    19    22    25    1
    20    25    26   ar
    21    26    27   ar
    22    27    28   ar
    23    28    29   ar
    24    22    23   ar
    25    23    24   ar
    26     8    11    1
    27    11    12    1
    28    17    18   ar
    29    18    14   ar
    30     5     1   ar
    31    24    19   ar
    32    11     4    1
    33    29    25   ar
@<TRIPOS>MOLECULE
*****
 29 33 0 0 0
SMALL
GASTEIGER

@<TRIPOS>ATOM
      1 C          -0.8834    3.2214   26.8934 C.ar    1  UNL1        0.1902
      2 N          -2.0304    4.1841   26.8073 N.ar    1  UNL1       -0.1269
      3 N          -2.3688    4.3735   25.3583 N.ar    1  UNL1       -0.1316
      4 C          -1.4309    3.5278   24.5488 C.ar    1  UNL1        0.1615
      5 N          -0.5129    2.8158   25.4976 N.ar    1  UNL1       -0.2940
      6 C           0.5419    1.8900   24.9680 C.3     1  UNL1        0.1302
      7 C           0.6785    1.6763   23.4895 C.3     1  UNL1        0.1186
      8 N          -0.2395    2.3884   22.5408 N.am    1  UNL1       -0.2688
      9 C          -0.1029    2.1747   21.0624 C.2     1  UNL1        0.2493
     10 O          -1.0210    2.8867   20.1137 O.2     1  UNL1       -0.2699
     11 C          -1.2943    3.3141   23.0705 C.3     1  UNL1        0.1343
     12 C          -2.2124    4.0262   22.1217 C.3     1  UNL1        0.0298
     13 C           1.8256    3.1573   31.4252 C.3     1  UNL1        0.0527
     14 C           1.0224    2.7180   30.2370 C.ar    1  UNL1        0.0665
     15 C           0.5652    1.3184   29.9505 C.ar    1  UNL1        0.0517
     16 S          -0.2044    1.3366   28.6630 S.2     1  UNL1       -0.0633
     17 C          -0.2228    2.7475   28.1539 C.ar    1  UNL1        0.1462
     18 N           0.5354    3.6012   29.1267 N.ar    1  UNL1       -0.2395
     19 C           0.9518    1.2489   20.5328 C.ar    1  UNL1        0.0536
     20 C           2.2625    1.8003   20.0552 C.ar    1  UNL1        0.0045
     21 C           3.3173    0.8745   19.5255 C.ar    1  UNL1        0.0006
     22 C           3.0613   -0.6026   19.4735 C.ar    1  UNL1        0.0060
     23 C           1.7506   -1.1539   19.9511 C.ar    1  UNL1        0.0006
     24 C           0.6959   -0.2282   20.4807 C.ar    1  UNL1        0.0045
     25 C           4.1160   -1.5284   18.9439 C.ar    1  UNL1        0.0295
     26 C           4.0735   -3.0273   18.9822 C.ar    1  UNL1        0.0070
     27 C           5.3297   -3.5431   18.3449 C.ar    1  UNL1        0.0075
     28 C           6.1486   -2.3629   17.9128 C.ar    1  UNL1        0.0354
     29 S           5.3984   -1.1177   18.2830 S.2     1  UNL1       -0.0864
@<TRIPOS>BOND
     1    13    14    1
     2    14    15   ar
     3    15    16   ar
     4    16    17   ar
     5    17     1    1
     6     1     2   ar
     7     2     3   ar
     8     3     4   ar
     9     4     5   ar
    10     5     6    1
    11     6     7    1
    12     7     8    1
    13     8     9   am
    14     9    10    2
    15     9    19    1
    16    19    20   ar
    17    20    21   ar
    18    21    22   ar
    19    22    25    1
    20    25    26   ar
    21    26    27   ar
    22    27    28   ar
    23    28    29   ar
    24    22    23   ar
    25    23    24   ar
    26     8    11    1
    27    11    12    1
    28    17    18   ar
    29    18    14   ar
    30     5     1   ar
    31    24    19   ar
    32    11     4    1
    33    29    25   ar
@<TRIPOS>MOLECULE
*****
 29 33 0 0 0
SMALL
GASTEIGER

@<TRIPOS>ATOM
      1 C           5.0540   -2.8600   20.6939 C.ar    1  UNL1        0.1902
      2 N           4.5921   -3.0347   19.2775 N.ar    1  UNL1       -0.1269
      3 N           3.3824   -2.1714   19.0747 N.ar    1  UNL1       -0.1316
      4 C           3.0965   -1.4632   20.3658 C.ar    1  UNL1        0.1615
      5 N           4.1297   -1.8888   21.3665 N.ar    1  UNL1       -0.2940
      6 C           4.0953   -1.3370   22.7609 C.3     1  UNL1        0.1302
      7 C           3.0278   -0.3595   23.1546 C.3     1  UNL1        0.1186
      8 N           1.9946    0.0661   22.1539 N.am    1  UNL1       -0.2688
      9 C           0.9271    1.0435   22.5475 C.2     1  UNL1        0.2493
     10 O          -0.1061    1.4691   21.5468 O.2     1  UNL1       -0.2699
     11 C           2.0290   -0.4858   20.7594 C.3     1  UNL1        0.1343
     12 C           0.9958   -0.0602   19.7587 C.3     1  UNL1        0.0298
     13 C           8.0606   -5.6032   24.0578 C.3     1  UNL1        0.0527
     14 C           7.6152   -4.7985   22.8729 C.ar    1  UNL1        0.0665
     15 C           8.4804   -4.3622   21.7279 C.ar    1  UNL1        0.0517
     16 S           7.6263   -3.5828   20.7722 S.2     1  UNL1       -0.0633
     17 C           6.2332   -3.5376   21.3266 C.ar    1  UNL1        0.1462
     18 N           6.2263   -4.2889   22.6249 N.ar    1  UNL1       -0.2395
     19 C           0.8927    1.5953   23.9419 C.ar    1  UNL1        0.0536
     20 C           1.7383    2.7813   24.3002 C.ar    1  UNL1        0.0045
     21 C           1.7039    3.3331   25.6946 C.ar    1  UNL1        0.0006
     22 C           0.8239    2.6989   26.7307 C.ar    1  UNL1        0.0060
     23 C          -0.0217    1.5129   26.3723 C.ar    1  UNL1        0.0006
     24 C           0.0127    0.9611   24.9780 C.ar    1  UNL1        0.0045
     25 C           0.7895    3.2507   28.1251 C.ar    1  UNL1        0.0295
     26 C           1.0518    2.4800   29.3850 C.ar    1  UNL1        0.0070
     27 C           0.9112    3.4231   30.5430 C.ar    1  UNL1        0.0075
     28 C           0.5620    4.7766   29.9987 C.ar    1  UNL1        0.0354
     29 S           0.4868    4.6700   28.5043 S.2     1  UNL1       -0.0864
@<TRIPOS>BOND
     1    13    14    1
     2    14    15   ar
     3    15    16   ar
     4    16    17   ar
     5    17     1    1
     6     1     2   ar
     7     2     3   ar
     8     3     4   ar
     9     4     5   ar
    10     5     6    1
    11     6     7    1
    12     7     8    1
    13     8     9   am
    14     9    10    2
    15     9    19    1
    16    19    20   ar
    17    20    21   ar
    18    21    22   ar
    19    22    25    1
    20    25    26   ar
    21    26    27   ar
    22    27    28   ar
    23    28    29   ar
    24    22    23   ar
    25    23    24   ar
    26     8    11    1
    27    11    12    1
    28    17    18   ar
    29    18    14   ar
    30     5     1   ar
    31    24    19   ar
    32    11     4    1
    33    29    25   ar
@<TRIPOS>MOLECULE
*****
 29 33 0 0 0
SMALL
GASTEIGER

@<TRIPOS>ATOM
      1 C           6.1187   -2.4375   29.5756 C.ar    1  UNL1        0.1902
      2 N           6.7165   -3.6037   30.3054 N.ar    1  UNL1       -0.1269
      3 N           7.1479   -4.6164   29.2865 N.ar    1  UNL1       -0.1316
      4 C           6.8166   -4.0762   27.9269 C.ar    1  UNL1        0.1615
      5 N           6.1806   -2.7296   28.1056 N.ar    1  UNL1       -0.2940
      6 C           5.7399   -1.9433   26.9066 C.3     1  UNL1        0.1302
      7 C           5.9353   -2.5036   25.5290 C.3     1  UNL1        0.1186
      8 N           6.5713   -3.8503   25.3503 N.am    1  UNL1       -0.2688
      9 C           6.7667   -4.4106   23.9727 C.2     1  UNL1        0.2493
     10 O           7.4028   -5.7573   23.7941 O.2     1  UNL1       -0.2699
     11 C           7.0120   -4.6366   26.5493 C.3     1  UNL1        0.1343
     12 C           7.6481   -5.9833   26.3707 C.3     1  UNL1        0.0298
     13 C           3.0244    0.8382   32.3279 C.3     1  UNL1        0.0527
     14 C           4.1352    0.3086   31.4702 C.ar    1  UNL1        0.0665
     15 C           5.2527    1.1150   30.8777 C.ar    1  UNL1        0.0517
     16 S           6.1318    0.1843   30.0958 S.2     1  UNL1       -0.0633
     17 C           5.5575   -1.1971   30.2051 C.ar    1  UNL1        0.1462
     18 N           4.3236   -1.1203   31.0546 N.ar    1  UNL1       -0.2395
     19 C           6.3260   -3.6243   22.7738 C.ar    1  UNL1        0.0536
     20 C           4.9102   -3.7263   22.2890 C.ar    1  UNL1        0.0045
     21 C           4.4695   -2.9399   21.0900 C.ar    1  UNL1        0.0006
     22 C           5.4447   -2.0516   20.3759 C.ar    1  UNL1        0.0060
     23 C           6.8605   -1.9497   20.8607 C.ar    1  UNL1        0.0006
     24 C           7.3012   -2.7360   22.0596 C.ar    1  UNL1        0.0045
     25 C           5.0040   -1.2653   19.1769 C.ar    1  UNL1        0.0295
     26 C           5.3135    0.1773   18.9062 C.ar    1  UNL1        0.0070
     27 C           4.6773    0.5507   17.6001 C.ar    1  UNL1        0.0075
     28 C           3.9746   -0.6612   17.0636 C.ar    1  UNL1        0.0354
     29 S           4.1765   -1.7835   18.0382 S.2     1  UNL1       -0.0864
@<TRIPOS>BOND
     1    13    14    1
     2    14    15   ar
     3    15    16   ar
     4    16    17   ar
     5    17     1    1
     6     1     2   ar
     7     2     3   ar
     8     3     4   ar
     9     4     5   ar
    10     5     6    1
    11     6     7    1
    12     7     8    1
    13     8     9   am
    14     9    10    2
    15     9    19    1
    16    19    20   ar
    17    20    21   ar
    18    21    22   ar
    19    22    25    1
    20    25    26   ar
    21    26    27   ar
    22    27    28   ar
    23    28    29   ar
    24    22    23   ar
    25    23    24   ar
    26     8    11    1
    27    11    12    1
    28    17    18   ar
    29    18    14   ar
    30     5     1   ar
    31    24    19   ar
    32    11     4    1
    33    29    25   ar
