@<TRIPOS>MOLECULE
*****
 38 42 0 0 0
SMALL
GASTEIGER

@<TRIPOS>ATOM
      1 C          -1.8370    3.4870   26.1842 C.3     1  UNL1        0.0870
      2 O          -1.4218    3.4540   19.3231 O.2     1  UNL1       -0.2699
      3 C          -0.5375    2.8328   20.3633 C.2     1  UNL1        0.2492
      4 N          -0.8624    2.9963   21.8185 N.am    1  UNL1       -0.2761
      5 C          -2.0716    3.7811   22.2335 C.3     1  UNL1        0.0938
      6 C          -2.3964    3.9447   23.6887 C.3     1  UNL1        0.0230
      7 C          -1.5121    3.3234   24.7290 C.3     1  UNL1        0.0205
      8 C          -0.3030    2.5387   24.3141 C.3     1  UNL1        0.0230
      9 C           0.0219    2.3751   22.8588 C.3     1  UNL1        0.0938
     10 C           0.6716    2.0481   19.9483 C.2     1  UNL1        0.0579
     11 C           0.5847    0.5578   19.8019 C.2     1  UNL1        0.0048
     12 C           1.7938   -0.2269   19.3869 C.ar    1  UNL1        0.0046
     13 C           2.3110   -1.3279   20.2646 C.ar    1  UNL1        0.0298
     14 C           3.5201   -2.1125   19.8495 C.ar    1  UNL1        0.1424
     15 F           4.0374   -3.2135   20.7271 F       1  UNL1       -0.2041
     16 C           4.2121   -1.7961   18.5568 C.ar    1  UNL1        0.0592
     17 C           3.6949   -0.6951   17.6791 C.ar    1  UNL1        0.1424
     18 F           4.3869   -0.3787   16.3865 F       1  UNL1       -0.2041
     19 C           2.4858    0.0895   18.0942 C.ar    1  UNL1        0.0298
     20 N          -0.9662    2.8458   27.2238 N.3     1  UNL1       -0.2717
     21 C           0.2012    3.5972   27.7917 C.3     1  UNL1        0.0725
     22 C           1.0719    2.9560   28.8312 C.3     1  UNL1        0.0218
     23 C           0.7753    1.5633   29.3029 C.3     1  UNL1        0.0267
     24 C          -0.3920    0.8119   28.7349 C.3     1  UNL1        0.0218
     25 C          -1.2628    1.4531   27.6954 C.3     1  UNL1        0.0725
     26 C           1.6460    0.9220   30.3424 C.ar    1  UNL1       -0.0004
     27 C           2.3942   -0.3692   30.1914 C.ar    1  UNL1        0.0963
     28 N           3.1320   -0.6297   31.4712 N.ar    1  UNL1       -0.2273
     29 C           2.8399    0.5005   32.4130 C.ar    1  UNL1        0.1402
     30 N           3.2915    0.7803   33.8158 N.ar    1  UNL1       -0.3374
     31 C           2.8247    2.0192   34.5209 C.ar    1  UNL1        0.0735
     32 C           1.9063    2.9783   33.8233 C.ar    1  UNL1        0.0186
     33 C           1.4547    2.6985   32.4205 C.ar    1  UNL1        0.0042
     34 C           1.9215    1.4596   31.7154 C.ar    1  UNL1        0.0315
     35 H           3.8943    0.1509   34.2737 H       1  UNL1        0.1674
     36 C          -3.0326    4.2917   26.6000 C.3     1  UNL1        0.1530
     37 O          -4.4057    3.6942   26.5137 O.3     1  UNL1       -0.3806
     38 H          -4.6318    3.5363   25.5837 H       1  UNL1        0.2105
@<TRIPOS>BOND
     1     2     3    2
     2     3    10    1
     3    10    11    2
     4    11    12    1
     5    12    13   ar
     6    13    14   ar
     7    14    15    1
     8    14    16   ar
     9    16    17   ar
    10    17    18    1
    11    17    19   ar
    12     3     4   am
    13     4     5    1
    14     5     6    1
    15     6     7    1
    16     7     1    1
    17     1    36    1
    18    36    37    1
    19     1    20    1
    20    20    21    1
    21    21    22    1
    22    22    23    1
    23    23    26    1
    24    26    27   ar
    25    27    28   ar
    26    28    29   ar
    27    29    30   ar
    28    30    31   ar
    29    31    32   ar
    30    32    33   ar
    31    33    34   ar
    32    23    24    1
    33    24    25    1
    34     7     8    1
    35     8     9    1
    36    19    12   ar
    37     9     4    1
    38    25    20    1
    39    34    26   ar
    40    34    29    1
    41    37    38    1
    42    30    35    1
@<TRIPOS>MOLECULE
*****
 38 42 0 0 0
SMALL
GASTEIGER

@<TRIPOS>ATOM
      1 C           8.0666   -6.5278   27.5604 C.3     1  UNL1        0.0870
      2 O           8.8164   -5.1629   20.8653 O.2     1  UNL1       -0.2699
      3 C           7.8221   -4.6531   21.8661 C.2     1  UNL1        0.2492
      4 N           7.8832   -5.1217   23.2897 N.am    1  UNL1       -0.2761
      5 C           8.9386   -6.1003   23.7125 C.3     1  UNL1        0.0938
      6 C           8.9998   -6.5690   25.1361 C.3     1  UNL1        0.0230
      7 C           8.0055   -6.0591   26.1368 C.3     1  UNL1        0.0205
      8 C           6.9501   -5.0806   25.7141 C.3     1  UNL1        0.0230
      9 C           6.8890   -4.6119   24.2905 C.3     1  UNL1        0.0938
     10 C           6.7668   -3.6746   21.4432 C.2     1  UNL1        0.0579
     11 C           6.1292   -3.7967   20.0910 C.2     1  UNL1        0.0048
     12 C           5.0739   -2.8182   19.6682 C.ar    1  UNL1        0.0046
     13 C           5.0363   -2.3203   18.2538 C.ar    1  UNL1        0.0298
     14 C           3.9809   -1.3417   17.8311 C.ar    1  UNL1        0.1424
     15 F           3.9432   -0.8437   16.4166 F       1  UNL1       -0.2041
     16 C           2.9633   -0.8611   18.8228 C.ar    1  UNL1        0.0592
     17 C           3.0010   -1.3591   20.2372 C.ar    1  UNL1        0.1424
     18 F           1.9833   -0.8785   21.2289 F       1  UNL1       -0.2041
     19 C           4.0563   -2.3376   20.6599 C.ar    1  UNL1        0.0298
     20 N           7.9920   -5.5336   28.6812 N.3     1  UNL1       -0.2717
     21 C           8.8633   -4.3128   28.6600 C.3     1  UNL1        0.0725
     22 C           8.7887   -3.3186   29.7808 C.3     1  UNL1        0.0218
     23 C           7.8428   -3.5453   30.9228 C.3     1  UNL1        0.0267
     24 C           6.9716   -4.7661   30.9439 C.3     1  UNL1        0.0218
     25 C           7.0462   -5.7603   29.8231 C.3     1  UNL1        0.0725
     26 C           7.7683   -2.5512   32.0436 C.ar    1  UNL1       -0.0004
     27 C           8.9233   -2.0610   32.8656 C.ar    1  UNL1        0.0963
     28 N           8.3944   -1.0796   33.8691 N.ar    1  UNL1       -0.2273
     29 C           6.9126   -0.9632   33.6673 C.ar    1  UNL1        0.1402
     30 N           5.8657   -0.1466   34.3651 N.ar    1  UNL1       -0.3374
     31 C           4.4318   -0.2395   33.9347 C.ar    1  UNL1        0.0735
     32 C           4.0448   -1.1490   32.8064 C.ar    1  UNL1        0.0186
     33 C           5.0917   -1.9656   32.1086 C.ar    1  UNL1        0.0042
     34 C           6.5256   -1.8727   32.5390 C.ar    1  UNL1        0.0315
     35 H           6.1196    0.4504   35.1057 H       1  UNL1        0.1674
     36 C           8.2023   -7.9905   27.8633 C.3     1  UNL1        0.1530
     37 O           7.2814   -8.9798   27.2126 O.3     1  UNL1       -0.3806
     38 H           6.3752   -8.8325   27.5258 H       1  UNL1        0.2105
@<TRIPOS>BOND
     1     2     3    2
     2     3    10    1
     3    10    11    2
     4    11    12    1
     5    12    13   ar
     6    13    14   ar
     7    14    15    1
     8    14    16   ar
     9    16    17   ar
    10    17    18    1
    11    17    19   ar
    12     3     4   am
    13     4     5    1
    14     5     6    1
    15     6     7    1
    16     7     1    1
    17     1    36    1
    18    36    37    1
    19     1    20    1
    20    20    21    1
    21    21    22    1
    22    22    23    1
    23    23    26    1
    24    26    27   ar
    25    27    28   ar
    26    28    29   ar
    27    29    30   ar
    28    30    31   ar
    29    31    32   ar
    30    32    33   ar
    31    33    34   ar
    32    23    24    1
    33    24    25    1
    34     7     8    1
    35     8     9    1
    36    19    12   ar
    37     9     4    1
    38    25    20    1
    39    34    26   ar
    40    34    29    1
    41    37    38    1
    42    30    35    1
@<TRIPOS>MOLECULE
*****
 38 42 0 0 0
SMALL
GASTEIGER

@<TRIPOS>ATOM
      1 C           4.2622   -0.5577   18.7140 C.3     1  UNL1        0.0870
      2 O           9.3797   -4.7490   20.5829 O.2     1  UNL1       -0.2699
      3 C           8.1654   -4.2869   21.3327 C.2     1  UNL1        0.2492
      4 N           7.1896   -3.3546   20.6780 N.am    1  UNL1       -0.2761
      5 C           7.4281   -2.8844   19.2736 C.3     1  UNL1        0.0938
      6 C           6.4523   -1.9521   18.6190 C.3     1  UNL1        0.0230
      7 C           5.2380   -1.4900   19.3687 C.3     1  UNL1        0.0205
      8 C           4.9995   -1.9601   20.7730 C.3     1  UNL1        0.0230
      9 C           5.9754   -2.8924   21.4277 C.3     1  UNL1        0.0938
     10 C           7.9271   -4.7571   22.7370 C.2     1  UNL1        0.0579
     11 C           8.4507   -6.0909   23.1804 C.2     1  UNL1        0.0048
     12 C           8.2123   -6.5610   24.5847 C.ar    1  UNL1        0.0046
     13 C           7.1958   -5.8700   25.4446 C.ar    1  UNL1        0.0298
     14 C           6.9575   -6.3401   26.8489 C.ar    1  UNL1        0.1424
     15 F           5.9410   -5.6492   27.7088 F       1  UNL1       -0.2041
     16 C           7.7355   -7.5013   27.3933 C.ar    1  UNL1        0.0592
     17 C           8.7519   -8.1923   26.5335 C.ar    1  UNL1        0.1424
     18 F           9.5300   -9.3534   27.0779 F       1  UNL1       -0.2041
     19 C           8.9903   -7.7221   25.1292 C.ar    1  UNL1        0.0298
     20 N           3.2345    0.1550   19.5423 N.3     1  UNL1       -0.2717
     21 C           1.8902   -0.4702   19.7706 C.3     1  UNL1        0.0725
     22 C           0.8626    0.2425   20.5989 C.3     1  UNL1        0.0218
     23 C           1.1792    1.5804   21.1988 C.3     1  UNL1        0.0267
     24 C           2.5234    2.2055   20.9705 C.3     1  UNL1        0.0218
     25 C           3.5511    1.4928   20.1423 C.3     1  UNL1        0.0725
     26 C           0.1515    2.2931   22.0271 C.ar    1  UNL1       -0.0004
     27 C          -0.8430    3.2977   21.5255 C.ar    1  UNL1        0.0963
     28 N          -1.6712    3.7517   22.6908 N.ar    1  UNL1       -0.2273
     29 C          -1.1885    3.0277   23.9126 C.ar    1  UNL1        0.1402
     30 N          -1.6293    3.0728   25.3456 N.ar    1  UNL1       -0.3374
     31 C          -0.9435    2.2164   26.3685 C.ar    1  UNL1        0.0735
     32 C           0.1830    1.3149   25.9583 C.ar    1  UNL1        0.0186
     33 C           0.6237    1.2698   24.5253 C.ar    1  UNL1        0.0042
     34 C          -0.0620    2.1262   23.5024 C.ar    1  UNL1        0.0315
     35 H          -2.3687    3.6645   25.6149 H       1  UNL1        0.1674
     36 C           4.3140   -0.3380   17.2312 C.3     1  UNL1        0.1530
     37 O           3.7358   -1.3626   16.3005 O.3     1  UNL1       -0.3806
     38 H           4.2512   -2.1820   16.3613 H       1  UNL1        0.2105
@<TRIPOS>BOND
     1     2     3    2
     2     3    10    1
     3    10    11    2
     4    11    12    1
     5    12    13   ar
     6    13    14   ar
     7    14    15    1
     8    14    16   ar
     9    16    17   ar
    10    17    18    1
    11    17    19   ar
    12     3     4   am
    13     4     5    1
    14     5     6    1
    15     6     7    1
    16     7     1    1
    17     1    36    1
    18    36    37    1
    19     1    20    1
    20    20    21    1
    21    21    22    1
    22    22    23    1
    23    23    26    1
    24    26    27   ar
    25    27    28   ar
    26    28    29   ar
    27    29    30   ar
    28    30    31   ar
    29    31    32   ar
    30    32    33   ar
    31    33    34   ar
    32    23    24    1
    33    24    25    1
    34     7     8    1
    35     8     9    1
    36    19    12   ar
    37     9     4    1
    38    25    20    1
    39    34    26   ar
    40    34    29    1
    41    37    38    1
    42    30    35    1
@<TRIPOS>MOLECULE
*****
 38 42 0 0 0
SMALL
GASTEIGER

@<TRIPOS>ATOM
      1 C           4.2844   -2.3974   19.8775 C.3     1  UNL1        0.0870
      2 O           1.8020    4.0033   19.5339 O.2     1  UNL1       -0.2699
      3 C           1.1107    2.6934   19.7714 C.2     1  UNL1        0.2492
      4 N           1.9041    1.4207   19.7980 N.am    1  UNL1       -0.2761
      5 C           3.3888    1.4579   19.5870 C.3     1  UNL1        0.0938
      6 C           4.1822    0.1852   19.6135 C.3     1  UNL1        0.0230
      7 C           3.4910   -1.1247   19.8510 C.3     1  UNL1        0.0205
      8 C           2.0064   -1.1619   20.0620 C.3     1  UNL1        0.0230
      9 C           1.2129    0.1108   20.0355 C.3     1  UNL1        0.0938
     10 C          -0.3739    2.6563   19.9824 C.2     1  UNL1        0.0579
     11 C          -1.2449    3.7139   19.3719 C.2     1  UNL1        0.0048
     12 C          -2.7295    3.6767   19.5829 C.ar    1  UNL1        0.0046
     13 C          -3.2876    3.2824   20.9182 C.ar    1  UNL1        0.0298
     14 C          -4.7722    3.2452   21.1291 C.ar    1  UNL1        0.1424
     15 F          -5.3304    2.8508   22.4644 F       1  UNL1       -0.2041
     16 C          -5.6987    3.6023   20.0049 C.ar    1  UNL1        0.0592
     17 C          -5.1406    3.9967   18.6696 C.ar    1  UNL1        0.1424
     18 F          -6.0671    4.3539   17.5453 F       1  UNL1       -0.2041
     19 C          -3.6560    4.0339   18.4586 C.ar    1  UNL1        0.0298
     20 N           4.9508   -2.8394   21.1466 N.3     1  UNL1       -0.2717
     21 C           4.3158   -2.5379   22.4716 C.3     1  UNL1        0.0725
     22 C           4.9822   -2.9799   23.7407 C.3     1  UNL1        0.0218
     23 C           6.2838   -3.7236   23.6846 C.3     1  UNL1        0.0267
     24 C           6.9187   -4.0251   22.3596 C.3     1  UNL1        0.0218
     25 C           6.2523   -3.5830   21.0906 C.3     1  UNL1        0.0725
     26 C           6.9502   -4.1656   24.9537 C.ar    1  UNL1       -0.0004
     27 C           6.9882   -3.3995   26.2427 C.ar    1  UNL1        0.0963
     28 N           7.7571   -4.2119   27.2421 N.ar    1  UNL1       -0.2273
     29 C           8.1943   -5.4800   26.5708 C.ar    1  UNL1        0.1402
     30 N           8.9821   -6.6570   27.0647 N.ar    1  UNL1       -0.3374
     31 C           9.2712   -7.8055   26.1441 C.ar    1  UNL1        0.0735
     32 C           8.7724   -7.7769   24.7298 C.ar    1  UNL1        0.0186
     33 C           7.9846   -6.5999   24.2359 C.ar    1  UNL1        0.0042
     34 C           7.6956   -5.4514   25.1564 C.ar    1  UNL1        0.0315
     35 H           9.3094   -6.6758   27.9930 H       1  UNL1        0.1674
     36 C           4.4114   -3.2281   18.6351 C.3     1  UNL1        0.1530
     37 O           5.1658   -2.6976   17.4520 O.3     1  UNL1       -0.3806
     38 H           4.6973   -1.9305   17.0873 H       1  UNL1        0.2105
@<TRIPOS>BOND
     1     2     3    2
     2     3    10    1
     3    10    11    2
     4    11    12    1
     5    12    13   ar
     6    13    14   ar
     7    14    15    1
     8    14    16   ar
     9    16    17   ar
    10    17    18    1
    11    17    19   ar
    12     3     4   am
    13     4     5    1
    14     5     6    1
    15     6     7    1
    16     7     1    1
    17     1    36    1
    18    36    37    1
    19     1    20    1
    20    20    21    1
    21    21    22    1
    22    22    23    1
    23    23    26    1
    24    26    27   ar
    25    27    28   ar
    26    28    29   ar
    27    29    30   ar
    28    30    31   ar
    29    31    32   ar
    30    32    33   ar
    31    33    34   ar
    32    23    24    1
    33    24    25    1
    34     7     8    1
    35     8     9    1
    36    19    12   ar
    37     9     4    1
    38    25    20    1
    39    34    26   ar
    40    34    29    1
    41    37    38    1
    42    30    35    1
@<TRIPOS>MOLECULE
*****
 38 42 0 0 0
SMALL
GASTEIGER

@<TRIPOS>ATOM
      1 C           4.1376   -1.4598   19.3067 C.3     1  UNL1        0.0870
      2 O          -0.0909    3.9384   18.8287 O.2     1  UNL1       -0.2699
      3 C          -0.0029    2.8478   19.8549 C.2     1  UNL1        0.2492
      4 N           1.0322    1.7709   19.7178 N.am    1  UNL1       -0.2761
      5 C           1.9794    1.7846   18.5546 C.3     1  UNL1        0.0938
      6 C           3.0145    0.7077   18.4176 C.3     1  UNL1        0.0230
      7 C           3.1025   -0.3829   19.4437 C.3     1  UNL1        0.0205
      8 C           2.1554   -0.3966   20.6068 C.3     1  UNL1        0.0230
      9 C           1.1203    0.6803   20.7439 C.3     1  UNL1        0.0938
     10 C          -0.9500    2.8341   21.0179 C.2     1  UNL1        0.0579
     11 C          -2.2085    3.6488   20.9700 C.2     1  UNL1        0.0048
     12 C          -3.1556    3.6351   22.1331 C.ar    1  UNL1        0.0046
     13 C          -2.6227    3.5630   23.5334 C.ar    1  UNL1        0.0298
     14 C          -3.5698    3.5493   24.6964 C.ar    1  UNL1        0.1424
     15 F          -3.0369    3.4772   26.0968 F       1  UNL1       -0.2041
     16 C          -5.0498    3.6077   24.4593 C.ar    1  UNL1        0.0592
     17 C          -5.5827    3.6798   23.0590 C.ar    1  UNL1        0.1424
     18 F          -7.0626    3.7382   22.8218 F       1  UNL1       -0.2041
     19 C          -4.6356    3.6935   21.8959 C.ar    1  UNL1        0.0298
     20 N           4.7664   -2.0559   20.5311 N.3     1  UNL1       -0.2717
     21 C           4.1939   -3.3031   21.1367 C.3     1  UNL1        0.0725
     22 C           4.8226   -3.8993   22.3612 C.3     1  UNL1        0.0218
     23 C           6.0240   -3.2481   22.9801 C.3     1  UNL1        0.0267
     24 C           6.5964   -2.0010   22.3745 C.3     1  UNL1        0.0218
     25 C           5.9677   -1.4049   21.1500 C.3     1  UNL1        0.0725
     26 C           6.6528   -3.8443   24.2046 C.ar    1  UNL1       -0.0004
     27 C           6.5136   -3.3297   25.6066 C.ar    1  UNL1        0.0963
     28 N           7.3059   -4.2271   26.5105 N.ar    1  UNL1       -0.2273
     29 C           7.9347   -5.2962   25.6670 C.ar    1  UNL1        0.1402
     30 N           8.8228   -6.4547   26.0126 N.ar    1  UNL1       -0.3374
     31 C           9.3071   -7.3765   24.9330 C.ar    1  UNL1        0.0735
     32 C           8.9034   -7.1399   23.5078 C.ar    1  UNL1        0.0186
     33 C           8.0154   -5.9815   23.1622 C.ar    1  UNL1        0.0042
     34 C           7.5311   -5.0597   24.2418 C.ar    1  UNL1        0.0315
     35 H           9.0877   -6.6099   26.9479 H       1  UNL1        0.1674
     36 C           4.5440   -1.9406   17.9452 C.3     1  UNL1        0.1530
     37 O           5.3686   -3.1858   17.8048 O.3     1  UNL1       -0.3806
     38 H           6.2451   -3.0387   18.1934 H       1  UNL1        0.2105
@<TRIPOS>BOND
     1     2     3    2
     2     3    10    1
     3    10    11    2
     4    11    12    1
     5    12    13   ar
     6    13    14   ar
     7    14    15    1
     8    14    16   ar
     9    16    17   ar
    10    17    18    1
    11    17    19   ar
    12     3     4   am
    13     4     5    1
    14     5     6    1
    15     6     7    1
    16     7     1    1
    17     1    36    1
    18    36    37    1
    19     1    20    1
    20    20    21    1
    21    21    22    1
    22    22    23    1
    23    23    26    1
    24    26    27   ar
    25    27    28   ar
    26    28    29   ar
    27    29    30   ar
    28    30    31   ar
    29    31    32   ar
    30    32    33   ar
    31    33    34   ar
    32    23    24    1
    33    24    25    1
    34     7     8    1
    35     8     9    1
    36    19    12   ar
    37     9     4    1
    38    25    20    1
    39    34    26   ar
    40    34    29    1
    41    37    38    1
    42    30    35    1
@<TRIPOS>MOLECULE
*****
 38 42 0 0 0
SMALL
GASTEIGER

@<TRIPOS>ATOM
      1 C          -1.1447    3.0928   26.0971 C.3     1  UNL1        0.0870
      2 O           0.6920    1.4421   19.6822 O.2     1  UNL1       -0.2699
      3 C           1.2185    0.9725   21.0060 C.2     1  UNL1        0.2492
      4 N           0.6277    1.5026   22.2787 N.am    1  UNL1       -0.2761
      5 C          -0.4896    2.5023   22.2277 C.3     1  UNL1        0.0938
      6 C          -1.0804    3.0323   23.5005 C.3     1  UNL1        0.0230
      7 C          -0.5539    2.5627   24.8243 C.3     1  UNL1        0.0205
      8 C           0.5633    1.5631   24.8753 C.3     1  UNL1        0.0230
      9 C           1.1541    1.0331   23.6025 C.3     1  UNL1        0.0938
     10 C           2.3357   -0.0271   21.0569 C.2     1  UNL1        0.0579
     11 C           2.4473   -1.0818   19.9963 C.2     1  UNL1        0.0048
     12 C           3.5645   -2.0814   20.0473 C.ar    1  UNL1        0.0046
     13 C           4.6939   -1.8951   21.0168 C.ar    1  UNL1        0.0298
     14 C           5.8111   -2.8947   21.0677 C.ar    1  UNL1        0.1424
     15 F           6.9405   -2.7085   22.0372 F       1  UNL1       -0.2041
     16 C           5.7990   -4.0806   20.1492 C.ar    1  UNL1        0.0592
     17 C           4.6696   -4.2669   19.1797 C.ar    1  UNL1        0.1424
     18 F           4.6575   -5.4527   18.2612 F       1  UNL1       -0.2041
     19 C           3.5524   -3.2673   19.1288 C.ar    1  UNL1        0.0298
     20 N          -0.4692    2.8198   27.4082 N.3     1  UNL1       -0.2717
     21 C          -0.7608    1.5503   28.1522 C.3     1  UNL1        0.0725
     22 C          -0.0853    1.2773   29.4633 C.3     1  UNL1        0.0218
     23 C           0.8819    2.2738   30.0306 C.3     1  UNL1        0.0267
     24 C           1.1734    3.5432   29.2867 C.3     1  UNL1        0.0218
     25 C           0.4979    3.8162   27.9755 C.3     1  UNL1        0.0725
     26 C           1.5574    2.0007   31.3418 C.ar    1  UNL1       -0.0004
     27 C           2.4497    0.8345   31.6479 C.ar    1  UNL1        0.0963
     28 N           2.9029    0.9590   33.0723 N.ar    1  UNL1       -0.2273
     29 C           2.2908    2.2022   33.6466 C.ar    1  UNL1        0.1402
     30 N           2.3831    2.8312   35.0052 N.ar    1  UNL1       -0.3374
     31 C           1.6439    4.1039   35.2942 C.ar    1  UNL1        0.0735
     32 C           0.8123    4.7478   34.2247 C.ar    1  UNL1        0.0186
     33 C           0.7199    4.1188   32.8661 C.ar    1  UNL1        0.0042
     34 C           1.4592    2.8461   32.5770 C.ar    1  UNL1        0.0315
     35 H           2.9289    2.4086   35.7072 H       1  UNL1        0.1674
     36 C          -2.4110    3.8959   26.0588 C.3     1  UNL1        0.1530
     37 O          -3.5738    3.5045   26.9218 O.3     1  UNL1       -0.3806
     38 H          -3.9176    2.6454   26.6308 H       1  UNL1        0.2105
@<TRIPOS>BOND
     1     2     3    2
     2     3    10    1
     3    10    11    2
     4    11    12    1
     5    12    13   ar
     6    13    14   ar
     7    14    15    1
     8    14    16   ar
     9    16    17   ar
    10    17    18    1
    11    17    19   ar
    12     3     4   am
    13     4     5    1
    14     5     6    1
    15     6     7    1
    16     7     1    1
    17     1    36    1
    18    36    37    1
    19     1    20    1
    20    20    21    1
    21    21    22    1
    22    22    23    1
    23    23    26    1
    24    26    27   ar
    25    27    28   ar
    26    28    29   ar
    27    29    30   ar
    28    30    31   ar
    29    31    32   ar
    30    32    33   ar
    31    33    34   ar
    32    23    24    1
    33    24    25    1
    34     7     8    1
    35     8     9    1
    36    19    12   ar
    37     9     4    1
    38    25    20    1
    39    34    26   ar
    40    34    29    1
    41    37    38    1
    42    30    35    1
@<TRIPOS>MOLECULE
*****
 38 42 0 0 0
SMALL
GASTEIGER

@<TRIPOS>ATOM
      1 C           1.4328    2.3527   27.4375 C.3     1  UNL1        0.0870
      2 O          -0.1570    0.8514   20.9208 O.2     1  UNL1       -0.2699
      3 C           1.1119    0.6467   21.6941 C.2     1  UNL1        0.2492
      4 N           1.1921    1.0732   23.1300 N.am    1  UNL1       -0.2761
      5 C           0.0035    1.7044   23.7924 C.3     1  UNL1        0.0938
      6 C           0.0837    2.1309   25.2283 C.3     1  UNL1        0.0230
      7 C           1.3526    1.9262   26.0016 C.3     1  UNL1        0.0205
      8 C           2.5412    1.2950   25.3392 C.3     1  UNL1        0.0230
      9 C           2.4610    0.8685   23.9034 C.3     1  UNL1        0.0938
     10 C           2.3004    0.0155   21.0316 C.2     1  UNL1        0.0579
     11 C           2.1150   -1.1661   20.1264 C.2     1  UNL1        0.0048
     12 C           3.3036   -1.7972   19.4639 C.ar    1  UNL1        0.0046
     13 C           4.3749   -0.9343   18.8659 C.ar    1  UNL1        0.0298
     14 C           5.5635   -1.5655   18.2034 C.ar    1  UNL1        0.1424
     15 F           6.6349   -0.7026   17.6054 F       1  UNL1       -0.2041
     16 C           5.6808   -3.0595   18.1390 C.ar    1  UNL1        0.0592
     17 C           4.6094   -3.9224   18.7371 C.ar    1  UNL1        0.1424
     18 F           4.7267   -5.4164   18.6727 F       1  UNL1       -0.2041
     19 C           3.4209   -3.2912   19.3995 C.ar    1  UNL1        0.0298
     20 N           2.1701    1.5052   28.4315 N.3     1  UNL1       -0.2717
     21 C           1.5145    0.2868   29.0108 C.3     1  UNL1        0.0725
     22 C           2.2518   -0.5607   30.0049 C.3     1  UNL1        0.0218
     23 C           3.6449   -0.1897   30.4197 C.3     1  UNL1        0.0267
     24 C           4.3004    1.0287   29.8404 C.3     1  UNL1        0.0218
     25 C           3.5631    1.8762   28.8463 C.3     1  UNL1        0.0725
     26 C           4.3822   -1.0372   31.4137 C.ar    1  UNL1       -0.0004
     27 C           4.1222   -1.0923   32.8900 C.ar    1  UNL1        0.0963
     28 N           5.0883   -2.0675   33.4946 N.ar    1  UNL1       -0.2273
     29 C           5.9454   -2.6151   32.3921 C.ar    1  UNL1        0.1402
     30 N           7.0668   -3.6112   32.3931 N.ar    1  UNL1       -0.3374
     31 C           7.7518   -3.9706   31.1080 C.ar    1  UNL1        0.0735
     32 C           7.3154   -3.3338   29.8219 C.ar    1  UNL1        0.0186
     33 C           6.1940   -2.3376   29.8209 C.ar    1  UNL1        0.0042
     34 C           5.5090   -1.9783   31.1060 C.ar    1  UNL1        0.0315
     35 H           7.3532   -4.0292   33.2372 H       1  UNL1        0.1674
     36 C           0.7758    3.6266   27.8793 C.3     1  UNL1        0.1530
     37 O           1.5405    4.6173   28.7062 O.3     1  UNL1       -0.3806
     38 H           1.7410    4.2292   29.5723 H       1  UNL1        0.2105
@<TRIPOS>BOND
     1     2     3    2
     2     3    10    1
     3    10    11    2
     4    11    12    1
     5    12    13   ar
     6    13    14   ar
     7    14    15    1
     8    14    16   ar
     9    16    17   ar
    10    17    18    1
    11    17    19   ar
    12     3     4   am
    13     4     5    1
    14     5     6    1
    15     6     7    1
    16     7     1    1
    17     1    36    1
    18    36    37    1
    19     1    20    1
    20    20    21    1
    21    21    22    1
    22    22    23    1
    23    23    26    1
    24    26    27   ar
    25    27    28   ar
    26    28    29   ar
    27    29    30   ar
    28    30    31   ar
    29    31    32   ar
    30    32    33   ar
    31    33    34   ar
    32    23    24    1
    33    24    25    1
    34     7     8    1
    35     8     9    1
    36    19    12   ar
    37     9     4    1
    38    25    20    1
    39    34    26   ar
    40    34    29    1
    41    37    38    1
    42    30    35    1
@<TRIPOS>MOLECULE
*****
 38 42 0 0 0
SMALL
GASTEIGER

@<TRIPOS>ATOM
      1 C          -2.0740    3.7117   25.9113 C.3     1  UNL1        0.0870
      2 O          -1.3844    3.5033   19.0754 O.2     1  UNL1       -0.2699
      3 C          -0.5432    2.9087   20.1658 C.2     1  UNL1        0.2492
      4 N          -0.9259    3.1095   21.6022 N.am    1  UNL1       -0.2761
      5 C          -2.1498    3.9047   21.9482 C.3     1  UNL1        0.0938
      6 C          -2.5326    4.1055   23.3846 C.3     1  UNL1        0.0230
      7 C          -1.6913    3.5109   24.4750 C.3     1  UNL1        0.0205
      8 C          -0.4674    2.7157   24.1290 C.3     1  UNL1        0.0230
      9 C          -0.0847    2.5149   22.6926 C.3     1  UNL1        0.0938
     10 C           0.6807    2.1135   19.8198 C.2     1  UNL1        0.0579
     11 C           0.5852    0.6264   19.6483 C.2     1  UNL1        0.0048
     12 C           1.8091   -0.1687   19.3023 C.ar    1  UNL1        0.0046
     13 C           2.5720    0.1368   18.0474 C.ar    1  UNL1        0.0298
     14 C           3.7959   -0.6584   17.7015 C.ar    1  UNL1        0.1424
     15 F           4.5589   -0.3529   16.4466 F       1  UNL1       -0.2041
     16 C           4.2569   -1.7591   18.6103 C.ar    1  UNL1        0.0592
     17 C           3.4940   -2.0646   19.8651 C.ar    1  UNL1        0.1424
     18 F           3.9550   -3.1653   20.7739 F       1  UNL1       -0.2041
     19 C           2.2701   -1.2694   20.2111 C.ar    1  UNL1        0.0298
     20 N          -1.1875    3.1910   27.0036 N.3     1  UNL1       -0.2717
     21 C          -1.2812    1.7544   27.4249 C.3     1  UNL1        0.0725
     22 C          -0.3947    1.2337   28.5171 C.3     1  UNL1        0.0218
     23 C           0.5857    2.1497   29.1880 C.3     1  UNL1        0.0267
     24 C           0.6794    3.5862   28.7667 C.3     1  UNL1        0.0218
     25 C          -0.2072    4.1068   27.6744 C.3     1  UNL1        0.0725
     26 C           1.4723    1.6290   30.2802 C.ar    1  UNL1       -0.0004
     27 C           1.3540    1.9508   31.7405 C.ar    1  UNL1        0.0963
     28 N           2.4414    1.2158   32.4666 N.ar    1  UNL1       -0.2273
     29 C           3.2317    0.4397   31.4551 C.ar    1  UNL1        0.1402
     30 N           4.4194   -0.4665   31.5900 N.ar    1  UNL1       -0.3374
     31 C           5.0081   -1.1172   30.3735 C.ar    1  UNL1        0.0735
     32 C           4.4091   -0.8618   29.0222 C.ar    1  UNL1        0.0186
     33 C           3.2215    0.0444   28.8874 C.ar    1  UNL1        0.0042
     34 C           2.6328    0.6951   30.1038 C.ar    1  UNL1        0.0315
     35 H           4.8125   -0.6341   32.4769 H       1  UNL1        0.1674
     36 C          -3.3433    4.4330   26.2556 C.3     1  UNL1        0.1530
     37 O          -4.6529    3.7023   26.2263 O.3     1  UNL1       -0.3806
     38 H          -4.8570    3.4408   25.3148 H       1  UNL1        0.2105
@<TRIPOS>BOND
     1     2     3    2
     2     3    10    1
     3    10    11    2
     4    11    12    1
     5    12    13   ar
     6    13    14   ar
     7    14    15    1
     8    14    16   ar
     9    16    17   ar
    10    17    18    1
    11    17    19   ar
    12     3     4   am
    13     4     5    1
    14     5     6    1
    15     6     7    1
    16     7     1    1
    17     1    36    1
    18    36    37    1
    19     1    20    1
    20    20    21    1
    21    21    22    1
    22    22    23    1
    23    23    26    1
    24    26    27   ar
    25    27    28   ar
    26    28    29   ar
    27    29    30   ar
    28    30    31   ar
    29    31    32   ar
    30    32    33   ar
    31    33    34   ar
    32    23    24    1
    33    24    25    1
    34     7     8    1
    35     8     9    1
    36    19    12   ar
    37     9     4    1
    38    25    20    1
    39    34    26   ar
    40    34    29    1
    41    37    38    1
    42    30    35    1
@<TRIPOS>MOLECULE
*****
 38 42 0 0 0
SMALL
GASTEIGER

@<TRIPOS>ATOM
      1 C           6.6334   -3.3642   30.9906 C.3     1  UNL1        0.0870
      2 O           7.7236   -4.9563   24.3932 O.2     1  UNL1       -0.2699
      3 C           6.8675   -3.8952   25.0188 C.2     1  UNL1        0.2492
      4 N           6.8090   -3.7625   26.5118 N.am    1  UNL1       -0.2761
      5 C           7.6066   -4.6907   27.3791 C.3     1  UNL1        0.0938
      6 C           7.5481   -4.5580   28.8721 C.3     1  UNL1        0.0230
      7 C           6.6919   -3.4969   29.4977 C.3     1  UNL1        0.0205
      8 C           5.8943   -2.5687   28.6304 C.3     1  UNL1        0.0230
      9 C           5.9528   -2.7015   27.1374 C.3     1  UNL1        0.0938
     10 C           6.0699   -2.9671   24.1514 C.2     1  UNL1        0.0579
     11 C           5.0534   -3.5202   23.1972 C.2     1  UNL1        0.0048
     12 C           4.2558   -2.5920   22.3298 C.ar    1  UNL1        0.0046
     13 C           4.2391   -2.7843   20.8423 C.ar    1  UNL1        0.0298
     14 C           3.4416   -1.8560   19.9750 C.ar    1  UNL1        0.1424
     15 F           3.4249   -2.0483   18.4875 F       1  UNL1       -0.2041
     16 C           2.6608   -0.7355   20.5952 C.ar    1  UNL1        0.0592
     17 C           2.6775   -0.5431   22.0827 C.ar    1  UNL1        0.1424
     18 F           1.8967    0.5774   22.7029 F       1  UNL1       -0.2041
     19 C           3.4750   -1.4714   22.9500 C.ar    1  UNL1        0.0298
     20 N           5.8810   -2.2258   31.6135 N.3     1  UNL1       -0.2717
     21 C           6.3236   -0.8130   31.3722 C.3     1  UNL1        0.0725
     22 C           5.5711    0.3254   31.9951 C.3     1  UNL1        0.0218
     23 C           4.3760    0.0509   32.8592 C.3     1  UNL1        0.0267
     24 C           3.9335   -1.3618   33.1003 C.3     1  UNL1        0.0218
     25 C           4.6859   -2.5002   32.4775 C.3     1  UNL1        0.0725
     26 C           3.6236    1.1893   33.4820 C.ar    1  UNL1       -0.0004
     27 C           3.9004    1.7999   34.8238 C.ar    1  UNL1        0.0963
     28 N           2.9101    2.9049   35.0434 N.ar    1  UNL1       -0.2273
     29 C           2.0212    2.9773   33.8373 C.ar    1  UNL1        0.1402
     30 N           0.8673    3.8717   33.4931 N.ar    1  UNL1       -0.3374
     31 C           0.1543    3.7057   32.1839 C.ar    1  UNL1        0.0735
     32 C           0.5953    2.6454   31.2189 C.ar    1  UNL1        0.0186
     33 C           1.7492    1.7510   31.5631 C.ar    1  UNL1        0.0042
     34 C           2.4622    1.9170   32.8723 C.ar    1  UNL1        0.0315
     35 H           0.5779    4.5676   34.1265 H       1  UNL1        0.1674
     36 C           7.3273   -4.3697   31.8608 C.3     1  UNL1        0.1530
     37 O           6.5500   -5.5005   32.4669 O.3     1  UNL1       -0.3806
     38 H           5.9103   -5.1476   33.1049 H       1  UNL1        0.2105
@<TRIPOS>BOND
     1     2     3    2
     2     3    10    1
     3    10    11    2
     4    11    12    1
     5    12    13   ar
     6    13    14   ar
     7    14    15    1
     8    14    16   ar
     9    16    17   ar
    10    17    18    1
    11    17    19   ar
    12     3     4   am
    13     4     5    1
    14     5     6    1
    15     6     7    1
    16     7     1    1
    17     1    36    1
    18    36    37    1
    19     1    20    1
    20    20    21    1
    21    21    22    1
    22    22    23    1
    23    23    26    1
    24    26    27   ar
    25    27    28   ar
    26    28    29   ar
    27    29    30   ar
    28    30    31   ar
    29    31    32   ar
    30    32    33   ar
    31    33    34   ar
    32    23    24    1
    33    24    25    1
    34     7     8    1
    35     8     9    1
    36    19    12   ar
    37     9     4    1
    38    25    20    1
    39    34    26   ar
    40    34    29    1
    41    37    38    1
    42    30    35    1
