@<TRIPOS>MOLECULE
*****
 32 35 0 0 0
SMALL
GASTEIGER

@<TRIPOS>ATOM
      1 C          -8.8053  -19.1603   21.6319 C.ar    1  UNL1        0.0338
      2 C          -9.8108  -19.5722   20.5979 C.ar    1  UNL1        0.1336
      3 O         -11.2528  -19.7362   20.9775 O.3     1  UNL1       -0.5055
      4 C          -9.3745  -19.8200   19.1843 C.ar    1  UNL1        0.0366
      5 C          -7.9327  -19.6560   18.8047 C.ar    1  UNL1        0.0031
      6 C          -6.9271  -19.2441   19.8388 C.ar    1  UNL1        0.0002
      7 C          -5.4852  -19.0800   19.4592 C.ar    1  UNL1        0.0000
      8 C          -4.4797  -18.6681   20.4932 C.ar    1  UNL1        0.0001
      9 C          -4.9160  -18.4203   21.9067 C.ar    1  UNL1        0.0000
     10 C          -6.3578  -18.5843   22.2863 C.ar    1  UNL1        0.0001
     11 C          -7.3634  -18.9962   21.2523 C.ar    1  UNL1        0.0029
     12 H         -11.5253  -19.5814   21.8605 H       1  UNL1        0.2922
     13 C          -3.0377  -18.5041   20.1136 C.ar    1  UNL1        0.0030
     14 C          -1.9681  -18.6337   21.1572 C.ar    1  UNL1        0.0002
     15 C          -0.5262  -18.4697   20.7777 C.ar    1  UNL1        0.0031
     16 C          -0.1539  -18.1760   19.3546 C.ar    1  UNL1        0.0366
     17 C          -1.2236  -18.0463   18.3110 C.ar    1  UNL1        0.1337
     18 O          -0.8514  -17.7526   16.8879 O.3     1  UNL1       -0.5055
     19 C          -2.6655  -18.2104   18.6905 C.ar    1  UNL1        0.0366
     20 H           0.0493  -17.6502   16.6508 H       1  UNL1        0.2922
     21 C          -9.3796  -17.3497   25.1164 C.ar    1  UNL1        0.0644
     22 C         -10.1142  -18.4167   25.8726 C.ar    1  UNL1        0.0158
     23 C         -10.4126  -19.7316   25.2153 C.ar    1  UNL1        0.0013
     24 C          -9.9763  -19.9795   23.8017 C.ar    1  UNL1        0.0002
     25 C          -9.2416  -18.9124   23.0455 C.ar    1  UNL1        0.0042
     26 C          -8.9433  -17.5976   23.7029 C.ar    1  UNL1        0.0159
     27 N          -9.0812  -16.0348   25.7738 N.pl3   1  UNL1       -0.2187
     28 H          -9.8157  -15.4190   25.9987 H       1  UNL1        0.1734
     29 C          -6.2464  -15.2815   26.4031 C.3     1  UNL1        0.1996
     30 S          -7.6638  -15.6582   26.0885 S.O2    1  UNL1        0.0558
     31 O          -7.5711  -14.9193   24.7864 O.2     1  UNL1       -0.1544
     32 O          -7.7565  -16.3971   27.3906 O.2     1  UNL1       -0.1544
@<TRIPOS>BOND
     1    29    30    1
     2    30    31    2
     3    30    32    2
     4    30    27    1
     5    27    21    1
     6    21    22   ar
     7    22    23   ar
     8    23    24   ar
     9    24    25   ar
    10    25     1    1
    11     1     2   ar
    12     2     3    1
    13     2     4   ar
    14     4     5   ar
    15     5     6   ar
    16     6     7   ar
    17     7     8   ar
    18     8    13    1
    19    13    14   ar
    20    14    15   ar
    21    15    16   ar
    22    16    17   ar
    23    17    18    1
    24    17    19   ar
    25     8     9   ar
    26     9    10   ar
    27    10    11   ar
    28    25    26   ar
    29    26    21   ar
    30    11     1   ar
    31    11     6   ar
    32    19    13   ar
    33    27    28    1
    34     3    12    1
    35    18    20    1
@<TRIPOS>MOLECULE
*****
 32 35 0 0 0
SMALL
GASTEIGER

@<TRIPOS>ATOM
      1 C         -12.1343   -5.6089   18.2986 C.ar    1  UNL1        0.0338
      2 C         -10.7595   -6.0294   18.7264 C.ar    1  UNL1        0.1336
      3 O         -10.4191   -7.4866   18.8301 O.3     1  UNL1       -0.5055
      4 C          -9.7250   -4.9927   19.0506 C.ar    1  UNL1        0.0366
      5 C         -10.0653   -3.5355   18.9470 C.ar    1  UNL1        0.0031
      6 C         -11.4402   -3.1150   18.5191 C.ar    1  UNL1        0.0002
      7 C         -11.7805   -1.6578   18.4155 C.ar    1  UNL1        0.0000
      8 C         -13.1553   -1.2373   17.9877 C.ar    1  UNL1        0.0001
      9 C         -14.1898   -2.2740   17.6635 C.ar    1  UNL1        0.0000
     10 C         -13.8494   -3.7312   17.7671 C.ar    1  UNL1        0.0001
     11 C         -12.4746   -4.1517   18.1949 C.ar    1  UNL1        0.0029
     12 H         -11.0653   -8.1342   18.6275 H       1  UNL1        0.2922
     13 C         -13.4957    0.2199   17.8840 C.ar    1  UNL1        0.0030
     14 C         -14.6370    0.7818   18.6787 C.ar    1  UNL1        0.0002
     15 C         -14.9774    2.2390   18.5751 C.ar    1  UNL1        0.0031
     16 C         -14.1765    3.1343   17.6768 C.ar    1  UNL1        0.0366
     17 C         -13.0351    2.5724   16.8821 C.ar    1  UNL1        0.1337
     18 O         -12.2342    3.4676   15.9837 O.3     1  UNL1       -0.5055
     19 C         -12.6947    1.1151   16.9857 C.ar    1  UNL1        0.0366
     20 H         -12.4468    4.3778   15.9190 H       1  UNL1        0.2922
     21 C         -14.9555   -8.3624   18.7553 C.ar    1  UNL1        0.0644
     22 C         -15.2377   -8.7190   17.3260 C.ar    1  UNL1        0.0158
     23 C         -14.4853   -8.0389   16.2207 C.ar    1  UNL1        0.0013
     24 C         -13.4509   -7.0022   16.5449 C.ar    1  UNL1        0.0002
     25 C         -13.1687   -6.6456   17.9744 C.ar    1  UNL1        0.0042
     26 C         -13.9211   -7.3257   19.0795 C.ar    1  UNL1        0.0159
     27 N         -15.7079   -9.0425   19.8606 N.pl3   1  UNL1       -0.2187
     28 H         -15.2256   -9.3779   20.6506 H       1  UNL1        0.1734
     29 C         -18.6823   -9.3804   19.6638 C.3     1  UNL1        0.1996
     30 S         -17.1951   -9.2114   19.7622 S.O2    1  UNL1        0.0558
     31 O         -17.0149  -10.6889   19.5763 O.2     1  UNL1       -0.1544
     32 O         -17.3752   -7.7339   19.9480 O.2     1  UNL1       -0.1544
@<TRIPOS>BOND
     1    29    30    1
     2    30    31    2
     3    30    32    2
     4    30    27    1
     5    27    21    1
     6    21    22   ar
     7    22    23   ar
     8    23    24   ar
     9    24    25   ar
    10    25     1    1
    11     1     2   ar
    12     2     3    1
    13     2     4   ar
    14     4     5   ar
    15     5     6   ar
    16     6     7   ar
    17     7     8   ar
    18     8    13    1
    19    13    14   ar
    20    14    15   ar
    21    15    16   ar
    22    16    17   ar
    23    17    18    1
    24    17    19   ar
    25     8     9   ar
    26     9    10   ar
    27    10    11   ar
    28    25    26   ar
    29    26    21   ar
    30    11     1   ar
    31    11     6   ar
    32    19    13   ar
    33    27    28    1
    34     3    12    1
    35    18    20    1
@<TRIPOS>MOLECULE
*****
 32 35 0 0 0
SMALL
GASTEIGER

@<TRIPOS>ATOM
      1 C           7.9752   -5.0623   23.1921 C.ar    1  UNL1        0.0338
      2 C           8.5082   -6.3609   22.6633 C.ar    1  UNL1        0.1336
      3 O           8.7535   -6.5278   21.1929 O.3     1  UNL1       -0.5055
      4 C           8.7959   -7.4925   23.6049 C.ar    1  UNL1        0.0366
      5 C           8.5506   -7.3257   25.0752 C.ar    1  UNL1        0.0031
      6 C           8.0176   -6.0271   25.6041 C.ar    1  UNL1        0.0002
      7 C           7.7723   -5.8602   27.0744 C.ar    1  UNL1        0.0000
      8 C           7.2392   -4.5617   27.6032 C.ar    1  UNL1        0.0001
      9 C           6.9515   -3.4300   26.6616 C.ar    1  UNL1        0.0000
     10 C           7.1968   -3.5969   25.1913 C.ar    1  UNL1        0.0001
     11 C           7.7298   -4.8954   24.6625 C.ar    1  UNL1        0.0029
     12 H           8.5738   -5.8209   20.6048 H       1  UNL1        0.2922
     13 C           6.9939   -4.3948   29.0736 C.ar    1  UNL1        0.0030
     14 C           6.6142   -3.0516   29.6229 C.ar    1  UNL1        0.0002
     15 C           6.3689   -2.8846   31.0932 C.ar    1  UNL1        0.0031
     16 C           6.5033   -4.0609   32.0143 C.ar    1  UNL1        0.0366
     17 C           6.8830   -5.4041   31.4651 C.ar    1  UNL1        0.1337
     18 O           7.0174   -6.5803   32.3861 O.3     1  UNL1       -0.5055
     19 C           7.1283   -5.5710   29.9947 C.ar    1  UNL1        0.0366
     20 H           6.8642   -6.4760   33.3046 H       1  UNL1        0.2922
     21 C           6.0960   -2.7523   20.5687 C.ar    1  UNL1        0.0644
     22 C           7.1120   -1.6673   20.3674 C.ar    1  UNL1        0.0158
     23 C           8.4158   -1.7140   21.1077 C.ar    1  UNL1        0.0013
     24 C           8.7035   -2.8457   22.0493 C.ar    1  UNL1        0.0002
     25 C           7.6874   -3.9307   22.2506 C.ar    1  UNL1        0.0042
     26 C           6.3837   -3.8840   21.5103 C.ar    1  UNL1        0.0159
     27 N           4.7922   -2.7056   19.8284 N.pl3   1  UNL1       -0.2187
     28 H           4.0322   -3.2512   20.1350 H       1  UNL1        0.1734
     29 C           4.5005   -0.9497   17.4135 C.3     1  UNL1        0.1996
     30 S           4.6463   -1.8277   18.6209 S.O2    1  UNL1        0.0558
     31 O           3.8988   -0.8205   19.4435 O.2     1  UNL1       -0.1544
     32 O           5.3939   -2.8349   17.7983 O.2     1  UNL1       -0.1544
@<TRIPOS>BOND
     1    29    30    1
     2    30    31    2
     3    30    32    2
     4    30    27    1
     5    27    21    1
     6    21    22   ar
     7    22    23   ar
     8    23    24   ar
     9    24    25   ar
    10    25     1    1
    11     1     2   ar
    12     2     3    1
    13     2     4   ar
    14     4     5   ar
    15     5     6   ar
    16     6     7   ar
    17     7     8   ar
    18     8    13    1
    19    13    14   ar
    20    14    15   ar
    21    15    16   ar
    22    16    17   ar
    23    17    18    1
    24    17    19   ar
    25     8     9   ar
    26     9    10   ar
    27    10    11   ar
    28    25    26   ar
    29    26    21   ar
    30    11     1   ar
    31    11     6   ar
    32    19    13   ar
    33    27    28    1
    34     3    12    1
    35    18    20    1
@<TRIPOS>MOLECULE
*****
 32 35 0 0 0
SMALL
GASTEIGER

@<TRIPOS>ATOM
      1 C         -18.0972   -5.1430   19.3829 C.ar    1  UNL1        0.0338
      2 C         -18.9842   -6.2994   19.7376 C.ar    1  UNL1        0.1336
      3 O         -20.4639   -6.0951   19.8751 O.3     1  UNL1       -0.5055
      4 C         -18.3916   -7.6601   19.9549 C.ar    1  UNL1        0.0366
      5 C         -16.9120   -7.8645   19.8175 C.ar    1  UNL1        0.0031
      6 C         -16.0249   -6.7080   19.4628 C.ar    1  UNL1        0.0002
      7 C         -14.5453   -6.9124   19.3253 C.ar    1  UNL1        0.0000
      8 C         -13.6582   -5.7559   18.9706 C.ar    1  UNL1        0.0001
      9 C         -14.2508   -4.3952   18.7534 C.ar    1  UNL1        0.0000
     10 C         -15.7304   -4.1909   18.8908 C.ar    1  UNL1        0.0001
     11 C         -16.6175   -5.3473   19.2455 C.ar    1  UNL1        0.0029
     12 H         -20.8341   -5.2451   19.7393 H       1  UNL1        0.2922
     13 C         -12.1785   -5.9603   18.8332 C.ar    1  UNL1        0.0030
     14 C         -11.2367   -4.8232   19.0980 C.ar    1  UNL1        0.0002
     15 C          -9.7570   -5.0275   18.9606 C.ar    1  UNL1        0.0031
     16 C          -9.2192   -6.3688   18.5583 C.ar    1  UNL1        0.0366
     17 C         -10.1611   -7.5058   18.2936 C.ar    1  UNL1        0.1337
     18 O          -9.6233   -8.8471   17.8914 O.3     1  UNL1       -0.5055
     19 C         -11.6408   -7.3015   18.4310 C.ar    1  UNL1        0.0366
     20 H          -8.6990   -8.9747   17.8055 H       1  UNL1        0.2922
     21 C         -19.3563   -1.4454   20.0849 C.ar    1  UNL1        0.0644
     22 C         -19.8749   -1.0607   18.7311 C.ar    1  UNL1        0.0158
     23 C         -19.8010   -2.0368   17.5944 C.ar    1  UNL1        0.0013
     24 C         -19.2084   -3.3975   17.8117 C.ar    1  UNL1        0.0002
     25 C         -18.6898   -3.7822   19.1656 C.ar    1  UNL1        0.0042
     26 C         -18.7637   -2.8062   20.3022 C.ar    1  UNL1        0.0159
     27 N         -19.4302   -0.4694   21.2216 N.pl3   1  UNL1       -0.2187
     28 H         -19.7925   -0.7537   22.0918 H       1  UNL1        0.1734
     29 C         -18.4742    2.3489   20.8432 C.3     1  UNL1        0.1996
     30 S         -18.9522    0.9398   21.0324 S.O2    1  UNL1        0.0558
     31 O         -17.5314    0.4590   21.0417 O.2     1  UNL1       -0.1544
     32 O         -20.3731    1.4205   21.0232 O.2     1  UNL1       -0.1544
@<TRIPOS>BOND
     1    29    30    1
     2    30    31    2
     3    30    32    2
     4    30    27    1
     5    27    21    1
     6    21    22   ar
     7    22    23   ar
     8    23    24   ar
     9    24    25   ar
    10    25     1    1
    11     1     2   ar
    12     2     3    1
    13     2     4   ar
    14     4     5   ar
    15     5     6   ar
    16     6     7   ar
    17     7     8   ar
    18     8    13    1
    19    13    14   ar
    20    14    15   ar
    21    15    16   ar
    22    16    17   ar
    23    17    18    1
    24    17    19   ar
    25     8     9   ar
    26     9    10   ar
    27    10    11   ar
    28    25    26   ar
    29    26    21   ar
    30    11     1   ar
    31    11     6   ar
    32    19    13   ar
    33    27    28    1
    34     3    12    1
    35    18    20    1
@<TRIPOS>MOLECULE
*****
 32 35 0 0 0
SMALL
GASTEIGER

@<TRIPOS>ATOM
      1 C           0.5185    2.0128   23.0478 C.ar    1  UNL1        0.0338
      2 C          -0.5484    2.8253   22.3759 C.ar    1  UNL1        0.1336
      3 O          -1.3343    3.8304   23.1648 O.3     1  UNL1       -0.5055
      4 C          -0.8295    2.6328   20.9151 C.ar    1  UNL1        0.0366
      5 C          -0.0436    1.6278   20.1262 C.ar    1  UNL1        0.0031
      6 C           1.0234    0.8153   20.7981 C.ar    1  UNL1        0.0002
      7 C           1.8093   -0.1897   20.0092 C.ar    1  UNL1        0.0000
      8 C           2.8762   -1.0021   20.6812 C.ar    1  UNL1        0.0001
      9 C           3.1573   -0.8096   22.1420 C.ar    1  UNL1        0.0000
     10 C           2.3714    0.1953   22.9309 C.ar    1  UNL1        0.0001
     11 C           1.3045    1.0078   22.2589 C.ar    1  UNL1        0.0029
     12 H          -1.1588    3.9506   24.0774 H       1  UNL1        0.2922
     13 C           3.6621   -2.0072   19.8923 C.ar    1  UNL1        0.0030
     14 C           3.3126   -3.4636   19.9735 C.ar    1  UNL1        0.0002
     15 C           4.0985   -4.4686   19.1847 C.ar    1  UNL1        0.0031
     16 C           5.2339   -4.0172   18.3145 C.ar    1  UNL1        0.0366
     17 C           5.5834   -2.5608   18.2333 C.ar    1  UNL1        0.1337
     18 O           6.7188   -2.1094   17.3632 O.3     1  UNL1       -0.5055
     19 C           4.7975   -1.5557   19.0222 C.ar    1  UNL1        0.0366
     20 H           7.2097   -2.7371   16.8704 H       1  UNL1        0.2922
     21 C           0.6817    1.3405   26.9557 C.ar    1  UNL1        0.0644
     22 C           1.3617    2.5904   27.4303 C.ar    1  UNL1        0.0158
     23 C           1.7608    3.6478   26.4440 C.ar    1  UNL1        0.0013
     24 C           1.4797    3.4553   24.9832 C.ar    1  UNL1        0.0002
     25 C           0.7996    2.2054   24.5086 C.ar    1  UNL1        0.0042
     26 C           0.4006    1.1480   25.4949 C.ar    1  UNL1        0.0159
     27 N           0.2826    0.2830   27.9419 N.pl3   1  UNL1       -0.2187
     28 H          -0.5876   -0.1689   27.8540 H       1  UNL1        0.1734
     29 C           2.1364   -0.4548   30.1823 C.3     1  UNL1        0.1996
     30 S           1.2095   -0.0859   29.0621 S.O2    1  UNL1        0.0558
     31 O           2.1594   -0.6969   28.0749 O.2     1  UNL1       -0.1544
     32 O           0.2597    0.5251   30.0493 O.2     1  UNL1       -0.1544
@<TRIPOS>BOND
     1    29    30    1
     2    30    31    2
     3    30    32    2
     4    30    27    1
     5    27    21    1
     6    21    22   ar
     7    22    23   ar
     8    23    24   ar
     9    24    25   ar
    10    25     1    1
    11     1     2   ar
    12     2     3    1
    13     2     4   ar
    14     4     5   ar
    15     5     6   ar
    16     6     7   ar
    17     7     8   ar
    18     8    13    1
    19    13    14   ar
    20    14    15   ar
    21    15    16   ar
    22    16    17   ar
    23    17    18    1
    24    17    19   ar
    25     8     9   ar
    26     9    10   ar
    27    10    11   ar
    28    25    26   ar
    29    26    21   ar
    30    11     1   ar
    31    11     6   ar
    32    19    13   ar
    33    27    28    1
    34     3    12    1
    35    18    20    1
@<TRIPOS>MOLECULE
*****
 32 35 0 0 0
SMALL
GASTEIGER

@<TRIPOS>ATOM
      1 C          -0.0042    3.7098   19.8108 C.ar    1  UNL1        0.0338
      2 C           0.4059    5.0105   19.1865 C.ar    1  UNL1        0.1336
      3 O          -0.4418    6.2335   19.3757 O.3     1  UNL1       -0.5055
      4 C           1.6636    5.0883   18.3729 C.ar    1  UNL1        0.0366
      5 C           2.5113    3.8653   18.1836 C.ar    1  UNL1        0.0031
      6 C           2.1012    2.5645   18.8080 C.ar    1  UNL1        0.0002
      7 C           2.9489    1.3416   18.6188 C.ar    1  UNL1        0.0000
      8 C           2.5388    0.0409   19.2432 C.ar    1  UNL1        0.0001
      9 C           1.2810   -0.0369   20.0568 C.ar    1  UNL1        0.0000
     10 C           0.4334    1.1860   20.2460 C.ar    1  UNL1        0.0001
     11 C           0.8435    2.4867   19.6216 C.ar    1  UNL1        0.0029
     12 H          -1.2275    6.1849   19.8839 H       1  UNL1        0.2922
     13 C           3.3865   -1.1821   19.0540 C.ar    1  UNL1        0.0030
     14 C           2.9629   -2.4888   19.6566 C.ar    1  UNL1        0.0002
     15 C           3.8105   -3.7118   19.4675 C.ar    1  UNL1        0.0031
     16 C           5.0818   -3.6281   18.6757 C.ar    1  UNL1        0.0366
     17 C           5.5054   -2.3214   18.0730 C.ar    1  UNL1        0.1337
     18 O           6.7766   -2.2377   17.2813 O.3     1  UNL1       -0.5055
     19 C           4.6577   -1.0984   18.2622 C.ar    1  UNL1        0.0366
     20 H           7.3061   -3.0017   17.1631 H       1  UNL1        0.2922
     21 C          -3.8264    3.2418   20.7710 C.ar    1  UNL1        0.0644
     22 C          -3.7776    3.4764   22.2517 C.ar    1  UNL1        0.0158
     23 C          -2.4709    3.7888   22.9188 C.ar    1  UNL1        0.0013
     24 C          -1.2131    3.8665   22.1052 C.ar    1  UNL1        0.0002
     25 C          -1.2620    3.6320   20.6245 C.ar    1  UNL1        0.0042
     26 C          -2.5686    3.3196   19.9573 C.ar    1  UNL1        0.0159
     27 N          -5.1331    2.9295   20.1038 N.pl3   1  UNL1       -0.2187
     28 H          -5.5702    2.0612   20.2596 H       1  UNL1        0.1734
     29 C          -6.4144    4.9506   18.2946 C.3     1  UNL1        0.1996
     30 S          -5.7738    3.9401   19.1992 S.O2    1  UNL1        0.0558
     31 O          -5.2525    3.1999   18.0031 O.2     1  UNL1       -0.1544
     32 O          -6.2950    4.6802   20.3952 O.2     1  UNL1       -0.1544
@<TRIPOS>BOND
     1    29    30    1
     2    30    31    2
     3    30    32    2
     4    30    27    1
     5    27    21    1
     6    21    22   ar
     7    22    23   ar
     8    23    24   ar
     9    24    25   ar
    10    25     1    1
    11     1     2   ar
    12     2     3    1
    13     2     4   ar
    14     4     5   ar
    15     5     6   ar
    16     6     7   ar
    17     7     8   ar
    18     8    13    1
    19    13    14   ar
    20    14    15   ar
    21    15    16   ar
    22    16    17   ar
    23    17    18    1
    24    17    19   ar
    25     8     9   ar
    26     9    10   ar
    27    10    11   ar
    28    25    26   ar
    29    26    21   ar
    30    11     1   ar
    31    11     6   ar
    32    19    13   ar
    33    27    28    1
    34     3    12    1
    35    18    20    1
@<TRIPOS>MOLECULE
*****
 32 35 0 0 0
SMALL
GASTEIGER

@<TRIPOS>ATOM
      1 C           0.3952    4.3129   18.1021 C.ar    1  UNL1        0.0338
      2 C           1.0893    5.6403   18.0236 C.ar    1  UNL1        0.1336
      3 O           0.2875    6.8972   17.8582 O.3     1  UNL1       -0.5055
      4 C           2.5851    5.7108   18.1106 C.ar    1  UNL1        0.0366
      5 C           3.3868    4.4540   18.2760 C.ar    1  UNL1        0.0031
      6 C           2.6928    3.1265   18.3545 C.ar    1  UNL1        0.0002
      7 C           3.4946    1.8696   18.5199 C.ar    1  UNL1        0.0000
      8 C           2.8005    0.5422   18.5984 C.ar    1  UNL1        0.0001
      9 C           1.3047    0.4716   18.5115 C.ar    1  UNL1        0.0000
     10 C           0.5029    1.7285   18.3461 C.ar    1  UNL1        0.0001
     11 C           1.1970    3.0559   18.2676 C.ar    1  UNL1        0.0029
     12 H          -0.6469    6.8532   17.8039 H       1  UNL1        0.2922
     13 C           3.6023   -0.7148   18.7638 C.ar    1  UNL1        0.0030
     14 C           3.1187   -1.7974   19.6826 C.ar    1  UNL1        0.0002
     15 C           3.9204   -3.0543   19.8480 C.ar    1  UNL1        0.0031
     16 C           5.2058   -3.2287   19.0947 C.ar    1  UNL1        0.0366
     17 C           5.6894   -2.1460   18.1760 C.ar    1  UNL1        0.1337
     18 O           6.9748   -2.3203   17.4227 O.3     1  UNL1       -0.5055
     19 C           4.8876   -0.8891   18.0106 C.ar    1  UNL1        0.0366
     20 H           7.4756   -3.1055   17.5261 H       1  UNL1        0.2922
     21 C          -3.4311    4.4169   19.1502 C.ar    1  UNL1        0.0644
     22 C          -4.0922    4.1012   17.8413 C.ar    1  UNL1        0.0158
     23 C          -3.2576    3.8560   16.6193 C.ar    1  UNL1        0.0013
     24 C          -1.7617    3.9265   16.7062 C.ar    1  UNL1        0.0002
     25 C          -1.1006    4.2423   18.0152 C.ar    1  UNL1        0.0042
     26 C          -1.9353    4.4875   19.2371 C.ar    1  UNL1        0.0159
     27 N          -4.2658    4.6621   20.3722 N.pl3   1  UNL1       -0.2187
     28 H          -5.1192    5.1470   20.2962 H       1  UNL1        0.1734
     29 C          -3.3344    3.6750   23.0477 C.3     1  UNL1        0.1996
     30 S          -3.8001    4.1686   21.7099 S.O2    1  UNL1        0.0558
     31 O          -4.0287    2.7537   21.2675 O.2     1  UNL1       -0.1544
     32 O          -3.5715    5.5835   22.1524 O.2     1  UNL1       -0.1544
@<TRIPOS>BOND
     1    29    30    1
     2    30    31    2
     3    30    32    2
     4    30    27    1
     5    27    21    1
     6    21    22   ar
     7    22    23   ar
     8    23    24   ar
     9    24    25   ar
    10    25     1    1
    11     1     2   ar
    12     2     3    1
    13     2     4   ar
    14     4     5   ar
    15     5     6   ar
    16     6     7   ar
    17     7     8   ar
    18     8    13    1
    19    13    14   ar
    20    14    15   ar
    21    15    16   ar
    22    16    17   ar
    23    17    18    1
    24    17    19   ar
    25     8     9   ar
    26     9    10   ar
    27    10    11   ar
    28    25    26   ar
    29    26    21   ar
    30    11     1   ar
    31    11     6   ar
    32    19    13   ar
    33    27    28    1
    34     3    12    1
    35    18    20    1
@<TRIPOS>MOLECULE
*****
 32 35 0 0 0
SMALL
GASTEIGER

@<TRIPOS>ATOM
      1 C           2.7232   -0.6365   21.0192 C.ar    1  UNL1        0.0338
      2 C           1.6084    0.1930   20.4545 C.ar    1  UNL1        0.1336
      3 O           1.3374    0.1806   18.9792 O.3     1  UNL1       -0.5055
      4 C           0.7645    1.0349   21.3650 C.ar    1  UNL1        0.0366
      5 C           1.0355    1.0473   22.8402 C.ar    1  UNL1        0.0031
      6 C           2.1504    0.2178   23.4050 C.ar    1  UNL1        0.0002
      7 C           2.4213    0.2302   24.8803 C.ar    1  UNL1        0.0000
      8 C           3.5362   -0.5993   25.4450 C.ar    1  UNL1        0.0001
      9 C           4.3800   -1.4413   24.5345 C.ar    1  UNL1        0.0000
     10 C           4.1091   -1.4537   23.0593 C.ar    1  UNL1        0.0001
     11 C           2.9943   -0.6242   22.4945 C.ar    1  UNL1        0.0029
     12 H           1.8645   -0.3453   18.4104 H       1  UNL1        0.2922
     13 C           3.8072   -0.5869   26.9203 C.ar    1  UNL1        0.0030
     14 C           5.2150   -0.4639   27.4232 C.ar    1  UNL1        0.0002
     15 C           5.4860   -0.4515   28.8985 C.ar    1  UNL1        0.0031
     16 C           4.3492   -0.5622   29.8709 C.ar    1  UNL1        0.0366
     17 C           2.9414   -0.6852   29.3680 C.ar    1  UNL1        0.1337
     18 O           1.8046   -0.7958   30.3403 O.3     1  UNL1       -0.5055
     19 C           2.6704   -0.6976   27.8926 C.ar    1  UNL1        0.0366
     20 H           1.9739   -0.7881   31.2618 H       1  UNL1        0.2922
     21 C           5.6212   -1.7294   18.5378 C.ar    1  UNL1        0.0644
     22 C           5.2549   -3.1623   18.2877 C.ar    1  UNL1        0.0158
     23 C           4.0447   -3.7534   18.9481 C.ar    1  UNL1        0.0013
     24 C           3.2008   -2.9114   19.8586 C.ar    1  UNL1        0.0002
     25 C           3.5671   -1.4785   20.1087 C.ar    1  UNL1        0.0042
     26 C           4.7773   -0.8875   19.4483 C.ar    1  UNL1        0.0159
     27 N           6.8314   -1.1384   17.8774 N.pl3   1  UNL1       -0.2187
     28 H           7.5280   -1.7280   17.5081 H       1  UNL1        0.1734
     29 C           7.1293    1.8404   17.6821 C.3     1  UNL1        0.1996
     30 S           6.9804    0.3510   17.7798 S.O2    1  UNL1        0.0558
     31 O           7.9332    0.3316   18.9381 O.2     1  UNL1       -0.1544
     32 O           6.0275    0.3703   16.6215 O.2     1  UNL1       -0.1544
@<TRIPOS>BOND
     1    29    30    1
     2    30    31    2
     3    30    32    2
     4    30    27    1
     5    27    21    1
     6    21    22   ar
     7    22    23   ar
     8    23    24   ar
     9    24    25   ar
    10    25     1    1
    11     1     2   ar
    12     2     3    1
    13     2     4   ar
    14     4     5   ar
    15     5     6   ar
    16     6     7   ar
    17     7     8   ar
    18     8    13    1
    19    13    14   ar
    20    14    15   ar
    21    15    16   ar
    22    16    17   ar
    23    17    18    1
    24    17    19   ar
    25     8     9   ar
    26     9    10   ar
    27    10    11   ar
    28    25    26   ar
    29    26    21   ar
    30    11     1   ar
    31    11     6   ar
    32    19    13   ar
    33    27    28    1
    34     3    12    1
    35    18    20    1
@<TRIPOS>MOLECULE
*****
 32 35 0 0 0
SMALL
GASTEIGER

@<TRIPOS>ATOM
      1 C           3.1279   -0.7142   19.7498 C.ar    1  UNL1        0.0338
      2 C           2.7880    0.0464   18.5025 C.ar    1  UNL1        0.1336
      3 O           3.2452   -0.4606   17.1668 O.3     1  UNL1       -0.5055
      4 C           1.9910    1.3141   18.5907 C.ar    1  UNL1        0.0366
      5 C           1.5339    1.8211   19.9263 C.ar    1  UNL1        0.0031
      6 C           1.8737    1.0605   21.1738 C.ar    1  UNL1        0.0002
      7 C           1.4165    1.5675   22.5094 C.ar    1  UNL1        0.0000
      8 C           1.7564    0.8068   23.7567 C.ar    1  UNL1        0.0001
      9 C           2.5534   -0.4609   23.6684 C.ar    1  UNL1        0.0000
     10 C           3.0105   -0.9679   22.3328 C.ar    1  UNL1        0.0001
     11 C           2.6707   -0.2072   21.0855 C.ar    1  UNL1        0.0029
     12 H           3.7431   -1.2525   17.1116 H       1  UNL1        0.2922
     13 C           1.2992    1.3138   25.0924 C.ar    1  UNL1        0.0030
     14 C          -0.1657    1.3790   25.4085 C.ar    1  UNL1        0.0002
     15 C          -0.6229    1.8859   26.7442 C.ar    1  UNL1        0.0031
     16 C           0.3848    2.3278   27.7637 C.ar    1  UNL1        0.0366
     17 C           1.8497    2.2627   27.4475 C.ar    1  UNL1        0.1337
     18 O           2.8574    2.7045   28.4670 O.3     1  UNL1       -0.5055
     19 C           2.3069    1.7557   26.1118 C.ar    1  UNL1        0.0366
     20 H           2.5718    3.0212   29.3013 H       1  UNL1        0.2922
     21 C           6.1938   -3.2317   19.8611 C.ar    1  UNL1        0.0644
     22 C           5.5188   -4.5173   19.4850 C.ar    1  UNL1        0.0158
     23 C           4.0468   -4.5353   19.1971 C.ar    1  UNL1        0.0013
     24 C           3.2498   -3.2676   19.2853 C.ar    1  UNL1        0.0002
     25 C           3.9249   -1.9819   19.6615 C.ar    1  UNL1        0.0042
     26 C           5.3968   -1.9640   19.9494 C.ar    1  UNL1        0.0159
     27 N           7.6659   -3.2137   20.1490 N.pl3   1  UNL1       -0.2187
     28 H           8.0949   -3.9940   20.5689 H       1  UNL1        0.1734
     29 C           9.3025   -0.7999   19.4453 C.3     1  UNL1        0.1996
     30 S           8.4842   -2.0068   19.7971 S.O2    1  UNL1        0.0558
     31 O           8.6105   -1.6680   21.2529 O.2     1  UNL1       -0.1544
     32 O           8.3579   -2.3456   18.3414 O.2     1  UNL1       -0.1544
@<TRIPOS>BOND
     1    29    30    1
     2    30    31    2
     3    30    32    2
     4    30    27    1
     5    27    21    1
     6    21    22   ar
     7    22    23   ar
     8    23    24   ar
     9    24    25   ar
    10    25     1    1
    11     1     2   ar
    12     2     3    1
    13     2     4   ar
    14     4     5   ar
    15     5     6   ar
    16     6     7   ar
    17     7     8   ar
    18     8    13    1
    19    13    14   ar
    20    14    15   ar
    21    15    16   ar
    22    16    17   ar
    23    17    18    1
    24    17    19   ar
    25     8     9   ar
    26     9    10   ar
    27    10    11   ar
    28    25    26   ar
    29    26    21   ar
    30    11     1   ar
    31    11     6   ar
    32    19    13   ar
    33    27    28    1
    34     3    12    1
    35    18    20    1
