@<TRIPOS>MOLECULE
*****
 29 31 0 0 0
SMALL
GASTEIGER

@<TRIPOS>ATOM
      1 C          -9.5693  -18.8568   21.3798 C.3     1  UNL1        0.1566
      2 C         -10.6366  -19.2908   20.4193 C.3     1  UNL1        0.0391
      3 C         -11.9248  -18.6441   20.8347 C.3     1  UNL1        0.0879
      4 C         -11.6536  -17.8105   22.0519 C.2     1  UNL1        0.2297
      5 O         -12.6612  -16.9895   22.8006 O.2     1  UNL1       -0.2745
      6 N         -10.1978  -17.9419   22.3888 N.am    1  UNL1       -0.2517
      7 C          -9.4941  -17.2755   23.5337 C.ar    1  UNL1        0.0542
      8 C          -8.6165  -16.0850   23.2839 C.ar    1  UNL1        0.0149
      9 C          -7.9128  -15.4186   24.4287 C.ar    1  UNL1        0.0051
     10 C          -8.0867  -15.9428   25.8234 C.ar    1  UNL1        0.0715
     11 C          -8.9644  -17.1333   26.0732 C.ar    1  UNL1        0.0051
     12 C          -9.6680  -17.7996   24.9283 C.ar    1  UNL1        0.0149
     13 C          -7.3830  -15.2763   26.9683 C.3     1  UNL1        0.4186
     14 F          -6.6792  -14.6099   28.1131 F       1  UNL1       -0.1659
     15 F          -8.7069  -14.8805   27.5517 F       1  UNL1       -0.1659
     16 F          -6.0591  -15.6721   26.3848 F       1  UNL1       -0.1659
     17 N          -7.2877  -18.9365   20.1398 N.am    1  UNL1       -0.2519
     18 C          -8.1268  -19.2659   21.3386 C.2     1  UNL1        0.2467
     19 O          -7.5233  -20.0046   22.4963 O.2     1  UNL1       -0.2729
     20 H          -7.6837  -18.4517   19.3799 H       1  UNL1        0.1578
     21 C          -3.4204  -19.2537   20.0446 C.ar    1  UNL1        0.1014
     22 C          -4.6658  -18.4188   20.0896 C.ar    1  UNL1        0.0741
     23 C          -5.8452  -19.3456   20.0985 C.ar    1  UNL1        0.2322
     24 O          -5.3287  -20.7534   20.0590 O.2     1  UNL1       -0.3384
     25 N          -3.8302  -20.6966   20.0256 N.ar    1  UNL1       -0.0798
     26 C          -2.2293  -18.2061   18.6363 C.3     1  UNL1        0.0060
     27 C          -2.0126  -18.7366   20.0224 C.3     1  UNL1        0.0388
     28 C          -1.7958  -19.2672   21.4086 C.3     1  UNL1        0.0060
     29 C          -0.6047  -18.2195   20.0001 C.3     1  UNL1        0.0060
@<TRIPOS>BOND
     1    26    27    1
     2    27    28    1
     3    27    29    1
     4    27    21    1
     5    21    22   ar
     6    22    23   ar
     7    23    17    1
     8    17    18   am
     9    18    19    2
    10     1    18    1
    11     1     2    1
    12     2     3    1
    13     3     4    1
    14     4     5    2
    15     4     6   am
    16     6     7    1
    17     7     8   ar
    18     8     9   ar
    19     9    10   ar
    20    10    13    1
    21    13    14    1
    22    13    15    1
    23    13    16    1
    24    10    11   ar
    25    11    12   ar
    26    23    24   ar
    27    24    25   ar
    28    25    21   ar
    29     6     1    1
    30    12     7   ar
    31    17    20    1
@<TRIPOS>MOLECULE
*****
 29 31 0 0 0
SMALL
GASTEIGER

@<TRIPOS>ATOM
      1 C          -9.1145  -18.8007   22.1664 C.3     1  UNL1        0.1566
      2 C         -10.0092  -19.6961   21.3615 C.3     1  UNL1        0.0391
      3 C         -11.3279  -19.7917   22.0700 C.3     1  UNL1        0.0879
      4 C         -11.2481  -18.9555   23.3127 C.2     1  UNL1        0.2297
      5 O         -12.3440  -18.7652   24.3191 O.2     1  UNL1       -0.2745
      6 N          -9.8802  -18.3430   23.3723 N.am    1  UNL1       -0.2517
      7 C          -9.3678  -17.4326   24.4488 C.ar    1  UNL1        0.0542
      8 C          -9.3216  -17.9053   25.8716 C.ar    1  UNL1        0.0149
      9 C          -8.8093  -16.9949   26.9480 C.ar    1  UNL1        0.0051
     10 C          -8.3432  -15.6119   26.6016 C.ar    1  UNL1        0.0715
     11 C          -8.3894  -15.1393   25.1788 C.ar    1  UNL1        0.0051
     12 C          -8.9017  -16.0496   24.1024 C.ar    1  UNL1        0.0149
     13 C          -7.8308  -14.7015   27.6781 C.3     1  UNL1        0.4186
     14 F          -7.3185  -13.7912   28.7545 F       1  UNL1       -0.1659
     15 F          -9.2332  -14.2551   27.9680 F       1  UNL1       -0.1659
     16 F          -6.4285  -15.1480   27.3882 F       1  UNL1       -0.1659
     17 N          -6.6668  -18.3426   22.9072 N.am    1  UNL1       -0.2519
     18 C          -7.7020  -18.4284   21.8252 C.2     1  UNL1        0.2467
     19 O          -7.3248  -18.1420   20.4020 O.2     1  UNL1       -0.2729
     20 H          -6.9143  -18.5306   23.8414 H       1  UNL1        0.1578
     21 C          -3.0300  -17.9985   21.5955 C.ar    1  UNL1        0.1014
     22 C          -4.3419  -18.7242   21.6446 C.ar    1  UNL1        0.0741
     23 C          -5.2543  -17.9703   22.5661 C.ar    1  UNL1        0.2322
     24 O          -4.5063  -16.7788   23.0866 O.2     1  UNL1       -0.3384
     25 N          -3.1316  -16.7963   22.4867 N.ar    1  UNL1       -0.0798
     26 C          -1.9422  -19.8004   21.3312 C.3     1  UNL1        0.0060
     27 C          -1.8276  -18.4040   20.7957 C.3     1  UNL1        0.0388
     28 C          -1.7129  -17.0076   20.2601 C.3     1  UNL1        0.0060
     29 C          -0.6251  -18.8095   19.9958 C.3     1  UNL1        0.0060
@<TRIPOS>BOND
     1    26    27    1
     2    27    28    1
     3    27    29    1
     4    27    21    1
     5    21    22   ar
     6    22    23   ar
     7    23    17    1
     8    17    18   am
     9    18    19    2
    10     1    18    1
    11     1     2    1
    12     2     3    1
    13     3     4    1
    14     4     5    2
    15     4     6   am
    16     6     7    1
    17     7     8   ar
    18     8     9   ar
    19     9    10   ar
    20    10    13    1
    21    13    14    1
    22    13    15    1
    23    13    16    1
    24    10    11   ar
    25    11    12   ar
    26    23    24   ar
    27    24    25   ar
    28    25    21   ar
    29     6     1    1
    30    12     7   ar
    31    17    20    1
