@<TRIPOS>MOLECULE
*****
 34 36 0 0 0
SMALL
GASTEIGER

@<TRIPOS>ATOM
      1 C          -8.8713  -18.7013   22.1976 C.ar    1  UNL1        0.0053
      2 C          -8.7068  -19.5076   20.9435 C.ar    1  UNL1        0.0033
      3 C          -7.3437  -19.6961   20.3465 C.ar    1  UNL1        0.0382
      4 C          -6.1452  -19.0783   21.0036 C.ar    1  UNL1        0.1524
      5 C          -6.3097  -18.2720   22.2577 C.ar    1  UNL1        0.0881
      6 C          -7.6728  -18.0835   22.8547 C.ar    1  UNL1        0.0181
      7 N          -5.1111  -17.6542   22.9148 N.am    1  UNL1       -0.2531
      8 C          -3.7481  -17.8427   22.3178 C.2     1  UNL1        0.2656
      9 O          -2.5495  -17.2249   22.9749 O.2     1  UNL1       -0.2708
     10 C          -3.5835  -18.6490   21.0636 C.3     1  UNL1        0.2010
     11 O          -4.7820  -19.2668   20.4065 O.3     1  UNL1       -0.4727
     12 C         -11.1442  -17.4445   22.2646 C.ar    1  UNL1        0.0645
     13 N         -12.5073  -17.2560   22.8616 N.ar    1  UNL1       -0.2183
     14 C         -12.9606  -18.1358   23.9888 C.ar    1  UNL1        0.2145
     15 N         -14.3237  -17.9473   24.5858 N.pl3   1  UNL1       -0.3274
     16 N         -12.0509  -19.2041   24.5189 N.ar    1  UNL1       -0.1995
     17 C         -10.6877  -19.3926   23.9218 C.ar    1  UNL1        0.1293
     18 N          -9.7780  -20.4609   24.4519 N.pl3   1  UNL1       -0.3425
     19 C         -10.2345  -18.5128   22.7947 C.ar    1  UNL1        0.0449
     20 H         -14.9208  -17.2461   24.2378 H       1  UNL1        0.1452
     21 H         -14.6213  -18.5247   25.3255 H       1  UNL1        0.1452
     22 H         -10.0755  -21.0384   25.1917 H       1  UNL1        0.1437
     23 H          -8.8833  -20.5847   24.0601 H       1  UNL1        0.1437
     24 C         -11.3687  -16.6478   19.8018 C.3     1  UNL1        0.0067
     25 C         -10.6909  -16.5647   21.1374 C.3     1  UNL1        0.0460
     26 C          -2.9231  -19.3219   19.8970 C.3     1  UNL1        0.0491
     27 C          -3.4961  -20.5916   19.3407 C.3     1  UNL1        0.0042
     28 C          -2.1556  -18.2649   21.3155 C.3     1  UNL1        0.0491
     29 C          -1.2353  -17.9998   20.1611 C.3     1  UNL1        0.0042
     30 C          -5.2756  -16.8479   24.1689 C.3     1  UNL1        0.1010
     31 C          -5.6518  -15.3983   24.0846 C.3     1  UNL1        0.0539
     32 C          -7.0041  -14.9461   24.5503 C.3     1  UNL1        0.1440
     33 O          -7.7735  -15.7744   25.5361 O.3     1  UNL1       -0.3510
     34 C          -7.5919  -15.5497   27.0080 C.3     1  UNL1        0.1741
@<TRIPOS>BOND
     1    24    25    1
     2    25    12    1
     3    12    13   ar
     4    13    14   ar
     5    14    15    1
     6    14    16   ar
     7    16    17   ar
     8    17    18    1
     9    17    19   ar
    10    19     1    1
    11     1     2   ar
    12     2     3   ar
    13     3     4   ar
    14     4     5   ar
    15     5     6   ar
    16     5     7    1
    17     7    30    1
    18    30    31    1
    19    31    32    1
    20    32    33    1
    21    33    34    1
    22     7     8   am
    23     8     9    2
    24     8    10    1
    25    10    26    1
    26    26    27    1
    27    10    28    1
    28    28    29    1
    29    10    11    1
    30    19    12   ar
    31     6     1   ar
    32    11     4    1
    33    15    20    1
    34    15    21    1
    35    18    22    1
    36    18    23    1
@<TRIPOS>MOLECULE
*****
 34 36 0 0 0
SMALL
GASTEIGER

@<TRIPOS>ATOM
      1 C          -8.6753  -17.6265   23.2334 C.ar    1  UNL1        0.0053
      2 C          -7.8702  -16.5519   23.9021 C.ar    1  UNL1        0.0033
      3 C          -6.3876  -16.4812   23.6858 C.ar    1  UNL1        0.0382
      4 C          -5.7100  -17.4851   22.8008 C.ar    1  UNL1        0.1524
      5 C          -6.5151  -18.5596   22.1321 C.ar    1  UNL1        0.0881
      6 C          -7.9977  -18.6303   22.3484 C.ar    1  UNL1        0.0181
      7 N          -5.8375  -19.5635   21.2472 N.am    1  UNL1       -0.2531
      8 C          -4.3549  -19.4927   21.0309 C.2     1  UNL1        0.2656
      9 O          -3.6773  -20.4966   20.1459 O.2     1  UNL1       -0.2708
     10 C          -3.5498  -18.4181   21.6996 C.3     1  UNL1        0.2010
     11 O          -4.2273  -17.4143   22.5846 O.3     1  UNL1       -0.4727
     12 C         -10.7322  -18.7260   24.3780 C.ar    1  UNL1        0.0645
     13 N         -12.2148  -18.7968   24.5943 N.ar    1  UNL1       -0.2183
     14 C         -13.1232  -17.8387   23.8822 C.ar    1  UNL1        0.2145
     15 N         -14.6059  -17.9095   24.0985 N.pl3   1  UNL1       -0.3274
     16 N         -12.5490  -16.8100   22.9539 N.ar    1  UNL1       -0.1995
     17 C         -11.0663  -16.7392   22.7376 C.ar    1  UNL1        0.1293
     18 N         -10.4920  -15.7104   21.8092 N.pl3   1  UNL1       -0.3425
     19 C         -10.1579  -17.6972   23.4497 C.ar    1  UNL1        0.0449
     20 H         -14.9827  -18.5848   24.7078 H       1  UNL1        0.1452
     21 H         -15.2021  -17.2808   23.6311 H       1  UNL1        0.1452
     22 H         -11.0882  -15.0817   21.3419 H       1  UNL1        0.1437
     23 H          -9.5189  -15.6640   21.6673 H       1  UNL1        0.1437
     24 C          -9.5691  -21.0452   24.5138 C.3     1  UNL1        0.0067
     25 C          -9.8238  -19.6840   25.0901 C.3     1  UNL1        0.0460
     26 C          -2.3667  -17.5926   22.1105 C.3     1  UNL1        0.0491
     27 C          -2.4553  -16.0953   22.0954 C.3     1  UNL1        0.0042
     28 C          -2.4614  -19.1353   20.9574 C.3     1  UNL1        0.0491
     29 C          -1.4866  -18.3597   20.1217 C.3     1  UNL1        0.0042
     30 C          -6.6425  -20.6380   20.5785 C.3     1  UNL1        0.1010
     31 C          -7.2110  -20.4072   19.2097 C.3     1  UNL1        0.0539
     32 C          -8.6825  -20.1710   19.0388 C.3     1  UNL1        0.1440
     33 O          -9.2558  -18.8059   19.2793 O.3     1  UNL1       -0.3510
     34 C         -10.6891  -18.6570   19.6957 C.3     1  UNL1        0.1741
@<TRIPOS>BOND
     1    24    25    1
     2    25    12    1
     3    12    13   ar
     4    13    14   ar
     5    14    15    1
     6    14    16   ar
     7    16    17   ar
     8    17    18    1
     9    17    19   ar
    10    19     1    1
    11     1     2   ar
    12     2     3   ar
    13     3     4   ar
    14     4     5   ar
    15     5     6   ar
    16     5     7    1
    17     7    30    1
    18    30    31    1
    19    31    32    1
    20    32    33    1
    21    33    34    1
    22     7     8   am
    23     8     9    2
    24     8    10    1
    25    10    26    1
    26    26    27    1
    27    10    28    1
    28    28    29    1
    29    10    11    1
    30    19    12   ar
    31     6     1   ar
    32    11     4    1
    33    15    20    1
    34    15    21    1
    35    18    22    1
    36    18    23    1
@<TRIPOS>MOLECULE
*****
 34 36 0 0 0
SMALL
GASTEIGER

@<TRIPOS>ATOM
      1 C          -8.7244  -17.6353   23.2972 C.ar    1  UNL1        0.0053
      2 C          -7.9731  -16.4849   23.8986 C.ar    1  UNL1        0.0033
      3 C          -6.4899  -16.3742   23.7044 C.ar    1  UNL1        0.0382
      4 C          -5.7580  -17.4141   22.9088 C.ar    1  UNL1        0.1524
      5 C          -6.5094  -18.5646   22.3073 C.ar    1  UNL1        0.0881
      6 C          -7.9926  -18.6752   22.5015 C.ar    1  UNL1        0.0181
      7 N          -5.7775  -19.6044   21.5116 N.am    1  UNL1       -0.2531
      8 C          -4.2943  -19.4938   21.3174 C.2     1  UNL1        0.2656
      9 O          -3.5625  -20.5337   20.5218 O.2     1  UNL1       -0.2708
     10 C          -3.5428  -18.3433   21.9189 C.3     1  UNL1        0.2010
     11 O          -4.2747  -17.3034   22.7146 O.3     1  UNL1       -0.4727
     12 C         -11.1404  -16.9914   22.5910 C.ar    1  UNL1        0.0645
     13 N         -12.6236  -17.1020   22.7851 N.ar    1  UNL1       -0.2183
     14 C         -13.1743  -17.9673   23.8797 C.ar    1  UNL1        0.2145
     15 N         -14.6575  -18.0779   24.0739 N.pl3   1  UNL1       -0.3274
     16 N         -12.2417  -18.7219   24.7802 N.ar    1  UNL1       -0.1995
     17 C         -10.7584  -18.6112   24.5860 C.ar    1  UNL1        0.1293
     18 N          -9.8257  -19.3658   25.4864 N.pl3   1  UNL1       -0.3425
     19 C         -10.2078  -17.7460   23.4914 C.ar    1  UNL1        0.0449
     20 H         -15.2696  -17.5826   23.4829 H       1  UNL1        0.1452
     21 H         -15.0189  -18.6458   24.7923 H       1  UNL1        0.1452
     22 H         -10.1871  -19.9337   26.2048 H       1  UNL1        0.1437
     23 H          -8.8522  -19.2932   25.3590 H       1  UNL1        0.1437
     24 C         -11.2979  -16.0449   20.1765 C.3     1  UNL1        0.0067
     25 C         -10.5897  -16.1261   21.4963 C.3     1  UNL1        0.0460
     26 C          -2.3994  -17.4457   22.2886 C.3     1  UNL1        0.0491
     27 C          -2.4966  -15.9686   22.0459 C.3     1  UNL1        0.0042
     28 C          -2.4139  -19.0714   21.2516 C.3     1  UNL1        0.0491
     29 C          -1.5835  -18.3772   20.2132 C.3     1  UNL1        0.0042
     30 C          -6.5289  -20.7549   20.9102 C.3     1  UNL1        0.1010
     31 C          -7.0651  -20.6522   19.5131 C.3     1  UNL1        0.0539
     32 C          -8.1333  -19.6493   19.1915 C.3     1  UNL1        0.1440
     33 O          -9.5644  -20.0860   19.0853 O.3     1  UNL1       -0.3510
     34 C         -10.5432  -19.7158   20.1599 C.3     1  UNL1        0.1741
@<TRIPOS>BOND
     1    24    25    1
     2    25    12    1
     3    12    13   ar
     4    13    14   ar
     5    14    15    1
     6    14    16   ar
     7    16    17   ar
     8    17    18    1
     9    17    19   ar
    10    19     1    1
    11     1     2   ar
    12     2     3   ar
    13     3     4   ar
    14     4     5   ar
    15     5     6   ar
    16     5     7    1
    17     7    30    1
    18    30    31    1
    19    31    32    1
    20    32    33    1
    21    33    34    1
    22     7     8   am
    23     8     9    2
    24     8    10    1
    25    10    26    1
    26    26    27    1
    27    10    28    1
    28    28    29    1
    29    10    11    1
    30    19    12   ar
    31     6     1   ar
    32    11     4    1
    33    15    20    1
    34    15    21    1
    35    18    22    1
    36    18    23    1
@<TRIPOS>MOLECULE
*****
 34 36 0 0 0
SMALL
GASTEIGER

@<TRIPOS>ATOM
      1 C          -8.8688  -18.6363   22.0668 C.ar    1  UNL1        0.0053
      2 C          -8.6617  -19.4843   20.8470 C.ar    1  UNL1        0.0033
      3 C          -7.2771  -19.7071   20.3147 C.ar    1  UNL1        0.0382
      4 C          -6.0997  -19.0818   21.0022 C.ar    1  UNL1        0.1524
      5 C          -6.3068  -18.2338   22.2220 C.ar    1  UNL1        0.0881
      6 C          -7.6913  -18.0111   22.7543 C.ar    1  UNL1        0.0181
      7 N          -5.1293  -17.6085   22.9095 N.am    1  UNL1       -0.2531
      8 C          -3.7448  -17.8313   22.3773 C.2     1  UNL1        0.2656
      9 O          -2.5673  -17.2060   23.0648 O.2     1  UNL1       -0.2708
     10 C          -3.5376  -18.6793   21.1574 C.3     1  UNL1        0.2010
     11 O          -4.7151  -19.3046   20.4699 O.3     1  UNL1       -0.4727
     12 C         -10.6513  -18.9981   23.9220 C.ar    1  UNL1        0.0645
     13 N         -12.0359  -18.7754   24.4544 N.ar    1  UNL1       -0.2183
     14 C         -13.0225  -17.9680   23.6639 C.ar    1  UNL1        0.2145
     15 N         -14.4070  -17.7452   24.1962 N.pl3   1  UNL1       -0.3274
     16 N         -12.6245  -17.3834   22.3410 N.ar    1  UNL1       -0.1995
     17 C         -11.2399  -17.6062   21.8087 C.ar    1  UNL1        0.1293
     18 N         -10.8419  -17.0216   20.4859 N.pl3   1  UNL1       -0.3425
     19 C         -10.2534  -18.4135   22.5992 C.ar    1  UNL1        0.0449
     20 H         -14.6682  -18.1289   25.0645 H       1  UNL1        0.1452
     21 H         -15.0545  -17.2153   23.6774 H       1  UNL1        0.1452
     22 H         -11.4895  -16.4917   19.9670 H       1  UNL1        0.1437
     23 H          -9.9332  -17.1678   20.1365 H       1  UNL1        0.1437
     24 C          -9.5255  -21.2773   24.4586 C.3     1  UNL1        0.0067
     25 C          -9.6647  -19.8055   24.7125 C.3     1  UNL1        0.0460
     26 C          -2.8371  -19.3968   20.0418 C.3     1  UNL1        0.0491
     27 C          -3.4664  -20.6061   19.4160 C.3     1  UNL1        0.0042
     28 C          -2.1169  -18.3032   21.4575 C.3     1  UNL1        0.0491
     29 C          -1.1410  -18.1040   20.3360 C.3     1  UNL1        0.0042
     30 C          -5.3364  -16.7605   24.1293 C.3     1  UNL1        0.1010
     31 C          -5.7770  -15.3340   23.9851 C.3     1  UNL1        0.0539
     32 C          -7.0905  -14.8929   24.5597 C.3     1  UNL1        0.1440
     33 O          -7.7923  -15.7500   25.5712 O.3     1  UNL1       -0.3510
     34 C          -7.4996  -15.5780   27.0322 C.3     1  UNL1        0.1741
@<TRIPOS>BOND
     1    24    25    1
     2    25    12    1
     3    12    13   ar
     4    13    14   ar
     5    14    15    1
     6    14    16   ar
     7    16    17   ar
     8    17    18    1
     9    17    19   ar
    10    19     1    1
    11     1     2   ar
    12     2     3   ar
    13     3     4   ar
    14     4     5   ar
    15     5     6   ar
    16     5     7    1
    17     7    30    1
    18    30    31    1
    19    31    32    1
    20    32    33    1
    21    33    34    1
    22     7     8   am
    23     8     9    2
    24     8    10    1
    25    10    26    1
    26    26    27    1
    27    10    28    1
    28    28    29    1
    29    10    11    1
    30    19    12   ar
    31     6     1   ar
    32    11     4    1
    33    15    20    1
    34    15    21    1
    35    18    22    1
    36    18    23    1
@<TRIPOS>MOLECULE
*****
 34 36 0 0 0
SMALL
GASTEIGER

@<TRIPOS>ATOM
      1 C          -4.9888  -18.7052   21.4903 C.ar    1  UNL1        0.0053
      2 C          -5.5038  -20.1070   21.3497 C.ar    1  UNL1        0.0033
      3 C          -6.9278  -20.4215   21.7008 C.ar    1  UNL1        0.0382
      4 C          -7.8368  -19.3343   22.1924 C.ar    1  UNL1        0.1524
      5 C          -7.3218  -17.9325   22.3330 C.ar    1  UNL1        0.0881
      6 C          -5.8978  -17.6180   21.9820 C.ar    1  UNL1        0.0181
      7 N          -8.2307  -16.8453   22.8247 N.am    1  UNL1       -0.2531
      8 C          -9.6547  -17.1599   23.1757 C.2     1  UNL1        0.2656
      9 O         -10.5637  -16.0727   23.6674 O.2     1  UNL1       -0.2708
     10 C         -10.1698  -18.5617   23.0351 C.3     1  UNL1        0.2010
     11 O          -9.2608  -19.6489   22.5435 O.3     1  UNL1       -0.4727
     12 C          -2.5164  -18.3632   22.2118 C.ar    1  UNL1        0.0645
     13 N          -1.0924  -18.0487   21.8608 N.ar    1  UNL1       -0.2183
     14 C          -0.7167  -17.7615   20.4372 C.ar    1  UNL1        0.2145
     15 N           0.7073  -17.4469   20.0862 N.pl3   1  UNL1       -0.3274
     16 N          -1.7650  -17.7888   19.3647 N.ar    1  UNL1       -0.1995
     17 C          -3.1891  -18.1034   19.7158 C.ar    1  UNL1        0.1293
     18 N          -4.2374  -18.1308   18.6433 N.pl3   1  UNL1       -0.3425
     19 C          -3.5647  -18.3906   21.1393 C.ar    1  UNL1        0.0449
     20 H           1.3954  -17.4289   20.7901 H       1  UNL1        0.1452
     21 H           0.9539  -17.2584   19.1519 H       1  UNL1        0.1452
     22 H          -3.9908  -17.9423   17.7090 H       1  UNL1        0.1437
     23 H          -5.1720  -18.3373   18.8737 H       1  UNL1        0.1437
     24 C          -3.4519  -17.5586   24.4981 C.3     1  UNL1        0.0067
     25 C          -2.8921  -18.6504   23.6353 C.3     1  UNL1        0.0460
     26 C         -11.1144  -19.7264   23.0694 C.3     1  UNL1        0.0491
     27 C         -11.3075  -20.5717   21.8454 C.3     1  UNL1        0.0042
     28 C         -11.4068  -17.8790   23.5387 C.3     1  UNL1        0.0491
     29 C         -12.3508  -18.6108   24.4460 C.3     1  UNL1        0.0042
     30 C          -7.7157  -15.4436   22.9653 C.3     1  UNL1        0.1010
     31 C          -7.4538  -14.8739   24.3280 C.3     1  UNL1        0.0539
     32 C          -6.4796  -15.5480   25.2481 C.3     1  UNL1        0.1440
     33 O          -6.7818  -15.6532   26.7136 O.3     1  UNL1       -0.3510
     34 C          -8.1945  -15.5193   27.1996 C.3     1  UNL1        0.1741
@<TRIPOS>BOND
     1    24    25    1
     2    25    12    1
     3    12    13   ar
     4    13    14   ar
     5    14    15    1
     6    14    16   ar
     7    16    17   ar
     8    17    18    1
     9    17    19   ar
    10    19     1    1
    11     1     2   ar
    12     2     3   ar
    13     3     4   ar
    14     4     5   ar
    15     5     6   ar
    16     5     7    1
    17     7    30    1
    18    30    31    1
    19    31    32    1
    20    32    33    1
    21    33    34    1
    22     7     8   am
    23     8     9    2
    24     8    10    1
    25    10    26    1
    26    26    27    1
    27    10    28    1
    28    28    29    1
    29    10    11    1
    30    19    12   ar
    31     6     1   ar
    32    11     4    1
    33    15    20    1
    34    15    21    1
    35    18    22    1
    36    18    23    1
@<TRIPOS>MOLECULE
*****
 34 36 0 0 0
SMALL
GASTEIGER

@<TRIPOS>ATOM
      1 C          -0.1764    2.7683   27.2354 C.ar    1  UNL1        0.0053
      2 C           0.8362    2.5583   26.1489 C.ar    1  UNL1        0.0033
      3 C           0.4440    2.7409   24.7127 C.ar    1  UNL1        0.0382
      4 C          -0.9608    3.1334   24.3629 C.ar    1  UNL1        0.1524
      5 C          -1.9735    3.3434   25.4494 C.ar    1  UNL1        0.0881
      6 C          -1.5813    3.1608   26.8856 C.ar    1  UNL1        0.0181
      7 N          -3.3783    3.7360   25.0996 N.am    1  UNL1       -0.2531
      8 C          -3.7705    3.9186   23.6634 C.2     1  UNL1        0.2656
      9 O          -5.1753    4.3111   23.3136 O.2     1  UNL1       -0.2708
     10 C          -2.7579    3.7086   22.5768 C.3     1  UNL1        0.2010
     11 O          -1.3530    3.3160   22.9266 O.3     1  UNL1       -0.4727
     12 C           0.1360    1.2278   29.3041 C.ar    1  UNL1        0.0645
     13 N           0.5282    1.0452   30.7403 N.ar    1  UNL1       -0.2183
     14 C           1.0001    2.2204   31.5442 C.ar    1  UNL1        0.2145
     15 N           1.3922    2.0378   32.9805 N.pl3   1  UNL1       -0.3274
     16 N           1.0798    3.5783   30.9118 N.ar    1  UNL1       -0.1995
     17 C           0.6876    3.7609   29.4755 C.ar    1  UNL1        0.1293
     18 N           0.7673    5.1187   28.8431 N.pl3   1  UNL1       -0.3425
     19 C           0.2158    2.5857   28.6717 C.ar    1  UNL1        0.0449
     20 H           1.3399    1.1466   33.3955 H       1  UNL1        0.1452
     21 H           1.7019    2.8092   33.5081 H       1  UNL1        0.1452
     22 H           1.0771    5.8900   29.3707 H       1  UNL1        0.1437
     23 H           0.5100    5.2386   27.9004 H       1  UNL1        0.1437
     24 C          -1.5862   -0.6745   28.8977 C.3     1  UNL1        0.0067
     25 C          -0.3359    0.0526   28.5002 C.3     1  UNL1        0.0460
     26 C          -2.1611    3.6248   21.2032 C.3     1  UNL1        0.0491
     27 C          -0.8720    4.3298   20.9013 C.3     1  UNL1        0.0042
     28 C          -3.9554    4.0721   21.7500 C.3     1  UNL1        0.0491
     29 C          -4.2464    3.3248   20.4824 C.3     1  UNL1        0.0042
     30 C          -4.3909    3.9460   26.1861 C.3     1  UNL1        0.1010
     31 C          -4.3466    5.1904   27.0224 C.3     1  UNL1        0.0539
     32 C          -5.5243    6.1191   27.0480 C.3     1  UNL1        0.1440
     33 O          -6.1554    6.4940   28.3562 O.3     1  UNL1       -0.3510
     34 C          -7.6014    6.1843   28.6072 C.3     1  UNL1        0.1741
@<TRIPOS>BOND
     1    24    25    1
     2    25    12    1
     3    12    13   ar
     4    13    14   ar
     5    14    15    1
     6    14    16   ar
     7    16    17   ar
     8    17    18    1
     9    17    19   ar
    10    19     1    1
    11     1     2   ar
    12     2     3   ar
    13     3     4   ar
    14     4     5   ar
    15     5     6   ar
    16     5     7    1
    17     7    30    1
    18    30    31    1
    19    31    32    1
    20    32    33    1
    21    33    34    1
    22     7     8   am
    23     8     9    2
    24     8    10    1
    25    10    26    1
    26    26    27    1
    27    10    28    1
    28    28    29    1
    29    10    11    1
    30    19    12   ar
    31     6     1   ar
    32    11     4    1
    33    15    20    1
    34    15    21    1
    35    18    22    1
    36    18    23    1
@<TRIPOS>MOLECULE
*****
 34 36 0 0 0
SMALL
GASTEIGER

@<TRIPOS>ATOM
      1 C           0.5458    2.1237   27.1078 C.ar    1  UNL1        0.0053
      2 C          -0.6592    2.5828   26.3415 C.ar    1  UNL1        0.0033
      3 C          -0.7489    2.3333   24.8652 C.ar    1  UNL1        0.0382
      4 C           0.3664    1.6249   24.1551 C.ar    1  UNL1        0.1524
      5 C           1.5715    1.1659   24.9213 C.ar    1  UNL1        0.0881
      6 C           1.6612    1.4153   26.3977 C.ar    1  UNL1        0.0181
      7 N           2.6868    0.4575   24.2112 N.am    1  UNL1       -0.2531
      8 C           2.5971    0.2081   22.7349 C.2     1  UNL1        0.2656
      9 O           3.7124   -0.5003   22.0248 O.2     1  UNL1       -0.2708
     10 C           1.3920    0.6671   21.9685 C.3     1  UNL1        0.2010
     11 O           0.2767    1.3755   22.6786 O.3     1  UNL1       -0.4727
     12 C           0.1987    1.3134   29.5518 C.ar    1  UNL1        0.0645
     13 N           0.2885    1.5628   31.0281 N.ar    1  UNL1       -0.2183
     14 C           0.8151    2.8719   31.5371 C.ar    1  UNL1        0.2145
     15 N           0.9048    3.1212   33.0134 N.pl3   1  UNL1       -0.3274
     16 N           1.2519    3.9316   30.5695 N.ar    1  UNL1       -0.1995
     17 C           1.1622    3.6822   29.0931 C.ar    1  UNL1        0.1293
     18 N           1.5990    4.7420   28.1256 N.pl3   1  UNL1       -0.3425
     19 C           0.6356    2.3731   28.5842 C.ar    1  UNL1        0.0449
     20 H           0.6181    2.4257   33.6484 H       1  UNL1        0.1452
     21 H           1.2504    3.9804   33.3474 H       1  UNL1        0.1452
     22 H           1.9447    5.6012   28.4595 H       1  UNL1        0.1437
     23 H           1.5402    4.5783   27.1565 H       1  UNL1        0.1437
     24 C          -1.8044   -0.2600   29.0399 C.3     1  UNL1        0.0067
     25 C          -0.3279    0.0043   29.0428 C.3     1  UNL1        0.0460
     26 C           0.4622    0.9093   20.8167 C.3     1  UNL1        0.0491
     27 C           0.1695    2.3114   20.3711 C.3     1  UNL1        0.0042
     28 C           2.1844    0.0428   20.8584 C.3     1  UNL1        0.0491
     29 C           1.5304   -0.9357   19.9285 C.3     1  UNL1        0.0042
     30 C           3.8918   -0.0015   24.9775 C.3     1  UNL1        0.1010
     31 C           3.8800   -1.3342   25.6658 C.3     1  UNL1        0.0539
     32 C           4.1569   -1.4207   27.1376 C.3     1  UNL1        0.1440
     33 O           3.0350   -1.2702   28.1218 O.3     1  UNL1       -0.3510
     34 C           3.2964   -0.6686   29.4708 C.3     1  UNL1        0.1741
@<TRIPOS>BOND
     1    24    25    1
     2    25    12    1
     3    12    13   ar
     4    13    14   ar
     5    14    15    1
     6    14    16   ar
     7    16    17   ar
     8    17    18    1
     9    17    19   ar
    10    19     1    1
    11     1     2   ar
    12     2     3   ar
    13     3     4   ar
    14     4     5   ar
    15     5     6   ar
    16     5     7    1
    17     7    30    1
    18    30    31    1
    19    31    32    1
    20    32    33    1
    21    33    34    1
    22     7     8   am
    23     8     9    2
    24     8    10    1
    25    10    26    1
    26    26    27    1
    27    10    28    1
    28    28    29    1
    29    10    11    1
    30    19    12   ar
    31     6     1   ar
    32    11     4    1
    33    15    20    1
    34    15    21    1
    35    18    22    1
    36    18    23    1
@<TRIPOS>MOLECULE
*****
 34 36 0 0 0
SMALL
GASTEIGER

@<TRIPOS>ATOM
      1 C           6.6049   -2.5416   31.4721 C.ar    1  UNL1        0.0053
      2 C           7.4008   -2.0127   32.6282 C.ar    1  UNL1        0.0033
      3 C           6.8506   -0.9008   33.4713 C.ar    1  UNL1        0.0382
      4 C           5.5045   -0.3178   33.1583 C.ar    1  UNL1        0.1524
      5 C           4.7085   -0.8467   32.0022 C.ar    1  UNL1        0.0881
      6 C           5.2587   -1.9586   31.1591 C.ar    1  UNL1        0.0181
      7 N           3.3624   -0.2637   31.6891 N.am    1  UNL1       -0.2531
      8 C           2.8122    0.8482   32.5322 C.2     1  UNL1        0.2656
      9 O           1.4660    1.4312   32.2192 O.2     1  UNL1       -0.2708
     10 C           3.6082    1.3772   33.6884 C.3     1  UNL1        0.2010
     11 O           4.9543    0.7942   34.0014 O.3     1  UNL1       -0.4727
     12 C           7.8245   -3.3438   29.3228 C.ar    1  UNL1        0.0645
     13 N           8.3746   -4.4557   28.4797 N.ar    1  UNL1       -0.2183
     14 C           8.2554   -5.8775   28.9426 C.ar    1  UNL1        0.2145
     15 N           8.8056   -6.9894   28.0995 N.pl3   1  UNL1       -0.3274
     16 N           7.5860   -6.1874   30.2487 N.ar    1  UNL1       -0.1995
     17 C           7.0358   -5.0754   31.0919 C.ar    1  UNL1        0.1293
     18 N           6.3664   -5.3852   32.3980 N.pl3   1  UNL1       -0.3425
     19 C           7.1551   -3.6536   30.6289 C.ar    1  UNL1        0.0449
     20 H           9.2449   -6.7860   27.2422 H       1  UNL1        0.1452
     21 H           8.7273   -7.9226   28.4033 H       1  UNL1        0.1452
     22 H           6.2881   -6.3184   32.7018 H       1  UNL1        0.1437
     23 H           6.0053   -4.6554   32.9513 H       1  UNL1        0.1437
     24 C           9.1523   -1.1127   29.2266 C.3     1  UNL1        0.0067
     25 C           7.9437   -1.9219   28.8599 C.3     1  UNL1        0.0460
     26 C           3.9817    2.2089   34.8795 C.3     1  UNL1        0.0491
     27 C           4.4848    1.5473   36.1282 C.3     1  UNL1        0.0042
     28 C           2.3918    2.2490   33.7891 C.3     1  UNL1        0.0491
     29 C           2.5342    3.6952   34.1610 C.3     1  UNL1        0.0042
     30 C           2.5664   -0.7926   30.5330 C.3     1  UNL1        0.1010
     31 C           2.4553    0.0086   29.2698 C.3     1  UNL1        0.0539
     32 C           1.1050    0.3954   28.7433 C.3     1  UNL1        0.1440
     33 O          -0.1299    0.0557   29.5241 O.3     1  UNL1       -0.3510
     34 C          -1.3208   -0.5310   28.8261 C.3     1  UNL1        0.1741
@<TRIPOS>BOND
     1    24    25    1
     2    25    12    1
     3    12    13   ar
     4    13    14   ar
     5    14    15    1
     6    14    16   ar
     7    16    17   ar
     8    17    18    1
     9    17    19   ar
    10    19     1    1
    11     1     2   ar
    12     2     3   ar
    13     3     4   ar
    14     4     5   ar
    15     5     6   ar
    16     5     7    1
    17     7    30    1
    18    30    31    1
    19    31    32    1
    20    32    33    1
    21    33    34    1
    22     7     8   am
    23     8     9    2
    24     8    10    1
    25    10    26    1
    26    26    27    1
    27    10    28    1
    28    28    29    1
    29    10    11    1
    30    19    12   ar
    31     6     1   ar
    32    11     4    1
    33    15    20    1
    34    15    21    1
    35    18    22    1
    36    18    23    1
@<TRIPOS>MOLECULE
*****
 34 36 0 0 0
SMALL
GASTEIGER

@<TRIPOS>ATOM
      1 C           0.6655    2.0220   27.0922 C.ar    1  UNL1        0.0053
      2 C          -0.5730    2.5138   26.4036 C.ar    1  UNL1        0.0033
      3 C          -0.7194    2.3541   24.9193 C.ar    1  UNL1        0.0382
      4 C           0.3727    1.7027   24.1237 C.ar    1  UNL1        0.1524
      5 C           1.6112    1.2109   24.8124 C.ar    1  UNL1        0.0881
      6 C           1.7576    1.3706   26.2966 C.ar    1  UNL1        0.0181
      7 N           2.7032    0.5595   24.0167 N.am    1  UNL1       -0.2531
      8 C           2.5568    0.3998   22.5325 C.2     1  UNL1        0.2656
      9 O           3.6489   -0.2516   21.7369 O.2     1  UNL1       -0.2708
     10 C           1.3183    0.8916   21.8438 C.3     1  UNL1        0.2010
     11 O           0.2262    1.5430   22.6394 O.3     1  UNL1       -0.4727
     12 C           0.3997    1.0695   29.4948 C.ar    1  UNL1        0.0645
     13 N           0.5461    1.2291   30.9790 N.ar    1  UNL1       -0.2183
     14 C           1.1049    2.5009   31.5451 C.ar    1  UNL1        0.2145
     15 N           1.2513    2.6605   33.0293 N.pl3   1  UNL1       -0.3274
     16 N           1.5172    3.6131   30.6269 N.ar    1  UNL1       -0.1995
     17 C           1.3707    3.4534   29.1425 C.ar    1  UNL1        0.1293
     18 N           1.7830    4.5656   28.2243 N.pl3   1  UNL1       -0.3425
     19 C           0.8120    2.1817   28.5765 C.ar    1  UNL1        0.0449
     20 H           0.9807    1.9306   33.6320 H       1  UNL1        0.1452
     21 H           1.6180    3.4952   33.4009 H       1  UNL1        0.1452
     22 H           2.1497    5.4003   28.5958 H       1  UNL1        0.1437
     23 H           1.6869    4.4608   27.2501 H       1  UNL1        0.1437
     24 C          -1.6353   -0.4628   28.9836 C.3     1  UNL1        0.0067
     25 C          -0.1591   -0.2023   28.9287 C.3     1  UNL1        0.0460
     26 C           0.3412    1.1936   20.7465 C.3     1  UNL1        0.0491
     27 C          -0.4396    2.4742   20.7689 C.3     1  UNL1        0.0042
     28 C           2.0710    0.3450   20.6671 C.3     1  UNL1        0.0491
     29 C           1.3430   -0.4152   19.5985 C.3     1  UNL1        0.0042
     30 C           3.9417    0.0677   24.7054 C.3     1  UNL1        0.1010
     31 C           4.0870   -1.3876   25.0385 C.3     1  UNL1        0.0539
     32 C           4.9509   -2.2695   24.1864 C.3     1  UNL1        0.1440
     33 O           4.3211   -3.2657   23.2586 O.3     1  UNL1       -0.3510
     34 C           5.0504   -3.7061   22.0240 C.3     1  UNL1        0.1741
@<TRIPOS>BOND
     1    24    25    1
     2    25    12    1
     3    12    13   ar
     4    13    14   ar
     5    14    15    1
     6    14    16   ar
     7    16    17   ar
     8    17    18    1
     9    17    19   ar
    10    19     1    1
    11     1     2   ar
    12     2     3   ar
    13     3     4   ar
    14     4     5   ar
    15     5     6   ar
    16     5     7    1
    17     7    30    1
    18    30    31    1
    19    31    32    1
    20    32    33    1
    21    33    34    1
    22     7     8   am
    23     8     9    2
    24     8    10    1
    25    10    26    1
    26    26    27    1
    27    10    28    1
    28    28    29    1
    29    10    11    1
    30    19    12   ar
    31     6     1   ar
    32    11     4    1
    33    15    20    1
    34    15    21    1
    35    18    22    1
    36    18    23    1
