@<TRIPOS>MOLECULE
*****
 31 35 0 0 0
SMALL
GASTEIGER

@<TRIPOS>ATOM
      1 N          -7.3724  -19.9340   19.9440 N.pl3   1  UNL1       -0.2927
      2 H          -7.4586  -20.4348   19.1008 H       1  UNL1        0.1541
      3 C          -6.0171  -19.5183   20.4343 C.ar    1  UNL1        0.1629
      4 N          -5.7375  -18.6673   21.6374 N.ar    1  UNL1       -0.2284
      5 C          -4.2510  -18.5037   21.7542 C.ar    1  UNL1        0.0666
      6 C          -3.6119  -19.2537   20.6232 C.ar    1  UNL1        0.0237
      7 S          -4.7034  -19.8808   19.8075 S.2     1  UNL1       -0.0561
      8 C          -2.1187  -19.2687   20.4823 C.3     1  UNL1        0.0343
      9 C          -1.2645  -18.5337   21.4724 C.3     1  UNL1        0.0060
     10 C          -1.9037  -17.7837   22.6033 C.3     1  UNL1        0.0107
     11 C          -3.3969  -17.7687   22.7442 C.3     1  UNL1        0.0627
     12 C          -4.0360  -17.0187   23.8752 C.ar    1  UNL1       -0.0169
     13 C          -4.9014  -15.8270   23.5906 C.ar    1  UNL1       -0.0039
     14 C          -5.5405  -15.0770   24.7215 C.ar    1  UNL1       -0.0003
     15 C          -5.3143  -15.5187   26.1370 C.ar    1  UNL1       -0.0000
     16 C          -4.4489  -16.7104   26.4216 C.ar    1  UNL1       -0.0003
     17 C          -3.8098  -17.4604   25.2907 C.ar    1  UNL1       -0.0039
     18 C         -11.0444  -18.8922   22.3276 C.ar    1  UNL1        0.0752
     19 C         -11.1648  -19.2171   20.8682 C.ar    1  UNL1        0.0195
     20 C          -9.9408  -19.5644   20.0736 C.ar    1  UNL1        0.0162
     21 C          -8.5964  -19.5868   20.7385 C.ar    1  UNL1        0.0505
     22 C          -8.4760  -19.2618   22.1980 C.ar    1  UNL1        0.0264
     23 C          -9.7000  -18.9146   22.9925 C.ar    1  UNL1        0.0858
     24 C         -14.5483  -18.5559   26.2634 C.3     1  UNL1        0.0538
     25 C         -13.8789  -18.3904   24.9313 C.ar    1  UNL1        0.0786
     26 C         -12.5461  -18.9554   24.5380 C.ar    1  UNL1        0.0962
     27 N         -12.2684  -18.5450   23.1222 N.ar    1  UNL1       -0.2861
     28 C         -13.4294  -17.7264   22.6405 C.ar    1  UNL1        0.1825
     29 N         -14.4247  -17.6308   23.7586 N.ar    1  UNL1       -0.2280
     30 C          -9.5796  -18.5896   24.4520 C.1     1  UNL1        0.1019
     31 N          -9.4592  -18.2648   25.9114 N.1     1  UNL1       -0.1908
@<TRIPOS>BOND
     1    24    25    1
     2    25    26   ar
     3    26    27   ar
     4    27    18    1
     5    18    19   ar
     6    19    20   ar
     7    20    21   ar
     8    21     1    1
     9     1     3    1
    10     3     4   ar
    11     4     5   ar
    12     5     6   ar
    13     6     7   ar
    14     6     8    1
    15     8     9    1
    16     9    10    1
    17    10    11    1
    18    11    12    1
    19    12    13   ar
    20    13    14   ar
    21    14    15   ar
    22    15    16   ar
    23    16    17   ar
    24    21    22   ar
    25    22    23   ar
    26    23    30    1
    27    30    31    3
    28    27    28   ar
    29    28    29   ar
    30    29    25   ar
    31    23    18   ar
    32     7     3   ar
    33    17    12   ar
    34    11     5    1
    35     1     2    1
@<TRIPOS>MOLECULE
*****
 31 35 0 0 0
SMALL
GASTEIGER

@<TRIPOS>ATOM
      1 N          -0.0984    2.7068   24.0029 N.pl3   1  UNL1       -0.2927
      2 H          -0.7685    3.4258   23.9455 H       1  UNL1        0.1541
      3 C           0.4363    2.0781   22.7504 C.ar    1  UNL1        0.1629
      4 N           1.3838    0.9173   22.6817 N.ar    1  UNL1       -0.2284
      5 C           1.6505    0.6216   21.2355 C.ar    1  UNL1        0.0666
      6 C           0.8679    1.5997   20.4104 C.ar    1  UNL1        0.0237
      7 S           0.1175    2.4999   21.3467 S.2     1  UNL1       -0.0561
      8 C           0.9397    1.5443   18.9132 C.3     1  UNL1        0.0343
      9 C           1.7941    0.5108   18.2410 C.3     1  UNL1        0.0060
     10 C           2.5767   -0.4673   19.0661 C.3     1  UNL1        0.0107
     11 C           2.5049   -0.4119   20.5633 C.3     1  UNL1        0.0627
     12 C           3.2875   -1.3901   21.3884 C.ar    1  UNL1       -0.0169
     13 C           3.8403   -2.6323   20.7550 C.ar    1  UNL1       -0.0039
     14 C           4.6229   -3.6104   21.5801 C.ar    1  UNL1       -0.0003
     15 C           4.8528   -3.3463   23.0386 C.ar    1  UNL1       -0.0000
     16 C           4.3001   -2.1041   23.6720 C.ar    1  UNL1       -0.0003
     17 C           3.5174   -1.1259   22.8469 C.ar    1  UNL1       -0.0039
     18 C           1.3601    1.3065   28.0231 C.ar    1  UNL1        0.0752
     19 C           2.3211    1.9210   27.0491 C.ar    1  UNL1        0.0195
     20 C           1.8349    2.3878   25.7089 C.ar    1  UNL1        0.0162
     21 C           0.3878    2.2401   25.3430 C.ar    1  UNL1        0.0505
     22 C          -0.5732    1.6255   26.3171 C.ar    1  UNL1        0.0264
     23 C          -0.0870    1.1587   27.6571 C.ar    1  UNL1        0.0858
     24 C           2.9214    1.2759   33.0672 C.3     1  UNL1        0.0538
     25 C           2.5639    0.8257   31.6817 C.ar    1  UNL1        0.0786
     26 C           2.0827    1.7048   30.5656 C.ar    1  UNL1        0.0962
     27 N           1.8463    0.8397   29.3632 N.ar    1  UNL1       -0.2861
     28 C           2.1813   -0.5740   29.7362 C.ar    1  UNL1        0.1825
     29 N           2.6248   -0.5827   31.1691 N.ar    1  UNL1       -0.2280
     30 C          -1.0480    0.5441   28.6313 C.1     1  UNL1        0.1019
     31 N          -2.0089   -0.0704   29.6054 N.1     1  UNL1       -0.1908
@<TRIPOS>BOND
     1    24    25    1
     2    25    26   ar
     3    26    27   ar
     4    27    18    1
     5    18    19   ar
     6    19    20   ar
     7    20    21   ar
     8    21     1    1
     9     1     3    1
    10     3     4   ar
    11     4     5   ar
    12     5     6   ar
    13     6     7   ar
    14     6     8    1
    15     8     9    1
    16     9    10    1
    17    10    11    1
    18    11    12    1
    19    12    13   ar
    20    13    14   ar
    21    14    15   ar
    22    15    16   ar
    23    16    17   ar
    24    21    22   ar
    25    22    23   ar
    26    23    30    1
    27    30    31    3
    28    27    28   ar
    29    28    29   ar
    30    29    25   ar
    31    23    18   ar
    32     7     3   ar
    33    17    12   ar
    34    11     5    1
    35     1     2    1
@<TRIPOS>MOLECULE
*****
 31 35 0 0 0
SMALL
GASTEIGER

@<TRIPOS>ATOM
      1 N          -0.3368    3.0291   19.5462 N.pl3   1  UNL1       -0.2927
      2 H          -0.1958    3.7009   18.8404 H       1  UNL1        0.1541
      3 C          -1.4539    3.2007   20.5324 C.ar    1  UNL1        0.1629
      4 N          -1.3051    3.3298   22.0194 N.ar    1  UNL1       -0.2284
      5 C          -2.6751    3.4822   22.6109 C.ar    1  UNL1        0.0666
      6 C          -3.6707    3.4474   21.4895 C.ar    1  UNL1        0.0237
      7 S          -2.9159    3.2734   20.2049 S.2     1  UNL1       -0.0561
      8 C          -5.1358    3.5786   21.7828 C.3     1  UNL1        0.0343
      9 C          -5.6054    3.7446   23.1977 C.3     1  UNL1        0.0060
     10 C          -4.6099    3.7795   24.3192 C.3     1  UNL1        0.0107
     11 C          -3.1447    3.6483   24.0258 C.3     1  UNL1        0.0627
     12 C          -2.1492    3.6831   25.1473 C.ar    1  UNL1       -0.0169
     13 C          -1.9634    4.9387   25.9465 C.ar    1  UNL1       -0.0039
     14 C          -0.9679    4.9735   27.0680 C.ar    1  UNL1       -0.0003
     15 C          -0.1581    3.7528   27.3902 C.ar    1  UNL1       -0.0000
     16 C          -0.3439    2.4971   26.5910 C.ar    1  UNL1       -0.0003
     17 C          -1.3394    2.4623   25.4695 C.ar    1  UNL1       -0.0039
     18 C           2.3696   -0.5560   19.8132 C.ar    1  UNL1        0.0752
     19 C           1.0709   -0.5393   20.5634 C.ar    1  UNL1        0.0195
     20 C           0.1686    0.6558   20.4744 C.ar    1  UNL1        0.0162
     21 C           0.5653    1.8341   19.6352 C.ar    1  UNL1        0.0505
     22 C           1.8642    1.8173   18.8850 C.ar    1  UNL1        0.0264
     23 C           2.7663    0.6223   18.9740 C.ar    1  UNL1        0.0858
     24 C           4.6608   -5.2049   18.8032 C.3     1  UNL1        0.0538
     25 C           4.3249   -3.8880   19.4379 C.ar    1  UNL1        0.0786
     26 C           3.2597   -2.9354   18.9817 C.ar    1  UNL1        0.0962
     27 N           3.2719   -1.7511   19.9022 N.ar    1  UNL1       -0.2861
     28 C           4.3445   -1.9717   20.9273 C.ar    1  UNL1        0.1825
     29 N           4.9954   -3.2923   20.6403 N.ar    1  UNL1       -0.2280
     30 C           4.0652    0.6055   18.2238 C.1     1  UNL1        0.1019
     31 N           5.3640    0.5887   17.4737 N.1     1  UNL1       -0.1908
@<TRIPOS>BOND
     1    24    25    1
     2    25    26   ar
     3    26    27   ar
     4    27    18    1
     5    18    19   ar
     6    19    20   ar
     7    20    21   ar
     8    21     1    1
     9     1     3    1
    10     3     4   ar
    11     4     5   ar
    12     5     6   ar
    13     6     7   ar
    14     6     8    1
    15     8     9    1
    16     9    10    1
    17    10    11    1
    18    11    12    1
    19    12    13   ar
    20    13    14   ar
    21    14    15   ar
    22    15    16   ar
    23    16    17   ar
    24    21    22   ar
    25    22    23   ar
    26    23    30    1
    27    30    31    3
    28    27    28   ar
    29    28    29   ar
    30    29    25   ar
    31    23    18   ar
    32     7     3   ar
    33    17    12   ar
    34    11     5    1
    35     1     2    1
@<TRIPOS>MOLECULE
*****
 31 35 0 0 0
SMALL
GASTEIGER

@<TRIPOS>ATOM
      1 N           5.5782   -1.3715   24.6576 N.pl3   1  UNL1       -0.2927
      2 H           6.5444   -1.2935   24.8296 H       1  UNL1        0.1541
      3 C           5.0914   -1.9779   23.3749 C.ar    1  UNL1        0.1629
      4 N           4.2133   -1.3076   22.3602 N.ar    1  UNL1       -0.2284
      5 C           3.9764   -2.2765   21.2399 C.ar    1  UNL1        0.0666
      6 C           4.7080   -3.5457   21.5622 C.ar    1  UNL1        0.0237
      7 S           5.3971   -3.3611   22.8817 S.2     1  UNL1       -0.0561
      8 C           4.6522   -4.7054   20.6126 C.3     1  UNL1        0.0343
      9 C           3.8648   -4.5959   19.3406 C.3     1  UNL1        0.0060
     10 C           3.1332   -3.3268   19.0183 C.3     1  UNL1        0.0107
     11 C           3.1890   -2.1670   19.9679 C.3     1  UNL1        0.0627
     12 C           2.4574   -0.8978   19.6456 C.ar    1  UNL1       -0.0169
     13 C           1.1203   -0.6242   20.2678 C.ar    1  UNL1       -0.0039
     14 C           0.3887    0.6450   19.9455 C.ar    1  UNL1       -0.0003
     15 C           0.9941    1.6405   19.0009 C.ar    1  UNL1       -0.0000
     16 C           2.3312    1.3669   18.3787 C.ar    1  UNL1       -0.0003
     17 C           3.0628    0.0977   18.7010 C.ar    1  UNL1       -0.0039
     18 C           2.6224    0.0910   27.7193 C.ar    1  UNL1        0.0752
     19 C           3.5319   -1.0569   28.0434 C.ar    1  UNL1        0.0195
     20 C           4.5172   -1.5445   27.0228 C.ar    1  UNL1        0.0162
     21 C           4.5930   -0.8840   25.6782 C.ar    1  UNL1        0.0505
     22 C           3.6834    0.2640   25.3541 C.ar    1  UNL1        0.0264
     23 C           2.6982    0.7514   26.3746 C.ar    1  UNL1        0.0858
     24 C           0.4223    2.7990   31.6825 C.3     1  UNL1        0.0538
     25 C           0.6258    1.8233   30.5616 C.ar    1  UNL1        0.0786
     26 C           1.8750    1.6652   29.7462 C.ar    1  UNL1        0.0962
     27 N           1.6371    0.5786   28.7399 N.ar    1  UNL1       -0.2861
     28 C           0.2411    0.0651   28.9333 C.ar    1  UNL1        0.1825
     29 N          -0.3840    0.8344   30.0591 N.ar    1  UNL1       -0.2280
     30 C           1.7887    1.8994   26.0506 C.1     1  UNL1        0.1019
     31 N           0.8791    3.0473   25.7265 N.1     1  UNL1       -0.1908
@<TRIPOS>BOND
     1    24    25    1
     2    25    26   ar
     3    26    27   ar
     4    27    18    1
     5    18    19   ar
     6    19    20   ar
     7    20    21   ar
     8    21     1    1
     9     1     3    1
    10     3     4   ar
    11     4     5   ar
    12     5     6   ar
    13     6     7   ar
    14     6     8    1
    15     8     9    1
    16     9    10    1
    17    10    11    1
    18    11    12    1
    19    12    13   ar
    20    13    14   ar
    21    14    15   ar
    22    15    16   ar
    23    16    17   ar
    24    21    22   ar
    25    22    23   ar
    26    23    30    1
    27    30    31    3
    28    27    28   ar
    29    28    29   ar
    30    29    25   ar
    31    23    18   ar
    32     7     3   ar
    33    17    12   ar
    34    11     5    1
    35     1     2    1
@<TRIPOS>MOLECULE
*****
 31 35 0 0 0
SMALL
GASTEIGER

@<TRIPOS>ATOM
      1 N          -7.4812  -19.6363   19.8295 N.pl3   1  UNL1       -0.2927
      2 H          -7.5677  -20.0277   18.9303 H       1  UNL1        0.1541
      3 C          -6.1248  -19.2975   20.3728 C.ar    1  UNL1        0.1629
      4 N          -5.8453  -18.4931   21.6076 N.ar    1  UNL1       -0.2284
      5 C          -4.3574  -18.4020   21.7746 C.ar    1  UNL1        0.0666
      6 C          -3.7173  -19.1502   20.6430 C.ar    1  UNL1        0.0237
      7 S          -4.8096  -19.7036   19.7767 S.2     1  UNL1       -0.0561
      8 C          -2.2225  -19.2308   20.5477 C.3     1  UNL1        0.0343
      9 C          -1.3678  -18.5633   21.5840 C.3     1  UNL1        0.0060
     10 C          -2.0079  -17.8152   22.7156 C.3     1  UNL1        0.0107
     11 C          -3.5027  -17.7345   22.8109 C.3     1  UNL1        0.0627
     12 C          -4.1428  -16.9863   23.9425 C.ar    1  UNL1       -0.0169
     13 C          -3.9304  -17.4396   25.3565 C.ar    1  UNL1       -0.0039
     14 C          -4.5705  -16.6914   26.4881 C.ar    1  UNL1       -0.0003
     15 C          -5.4230  -15.4899   26.2057 C.ar    1  UNL1       -0.0000
     16 C          -5.6354  -15.0367   24.7917 C.ar    1  UNL1       -0.0003
     17 C          -4.9953  -15.7849   23.6601 C.ar    1  UNL1       -0.0039
     18 C         -11.1557  -18.8637   22.3097 C.ar    1  UNL1        0.0752
     19 C         -10.1508  -19.8841   22.7557 C.ar    1  UNL1        0.0195
     20 C          -8.9259  -20.1416   21.9289 C.ar    1  UNL1        0.0162
     21 C          -8.7060  -19.3788   20.6562 C.ar    1  UNL1        0.0505
     22 C          -9.7110  -18.3584   20.2103 C.ar    1  UNL1        0.0264
     23 C         -10.9358  -18.1009   21.0370 C.ar    1  UNL1        0.0858
     24 C         -14.4396  -18.4345   26.4222 C.3     1  UNL1        0.0538
     25 C         -13.8900  -18.4089   25.0268 C.ar    1  UNL1        0.0786
     26 C         -12.4931  -18.7768   24.6225 C.ar    1  UNL1        0.0962
     27 N         -12.3806  -18.6062   23.1365 N.ar    1  UNL1       -0.2861
     28 C         -13.7078  -18.1328   22.6224 C.ar    1  UNL1        0.1825
     29 N         -14.6407  -18.0108   23.7906 N.ar    1  UNL1       -0.2280
     30 C         -11.9408  -17.0805   20.5911 C.1     1  UNL1        0.1019
     31 N         -12.9458  -16.0601   20.1452 N.1     1  UNL1       -0.1908
@<TRIPOS>BOND
     1    24    25    1
     2    25    26   ar
     3    26    27   ar
     4    27    18    1
     5    18    19   ar
     6    19    20   ar
     7    20    21   ar
     8    21     1    1
     9     1     3    1
    10     3     4   ar
    11     4     5   ar
    12     5     6   ar
    13     6     7   ar
    14     6     8    1
    15     8     9    1
    16     9    10    1
    17    10    11    1
    18    11    12    1
    19    12    13   ar
    20    13    14   ar
    21    14    15   ar
    22    15    16   ar
    23    16    17   ar
    24    21    22   ar
    25    22    23   ar
    26    23    30    1
    27    30    31    3
    28    27    28   ar
    29    28    29   ar
    30    29    25   ar
    31    23    18   ar
    32     7     3   ar
    33    17    12   ar
    34    11     5    1
    35     1     2    1
@<TRIPOS>MOLECULE
*****
 31 35 0 0 0
SMALL
GASTEIGER

@<TRIPOS>ATOM
      1 N           4.8309   -2.3036   24.8875 N.pl3   1  UNL1       -0.2927
      2 H           5.4281   -2.8611   25.4369 H       1  UNL1        0.1541
      3 C           4.7299   -2.5433   23.4102 C.ar    1  UNL1        0.1629
      4 N           3.9038   -1.7488   22.4426 N.ar    1  UNL1       -0.2284
      5 C           4.1005   -2.3341   21.0755 C.ar    1  UNL1        0.0666
      6 C           5.0481   -3.4904   21.1983 C.ar    1  UNL1        0.0237
      7 S           5.4370   -3.6197   22.6412 S.2     1  UNL1       -0.0561
      8 C           5.4344   -4.2761   19.9804 C.3     1  UNL1        0.0343
      9 C           4.8730   -3.9055   18.6397 C.3     1  UNL1        0.0060
     10 C           3.9254   -2.7492   18.5169 C.3     1  UNL1        0.0107
     11 C           3.5392   -1.9635   19.7348 C.3     1  UNL1        0.0627
     12 C           2.5916   -0.8072   19.6120 C.ar    1  UNL1       -0.0169
     13 C           1.3041   -0.8076   20.3817 C.ar    1  UNL1       -0.0039
     14 C           0.3565    0.3486   20.2589 C.ar    1  UNL1       -0.0003
     15 C           0.6964    1.5054   19.3665 C.ar    1  UNL1       -0.0000
     16 C           1.9839    1.5058   18.5969 C.ar    1  UNL1       -0.0003
     17 C           2.9315    0.3495   18.7197 C.ar    1  UNL1       -0.0039
     18 C           2.4047    0.9636   26.8081 C.ar    1  UNL1        0.0752
     19 C           2.8409    1.0946   25.3789 C.ar    1  UNL1        0.0195
     20 C           3.6497    0.0055   24.7387 C.ar    1  UNL1        0.0162
     21 C           4.0222   -1.2146   25.5277 C.ar    1  UNL1        0.0505
     22 C           3.5860   -1.3456   26.9569 C.ar    1  UNL1        0.0264
     23 C           2.7773   -0.2565   27.5971 C.ar    1  UNL1        0.0858
     24 C           1.0194    5.1140   29.7639 C.3     1  UNL1        0.0538
     25 C           0.9592    3.9604   28.8070 C.ar    1  UNL1        0.0786
     26 C           2.1040    3.0678   28.4288 C.ar    1  UNL1        0.0962
     27 N           1.5960    2.0527   27.4483 N.ar    1  UNL1       -0.2861
     28 C           0.1373    2.3178   27.2205 C.ar    1  UNL1        0.1825
     29 N          -0.2563    3.4968   28.0602 N.ar    1  UNL1       -0.2280
     30 C           2.3411   -0.3876   29.0263 C.1     1  UNL1        0.1019
     31 N           1.9048   -0.5185   30.4555 N.1     1  UNL1       -0.1908
@<TRIPOS>BOND
     1    24    25    1
     2    25    26   ar
     3    26    27   ar
     4    27    18    1
     5    18    19   ar
     6    19    20   ar
     7    20    21   ar
     8    21     1    1
     9     1     3    1
    10     3     4   ar
    11     4     5   ar
    12     5     6   ar
    13     6     7   ar
    14     6     8    1
    15     8     9    1
    16     9    10    1
    17    10    11    1
    18    11    12    1
    19    12    13   ar
    20    13    14   ar
    21    14    15   ar
    22    15    16   ar
    23    16    17   ar
    24    21    22   ar
    25    22    23   ar
    26    23    30    1
    27    30    31    3
    28    27    28   ar
    29    28    29   ar
    30    29    25   ar
    31    23    18   ar
    32     7     3   ar
    33    17    12   ar
    34    11     5    1
    35     1     2    1
@<TRIPOS>MOLECULE
*****
 31 35 0 0 0
SMALL
GASTEIGER

@<TRIPOS>ATOM
      1 N           0.9153    3.2819   20.2741 N.pl3   1  UNL1       -0.2927
      2 H           1.3167    4.0293   20.7736 H       1  UNL1        0.1541
      3 C          -0.3624    3.4871   19.5156 C.ar    1  UNL1        0.1629
      4 N          -1.7306    3.6270   20.1145 N.ar    1  UNL1       -0.2284
      5 C          -2.7100    3.8148   18.9940 C.ar    1  UNL1        0.0666
      6 C          -1.9472    3.7911   17.7027 C.ar    1  UNL1        0.0237
      7 S          -0.4963    3.5886   18.0251 S.2     1  UNL1       -0.0561
      8 C          -2.6723    3.9570   16.4001 C.3     1  UNL1        0.0343
      9 C          -4.1602    4.1466   16.3889 C.3     1  UNL1        0.0060
     10 C          -4.9230    4.1703   17.6803 C.3     1  UNL1        0.0107
     11 C          -4.1979    4.0044   18.9828 C.3     1  UNL1        0.0627
     12 C          -4.9607    4.0281   20.2742 C.ar    1  UNL1       -0.0169
     13 C          -4.4991    3.1955   21.4333 C.ar    1  UNL1       -0.0039
     14 C          -5.2619    3.2192   22.7246 C.ar    1  UNL1       -0.0003
     15 C          -6.4863    4.0755   22.8569 C.ar    1  UNL1       -0.0000
     16 C          -6.9479    4.9081   21.6977 C.ar    1  UNL1       -0.0003
     17 C          -6.1851    4.8844   20.4064 C.ar    1  UNL1       -0.0039
     18 C           2.9136   -0.7500   20.2666 C.ar    1  UNL1        0.0752
     19 C           1.4478   -0.6401   20.5652 C.ar    1  UNL1        0.0195
     20 C           0.7816    0.7039   20.5677 C.ar    1  UNL1        0.0162
     21 C           1.5814    1.9379   20.2716 C.ar    1  UNL1        0.0505
     22 C           3.0473    1.8279   19.9730 C.ar    1  UNL1        0.0264
     23 C           3.7134    0.4840   19.9705 C.ar    1  UNL1        0.0858
     24 C           4.7670   -5.4333   18.6811 C.3     1  UNL1        0.0538
     25 C           4.4317   -4.2467   19.5353 C.ar    1  UNL1        0.0786
     26 C           3.6911   -3.0206   19.0897 C.ar    1  UNL1        0.0962
     27 N           3.5798   -2.0941   20.2641 N.ar    1  UNL1       -0.2861
     28 C           4.2515   -2.7474   21.4353 C.ar    1  UNL1        0.1825
     29 N           4.7780   -4.0777   20.9850 N.ar    1  UNL1       -0.2280
     30 C           5.1793    0.3739   19.6719 C.1     1  UNL1        0.1019
     31 N           6.6451    0.2639   19.3733 N.1     1  UNL1       -0.1908
@<TRIPOS>BOND
     1    24    25    1
     2    25    26   ar
     3    26    27   ar
     4    27    18    1
     5    18    19   ar
     6    19    20   ar
     7    20    21   ar
     8    21     1    1
     9     1     3    1
    10     3     4   ar
    11     4     5   ar
    12     5     6   ar
    13     6     7   ar
    14     6     8    1
    15     8     9    1
    16     9    10    1
    17    10    11    1
    18    11    12    1
    19    12    13   ar
    20    13    14   ar
    21    14    15   ar
    22    15    16   ar
    23    16    17   ar
    24    21    22   ar
    25    22    23   ar
    26    23    30    1
    27    30    31    3
    28    27    28   ar
    29    28    29   ar
    30    29    25   ar
    31    23    18   ar
    32     7     3   ar
    33    17    12   ar
    34    11     5    1
    35     1     2    1
@<TRIPOS>MOLECULE
*****
 31 35 0 0 0
SMALL
GASTEIGER

@<TRIPOS>ATOM
      1 N          -0.2499    3.5975   19.9519 N.pl3   1  UNL1       -0.2927
      2 H          -0.1200    4.3842   19.3745 H       1  UNL1        0.1541
      3 C          -1.3724    3.5743   20.9466 C.ar    1  UNL1        0.1629
      4 N          -1.2297    3.6339   22.4386 N.ar    1  UNL1       -0.2284
      5 C          -2.6038    3.5840   23.0381 C.ar    1  UNL1        0.0666
      6 C          -3.5958    3.4935   21.9166 C.ar    1  UNL1        0.0237
      7 S          -2.8347    3.4876   20.6240 S.2     1  UNL1       -0.0561
      8 C          -5.0639    3.4283   22.2173 C.3     1  UNL1        0.0343
      9 C          -5.5399    3.4535   23.6395 C.3     1  UNL1        0.0060
     10 C          -4.5479    3.5439   24.7610 C.3     1  UNL1        0.0107
     11 C          -3.0799    3.6092   24.4603 C.3     1  UNL1        0.0627
     12 C          -2.0879    3.6996   25.5818 C.ar    1  UNL1       -0.0169
     13 C          -1.2556    2.5058   25.9450 C.ar    1  UNL1       -0.0039
     14 C          -0.2636    2.5962   27.0665 C.ar    1  UNL1       -0.0003
     15 C          -0.1039    3.8805   27.8248 C.ar    1  UNL1       -0.0000
     16 C          -0.9362    5.0743   27.4616 C.ar    1  UNL1       -0.0003
     17 C          -1.9282    4.9839   26.3401 C.ar    1  UNL1       -0.0039
     18 C           2.5237    0.0707   19.6068 C.ar    1  UNL1        0.0752
     19 C           2.0275    0.7585   18.3696 C.ar    1  UNL1        0.0195
     20 C           1.1030    1.9341   18.4846 C.ar    1  UNL1        0.0162
     21 C           0.6746    2.4219   19.8368 C.ar    1  UNL1        0.0505
     22 C           1.1708    1.7340   21.0741 C.ar    1  UNL1        0.0264
     23 C           2.0953    0.5585   20.9591 C.ar    1  UNL1        0.0858
     24 C           4.3339   -4.8648   19.1115 C.3     1  UNL1        0.0538
     25 C           4.2803   -3.3735   19.2641 C.ar    1  UNL1        0.0786
     26 C           3.0359   -2.5394   19.3421 C.ar    1  UNL1        0.0962
     27 N           3.4482   -1.1049   19.4918 N.ar    1  UNL1       -0.2861
     28 C           4.9472   -1.0525   19.5063 C.ar    1  UNL1        0.1825
     29 N           5.4615   -2.4545   19.3656 N.ar    1  UNL1       -0.2280
     30 C           2.5914   -0.1294   22.1963 C.1     1  UNL1        0.1019
     31 N           3.0876   -0.8172   23.4335 N.1     1  UNL1       -0.1908
@<TRIPOS>BOND
     1    24    25    1
     2    25    26   ar
     3    26    27   ar
     4    27    18    1
     5    18    19   ar
     6    19    20   ar
     7    20    21   ar
     8    21     1    1
     9     1     3    1
    10     3     4   ar
    11     4     5   ar
    12     5     6   ar
    13     6     7   ar
    14     6     8    1
    15     8     9    1
    16     9    10    1
    17    10    11    1
    18    11    12    1
    19    12    13   ar
    20    13    14   ar
    21    14    15   ar
    22    15    16   ar
    23    16    17   ar
    24    21    22   ar
    25    22    23   ar
    26    23    30    1
    27    30    31    3
    28    27    28   ar
    29    28    29   ar
    30    29    25   ar
    31    23    18   ar
    32     7     3   ar
    33    17    12   ar
    34    11     5    1
    35     1     2    1
@<TRIPOS>MOLECULE
*****
 31 35 0 0 0
SMALL
GASTEIGER

@<TRIPOS>ATOM
      1 N           4.4105   -0.2354   25.3951 N.pl3   1  UNL1       -0.2927
      2 H           4.4421    0.5285   26.0153 H       1  UNL1        0.1541
      3 C           3.5660   -0.1625   24.1576 C.ar    1  UNL1        0.1629
      4 N           3.8699   -0.8175   22.8429 N.ar    1  UNL1       -0.2284
      5 C           2.7610   -0.4815   21.8903 C.ar    1  UNL1        0.0666
      6 C           1.7717    0.3811   22.6163 C.ar    1  UNL1        0.0237
      7 S           2.2692    0.5783   24.0176 S.2     1  UNL1       -0.0561
      8 C           0.5456    0.8756   21.9076 C.3     1  UNL1        0.0343
      9 C           0.3089    0.5075   20.4729 C.3     1  UNL1        0.0060
     10 C           1.2982   -0.3552   19.7469 C.3     1  UNL1        0.0107
     11 C           2.5242   -0.8497   20.4556 C.3     1  UNL1        0.0627
     12 C           3.5136   -1.7123   19.7295 C.ar    1  UNL1       -0.0169
     13 C           3.3093   -3.1969   19.6657 C.ar    1  UNL1       -0.0039
     14 C           4.2986   -4.0596   18.9397 C.ar    1  UNL1       -0.0003
     15 C           5.4922   -3.4376   18.2775 C.ar    1  UNL1       -0.0000
     16 C           5.6964   -1.9530   18.3413 C.ar    1  UNL1       -0.0003
     17 C           4.7071   -1.0903   19.0674 C.ar    1  UNL1       -0.0039
     18 C           6.7998   -3.9463   26.2731 C.ar    1  UNL1        0.0752
     19 C           6.5624   -3.5257   24.8530 C.ar    1  UNL1        0.0195
     20 C           5.7660   -2.2887   24.5603 C.ar    1  UNL1        0.0162
     21 C           5.2070   -1.4724   25.6878 C.ar    1  UNL1        0.0505
     22 C           5.4444   -1.8930   27.1079 C.ar    1  UNL1        0.0264
     23 C           6.2408   -3.1300   27.4005 C.ar    1  UNL1        0.0858
     24 C           8.0884   -8.9592   27.3180 C.3     1  UNL1        0.0538
     25 C           8.1885   -7.4875   27.0461 C.ar    1  UNL1        0.0786
     26 C           7.0396   -6.5586   26.7862 C.ar    1  UNL1        0.0962
     27 N           7.5963   -5.1833   26.5658 N.ar    1  UNL1       -0.2861
     28 C           9.0891   -5.2620   26.6895 C.ar    1  UNL1        0.1825
     29 N           9.4552   -6.6860   26.9863 N.ar    1  UNL1       -0.2280
     30 C           6.4783   -3.5506   28.8207 C.1     1  UNL1        0.1019
     31 N           6.7157   -3.9712   30.2408 N.1     1  UNL1       -0.1908
@<TRIPOS>BOND
     1    24    25    1
     2    25    26   ar
     3    26    27   ar
     4    27    18    1
     5    18    19   ar
     6    19    20   ar
     7    20    21   ar
     8    21     1    1
     9     1     3    1
    10     3     4   ar
    11     4     5   ar
    12     5     6   ar
    13     6     7   ar
    14     6     8    1
    15     8     9    1
    16     9    10    1
    17    10    11    1
    18    11    12    1
    19    12    13   ar
    20    13    14   ar
    21    14    15   ar
    22    15    16   ar
    23    16    17   ar
    24    21    22   ar
    25    22    23   ar
    26    23    30    1
    27    30    31    3
    28    27    28   ar
    29    28    29   ar
    30    29    25   ar
    31    23    18   ar
    32     7     3   ar
    33    17    12   ar
    34    11     5    1
    35     1     2    1
