@<TRIPOS>MOLECULE
*****
 35 39 0 0 0
SMALL
GASTEIGER

@<TRIPOS>ATOM
      1 C           7.1294   -1.7205   23.3302 C.2     1  UNL1        0.2463
      2 O           7.3376   -0.6621   22.2877 O.2     1  UNL1       -0.2730
      3 N           7.8621   -1.6409   24.6366 N.am    1  UNL1       -0.2781
      4 C           8.8031   -0.5030   24.9006 C.3     1  UNL1        0.0935
      5 C           9.5358   -0.4235   26.2071 C.3     1  UNL1        0.0219
      6 C           9.3276   -1.4818   27.2495 C.3     1  UNL1        0.0078
      7 C           8.3866   -2.6197   26.9854 C.3     1  UNL1        0.0419
      8 C           7.6539   -2.6993   25.6790 C.3     1  UNL1        0.0953
      9 C           8.1784   -3.6781   28.0277 C.ar    1  UNL1       -0.0209
     10 C           6.9380   -3.6663   28.8712 C.ar    1  UNL1       -0.0042
     11 C           6.7297   -4.7247   29.9135 C.ar    1  UNL1       -0.0003
     12 C           7.7618   -5.7948   30.1124 C.ar    1  UNL1       -0.0000
     13 C           9.0021   -5.8066   29.2690 C.ar    1  UNL1       -0.0003
     14 C           9.2104   -4.7482   28.2266 C.ar    1  UNL1       -0.0042
     15 C           6.1884   -2.8584   23.0661 C.3     1  UNL1        0.1835
     16 O           7.2707   -4.6973   20.9572 O.2     1  UNL1       -0.2705
     17 C           6.0382   -3.8868   20.6849 C.2     1  UNL1        0.2744
     18 C           5.3468   -3.9958   19.3583 C.3     1  UNL1        0.2900
     19 O           4.1143   -3.1854   19.0860 O.3     1  UNL1       -0.4643
     20 C           3.5732   -2.2659   20.1404 C.ar    1  UNL1        0.1537
     21 C           2.3407   -1.4555   19.8682 C.ar    1  UNL1        0.0504
     22 C           1.7996   -0.5361   20.9226 C.ar    1  UNL1        0.0713
     23 CL          0.5671    0.2744   20.6503 Cl      1  UNL1       -0.0813
     24 C           2.4909   -0.4270   22.2493 C.ar    1  UNL1        0.0696
     25 CL          1.9498    0.4924   23.3037 Cl      1  UNL1       -0.0813
     26 C           3.7234   -1.2375   22.5216 C.ar    1  UNL1        0.0302
     27 C           4.2645   -2.1570   21.4671 C.ar    1  UNL1        0.0894
     28 N           5.4970   -2.9674   21.7393 N.am    1  UNL1       -0.2439
     29 C           6.7129   -3.8372   25.4149 C.3     1  UNL1        0.0926
     30 N           7.2417   -5.2360   25.2981 N.3     1  UNL1       -0.2670
     31 C           6.7675   -6.2986   26.2446 C.3     1  UNL1        0.1047
     32 C           7.2963   -7.6974   26.1278 C.3     1  UNL1        0.1595
     33 O           8.2993   -8.0337   25.0643 O.3     1  UNL1       -0.3508
     34 C           8.7735   -6.9711   24.1177 C.3     1  UNL1        0.1595
     35 C           8.2447   -5.5722   24.2346 C.3     1  UNL1        0.1047
@<TRIPOS>BOND
     1    16    17    2
     2    17    18    1
     3    18    19    1
     4    19    20    1
     5    20    21   ar
     6    21    22   ar
     7    22    23    1
     8    22    24   ar
     9    24    25    1
    10    24    26   ar
    11    26    27   ar
    12    27    28    1
    13    28    15    1
    14    15     1    1
    15     1     2    2
    16     1     3   am
    17     3     4    1
    18     4     5    1
    19     5     6    1
    20     6     7    1
    21     7     9    1
    22     9    10   ar
    23    10    11   ar
    24    11    12   ar
    25    12    13   ar
    26    13    14   ar
    27     7     8    1
    28     8    29    1
    29    29    30    1
    30    30    31    1
    31    31    32    1
    32    32    33    1
    33    33    34    1
    34    34    35    1
    35    28    17   am
    36     8     3    1
    37    35    30    1
    38    27    20   ar
    39    14     9   ar
@<TRIPOS>MOLECULE
*****
 35 39 0 0 0
SMALL
GASTEIGER

@<TRIPOS>ATOM
      1 C           7.0156   -1.7516   23.5623 C.2     1  UNL1        0.2463
      2 O           8.2625   -1.7522   24.3962 O.2     1  UNL1       -0.2730
      3 N           6.3100   -0.4609   23.2692 N.am    1  UNL1       -0.2781
      4 C           6.8512    0.8294   23.8099 C.3     1  UNL1        0.0935
      5 C           6.1455    2.1202   23.5168 C.3     1  UNL1        0.0219
      6 C           4.8986    2.1207   22.6829 C.3     1  UNL1        0.0078
      7 C           4.3574    0.8304   22.1422 C.3     1  UNL1        0.0419
      8 C           5.0630   -0.4603   22.4353 C.3     1  UNL1        0.0953
      9 C           3.1106    0.8310   21.3084 C.ar    1  UNL1       -0.0209
     10 C           1.7812    0.5568   21.9469 C.ar    1  UNL1       -0.0042
     11 C           0.5343    0.5573   21.1130 C.ar    1  UNL1       -0.0003
     12 C           0.6168    0.8320   19.6407 C.ar    1  UNL1       -0.0000
     13 C           1.9461    1.1062   19.0022 C.ar    1  UNL1       -0.0003
     14 C           3.1930    1.1057   19.8361 C.ar    1  UNL1       -0.0042
     15 C           6.4744   -3.0419   23.0216 C.3     1  UNL1        0.1835
     16 O           7.9580   -3.5737   20.4689 O.2     1  UNL1       -0.2705
     17 C           8.1097   -4.5074   21.6330 C.2     1  UNL1        0.2744
     18 C           9.0031   -5.7071   21.5208 C.3     1  UNL1        0.2900
     19 O           9.1547   -6.6408   22.6849 O.3     1  UNL1       -0.4643
     20 C           8.4129   -6.3749   23.9612 C.ar    1  UNL1        0.1537
     21 C           8.5646   -7.3087   25.1253 C.ar    1  UNL1        0.0504
     22 C           7.8228   -7.0428   26.4016 C.ar    1  UNL1        0.0713
     23 CL          7.9744   -7.9766   27.5657 Cl      1  UNL1       -0.0813
     24 C           6.9293   -5.8431   26.5139 C.ar    1  UNL1        0.0696
     25 CL          6.1875   -5.5773   27.7902 Cl      1  UNL1       -0.0813
     26 C           6.7776   -4.9094   25.3498 C.ar    1  UNL1        0.0302
     27 C           7.5195   -5.1753   24.0734 C.ar    1  UNL1        0.0894
     28 N           7.3679   -4.2416   22.9093 N.am    1  UNL1       -0.2439
     29 C           4.5218   -1.7506   21.8946 C.3     1  UNL1        0.0926
     30 N           4.8665   -2.1827   20.5002 N.3     1  UNL1       -0.2670
     31 C           5.6779   -1.2835   19.6153 C.3     1  UNL1        0.1047
     32 C           6.0227   -1.7157   18.2209 C.3     1  UNL1        0.1595
     33 O           5.5560   -3.0471   17.7114 O.3     1  UNL1       -0.3508
     34 C           4.7446   -3.9463   18.5963 C.3     1  UNL1        0.1595
     35 C           4.3999   -3.5141   19.9908 C.3     1  UNL1        0.1047
@<TRIPOS>BOND
     1    16    17    2
     2    17    18    1
     3    18    19    1
     4    19    20    1
     5    20    21   ar
     6    21    22   ar
     7    22    23    1
     8    22    24   ar
     9    24    25    1
    10    24    26   ar
    11    26    27   ar
    12    27    28    1
    13    28    15    1
    14    15     1    1
    15     1     2    2
    16     1     3   am
    17     3     4    1
    18     4     5    1
    19     5     6    1
    20     6     7    1
    21     7     9    1
    22     9    10   ar
    23    10    11   ar
    24    11    12   ar
    25    12    13   ar
    26    13    14   ar
    27     7     8    1
    28     8    29    1
    29    29    30    1
    30    30    31    1
    31    31    32    1
    32    32    33    1
    33    33    34    1
    34    34    35    1
    35    28    17   am
    36     8     3    1
    37    35    30    1
    38    27    20   ar
    39    14     9   ar
@<TRIPOS>MOLECULE
*****
 35 39 0 0 0
SMALL
GASTEIGER

@<TRIPOS>ATOM
      1 C           6.1757   -0.5975   27.7338 C.2     1  UNL1        0.2463
      2 O           5.9925    0.8877   27.8381 O.2     1  UNL1       -0.2730
      3 N           7.1486   -1.1655   26.7434 N.am    1  UNL1       -0.2781
      4 C           7.9383   -0.2484   25.8573 C.3     1  UNL1        0.0935
      5 C           8.9112   -0.8164   24.8668 C.3     1  UNL1        0.0219
      6 C           9.0943   -2.3015   24.7626 C.3     1  UNL1        0.0078
      7 C           8.3046   -3.2186   25.6487 C.3     1  UNL1        0.0419
      8 C           7.3317   -2.6506   26.6391 C.3     1  UNL1        0.0953
      9 C           8.4877   -4.7037   25.5445 C.ar    1  UNL1       -0.0209
     10 C           7.8065   -5.4683   24.4483 C.ar    1  UNL1       -0.0042
     11 C           7.9896   -6.9534   24.3441 C.ar    1  UNL1       -0.0003
     12 C           8.8539   -7.6740   25.3359 C.ar    1  UNL1       -0.0000
     13 C           9.5351   -6.9095   26.4320 C.ar    1  UNL1       -0.0003
     14 C           9.3520   -5.4243   26.5363 C.ar    1  UNL1       -0.0042
     15 C           5.3860   -1.5146   28.6199 C.3     1  UNL1        0.1835
     16 O           2.6724   -0.7090   27.6262 O.2     1  UNL1       -0.2705
     17 C           3.0185   -0.5467   29.0766 C.2     1  UNL1        0.2744
     18 C           2.0079    0.0183   30.0302 C.3     1  UNL1        0.2900
     19 O           2.3541    0.1805   31.4807 O.3     1  UNL1       -0.4643
     20 C           3.7108   -0.2223   31.9776 C.ar    1  UNL1        0.1537
     21 C           4.0570   -0.0601   33.4280 C.ar    1  UNL1        0.0504
     22 C           5.4138   -0.4629   33.9249 C.ar    1  UNL1        0.0713
     23 CL          5.7599   -0.3007   35.3754 Cl      1  UNL1       -0.0813
     24 C           6.4244   -1.0279   32.9713 C.ar    1  UNL1        0.0696
     25 CL          7.7812   -1.4307   33.4682 Cl      1  UNL1       -0.0813
     26 C           6.0783   -1.1902   31.5208 C.ar    1  UNL1        0.0302
     27 C           4.7214   -0.7873   31.0240 C.ar    1  UNL1        0.0894
     28 N           4.3753   -0.9495   29.5735 N.am    1  UNL1       -0.2439
     29 C           6.5420   -3.5677   27.5252 C.3     1  UNL1        0.0926
     30 N           7.1413   -4.0761   28.8028 N.3     1  UNL1       -0.2670
     31 C           6.5853   -5.3076   29.4542 C.3     1  UNL1        0.1047
     32 C           7.1847   -5.8160   30.7318 C.3     1  UNL1        0.1595
     33 O           8.3402   -5.0929   31.3580 O.3     1  UNL1       -0.3508
     34 C           8.8962   -3.8615   30.7066 C.3     1  UNL1        0.1595
     35 C           8.2968   -3.3531   29.4290 C.3     1  UNL1        0.1047
@<TRIPOS>BOND
     1    16    17    2
     2    17    18    1
     3    18    19    1
     4    19    20    1
     5    20    21   ar
     6    21    22   ar
     7    22    23    1
     8    22    24   ar
     9    24    25    1
    10    24    26   ar
    11    26    27   ar
    12    27    28    1
    13    28    15    1
    14    15     1    1
    15     1     2    2
    16     1     3   am
    17     3     4    1
    18     4     5    1
    19     5     6    1
    20     6     7    1
    21     7     9    1
    22     9    10   ar
    23    10    11   ar
    24    11    12   ar
    25    12    13   ar
    26    13    14   ar
    27     7     8    1
    28     8    29    1
    29    29    30    1
    30    30    31    1
    31    31    32    1
    32    32    33    1
    33    33    34    1
    34    34    35    1
    35    28    17   am
    36     8     3    1
    37    35    30    1
    38    27    20   ar
    39    14     9   ar
@<TRIPOS>MOLECULE
*****
 35 39 0 0 0
SMALL
GASTEIGER

@<TRIPOS>ATOM
      1 C           8.1521   -4.5364   24.9565 C.2     1  UNL1        0.2463
      2 O           9.3594   -5.0164   25.7063 O.2     1  UNL1       -0.2730
      3 N           8.2110   -4.3715   23.4668 N.am    1  UNL1       -0.2781
      4 C           9.4772   -4.6866   22.7268 C.3     1  UNL1        0.0935
      5 C           9.5360   -4.5217   21.2370 C.3     1  UNL1        0.0219
      6 C           8.3287   -4.0418   20.4872 C.3     1  UNL1        0.0078
      7 C           7.0626   -3.7267   21.2273 C.3     1  UNL1        0.0419
      8 C           7.0037   -3.8916   22.7170 C.3     1  UNL1        0.0953
      9 C           5.8553   -3.2468   20.4775 C.ar    1  UNL1       -0.0209
     10 C           4.7724   -4.2142   20.1015 C.ar    1  UNL1       -0.0042
     11 C           3.5651   -3.7343   19.3518 C.ar    1  UNL1       -0.0003
     12 C           3.4407   -2.2869   18.9781 C.ar    1  UNL1       -0.0000
     13 C           4.5235   -1.3195   19.3541 C.ar    1  UNL1       -0.0003
     14 C           5.7309   -1.7994   20.1039 C.ar    1  UNL1       -0.0042
     15 C           6.8860   -4.2213   25.6965 C.3     1  UNL1        0.1835
     16 O           7.0490   -6.9013   27.0349 O.2     1  UNL1       -0.2705
     17 C           6.9301   -5.6558   27.8623 C.2     1  UNL1        0.2744
     18 C           6.8928   -5.7502   29.3588 C.3     1  UNL1        0.2900
     19 O           6.7740   -4.5046   30.1862 O.3     1  UNL1       -0.4643
     20 C           6.6925   -3.1647   29.5170 C.ar    1  UNL1        0.1537
     21 C           6.5737   -1.9191   30.3443 C.ar    1  UNL1        0.0504
     22 C           6.4922   -0.5792   29.6751 C.ar    1  UNL1        0.0713
     23 CL          6.3734    0.6664   30.5025 Cl      1  UNL1       -0.0813
     24 C           6.5295   -0.4847   28.1785 C.ar    1  UNL1        0.0696
     25 CL          6.4480    0.8552   27.5094 Cl      1  UNL1       -0.0813
     26 C           6.6483   -1.7303   27.3512 C.ar    1  UNL1        0.0302
     27 C           6.7298   -3.0703   28.0204 C.ar    1  UNL1        0.0894
     28 N           6.8486   -4.3158   27.1931 N.am    1  UNL1       -0.2439
     29 C           5.7375   -3.5765   23.4570 C.3     1  UNL1        0.0926
     30 N           5.2436   -2.1621   23.5299 N.3     1  UNL1       -0.2670
     31 C           6.1976   -1.0502   23.8517 C.3     1  UNL1        0.1047
     32 C           5.7037    0.3643   23.9247 C.3     1  UNL1        0.1595
     33 O           4.2557    0.6669   23.6759 O.3     1  UNL1       -0.3508
     34 C           3.3017   -0.4451   23.3541 C.3     1  UNL1        0.1595
     35 C           3.7957   -1.8596   23.2811 C.3     1  UNL1        0.1047
@<TRIPOS>BOND
     1    16    17    2
     2    17    18    1
     3    18    19    1
     4    19    20    1
     5    20    21   ar
     6    21    22   ar
     7    22    23    1
     8    22    24   ar
     9    24    25    1
    10    24    26   ar
    11    26    27   ar
    12    27    28    1
    13    28    15    1
    14    15     1    1
    15     1     2    2
    16     1     3   am
    17     3     4    1
    18     4     5    1
    19     5     6    1
    20     6     7    1
    21     7     9    1
    22     9    10   ar
    23    10    11   ar
    24    11    12   ar
    25    12    13   ar
    26    13    14   ar
    27     7     8    1
    28     8    29    1
    29    29    30    1
    30    30    31    1
    31    31    32    1
    32    32    33    1
    33    33    34    1
    34    34    35    1
    35    28    17   am
    36     8     3    1
    37    35    30    1
    38    27    20   ar
    39    14     9   ar
@<TRIPOS>MOLECULE
*****
 35 39 0 0 0
SMALL
GASTEIGER

@<TRIPOS>ATOM
      1 C           6.6858   -3.7115   21.7826 C.2     1  UNL1        0.2463
      2 O           7.4784   -4.9743   21.9480 O.2     1  UNL1       -0.2730
      3 N           5.5274   -3.6724   20.8306 N.am    1  UNL1       -0.2781
      4 C           5.1614   -4.8960   20.0439 C.3     1  UNL1        0.0935
      5 C           4.0029   -4.8568   19.0918 C.3     1  UNL1        0.0219
      6 C           3.2104   -3.5941   18.9265 C.3     1  UNL1        0.0078
      7 C           3.5763   -2.3705   19.7132 C.3     1  UNL1        0.0419
      8 C           4.7348   -2.4096   20.6652 C.3     1  UNL1        0.0953
      9 C           2.7838   -1.1077   19.5478 C.ar    1  UNL1       -0.0209
     10 C           3.1339   -0.1400   18.4565 C.ar    1  UNL1       -0.0042
     11 C           2.3414    1.1228   18.2911 C.ar    1  UNL1       -0.0003
     12 C           1.1988    1.4178   19.2171 C.ar    1  UNL1       -0.0000
     13 C           0.8487    0.4501   20.3084 C.ar    1  UNL1       -0.0003
     14 C           1.6412   -0.8127   20.4738 C.ar    1  UNL1       -0.0042
     15 C           7.0518   -2.4879   22.5693 C.3     1  UNL1        0.1835
     16 O           9.5356   -3.6736   23.7630 O.2     1  UNL1       -0.2705
     17 C           8.4435   -3.1642   24.6563 C.2     1  UNL1        0.2744
     18 C           8.5934   -3.2477   26.1464 C.3     1  UNL1        0.2900
     19 O           7.5013   -2.7383   27.0397 O.3     1  UNL1       -0.4643
     20 C           6.2595   -2.1455   26.4429 C.ar    1  UNL1        0.1537
     21 C           5.1674   -1.6361   27.3362 C.ar    1  UNL1        0.0504
     22 C           3.9256   -1.0432   26.7394 C.ar    1  UNL1        0.0713
     23 CL          2.8335   -0.5339   27.6327 Cl      1  UNL1       -0.0813
     24 C           3.7757   -0.9597   25.2492 C.ar    1  UNL1        0.0696
     25 CL          2.5338   -0.3669   24.6524 Cl      1  UNL1       -0.0813
     26 C           4.8677   -1.4691   24.3559 C.ar    1  UNL1        0.0302
     27 C           6.1096   -2.0620   24.9528 C.ar    1  UNL1        0.0894
     28 N           7.2017   -2.5714   24.0595 N.am    1  UNL1       -0.2439
     29 C           5.1007   -1.1860   21.4519 C.3     1  UNL1        0.0926
     30 N           5.6844    0.0070   20.7548 N.3     1  UNL1       -0.2670
     31 C           5.2519    1.3894   21.1446 C.3     1  UNL1        0.1047
     32 C           5.8355    2.5824   20.4475 C.3     1  UNL1        0.1595
     33 O           6.8518    2.3931   19.3606 O.3     1  UNL1       -0.3508
     34 C           7.2844    1.0107   18.9707 C.3     1  UNL1        0.1595
     35 C           6.7006   -0.1823   19.6679 C.3     1  UNL1        0.1047
@<TRIPOS>BOND
     1    16    17    2
     2    17    18    1
     3    18    19    1
     4    19    20    1
     5    20    21   ar
     6    21    22   ar
     7    22    23    1
     8    22    24   ar
     9    24    25    1
    10    24    26   ar
    11    26    27   ar
    12    27    28    1
    13    28    15    1
    14    15     1    1
    15     1     2    2
    16     1     3   am
    17     3     4    1
    18     4     5    1
    19     5     6    1
    20     6     7    1
    21     7     9    1
    22     9    10   ar
    23    10    11   ar
    24    11    12   ar
    25    12    13   ar
    26    13    14   ar
    27     7     8    1
    28     8    29    1
    29    29    30    1
    30    30    31    1
    31    31    32    1
    32    32    33    1
    33    33    34    1
    34    34    35    1
    35    28    17   am
    36     8     3    1
    37    35    30    1
    38    27    20   ar
    39    14     9   ar
@<TRIPOS>MOLECULE
*****
 35 39 0 0 0
SMALL
GASTEIGER

@<TRIPOS>ATOM
      1 C           3.5341   -0.7283   28.5571 C.2     1  UNL1        0.2463
      2 O           3.2328   -1.6764   27.4344 O.2     1  UNL1       -0.2730
      3 N           2.4277    0.0658   29.1856 N.am    1  UNL1       -0.2781
      4 C           1.0198   -0.0881   28.6914 C.3     1  UNL1        0.0935
      5 C          -0.0867    0.7060   29.3199 C.3     1  UNL1        0.0219
      6 C           0.2146    1.6541   30.4426 C.3     1  UNL1        0.0078
      7 C           1.6225    1.8080   30.9367 C.3     1  UNL1        0.0419
      8 C           2.7290    1.0139   30.3083 C.3     1  UNL1        0.0953
      9 C           1.9239    2.7560   32.0594 C.ar    1  UNL1       -0.0209
     10 C           1.8539    2.2818   33.4808 C.ar    1  UNL1       -0.0042
     11 C           2.1553    3.2298   34.6034 C.ar    1  UNL1       -0.0003
     12 C           2.5267    4.6521   34.3047 C.ar    1  UNL1       -0.0000
     13 C           2.5966    5.1264   32.8834 C.ar    1  UNL1       -0.0003
     14 C           2.2952    4.1783   31.7607 C.ar    1  UNL1       -0.0042
     15 C           4.9420   -0.5744   29.0513 C.3     1  UNL1        0.1835
     16 O           5.8635    0.2799   26.3271 O.2     1  UNL1       -0.2705
     17 C           6.5203   -0.8825   27.0107 C.2     1  UNL1        0.2744
     18 C           7.6379   -1.6178   26.3322 C.3     1  UNL1        0.2900
     19 O           8.2948   -2.7802   27.0158 O.3     1  UNL1       -0.4643
     20 C           7.8341   -3.2074   28.3779 C.ar    1  UNL1        0.1537
     21 C           8.4910   -4.3698   29.0614 C.ar    1  UNL1        0.0504
     22 C           8.0303   -4.7969   30.4235 C.ar    1  UNL1        0.0713
     23 CL          8.6872   -5.9594   31.1071 Cl      1  UNL1       -0.0813
     24 C           6.9127   -4.0617   31.1021 C.ar    1  UNL1        0.0696
     25 CL          6.4520   -4.4888   32.4641 Cl      1  UNL1       -0.0813
     26 C           6.2558   -2.8993   30.4185 C.ar    1  UNL1        0.0302
     27 C           6.7165   -2.4721   29.0563 C.ar    1  UNL1        0.0894
     28 N           6.0597   -1.3097   28.3727 N.am    1  UNL1       -0.2439
     29 C           4.1369    1.1678   30.8025 C.3     1  UNL1        0.0926
     30 N           4.5594    0.5070   32.0810 N.3     1  UNL1       -0.2670
     31 C           3.9046   -0.7701   32.5173 C.3     1  UNL1        0.1047
     32 C           4.3271   -1.4308   33.7959 C.3     1  UNL1        0.1595
     33 O           5.4045   -0.8145   34.6383 O.3     1  UNL1       -0.3508
     34 C           6.0593    0.4625   34.2020 C.3     1  UNL1        0.1595
     35 C           5.6367    1.1233   32.9233 C.3     1  UNL1        0.1047
@<TRIPOS>BOND
     1    16    17    2
     2    17    18    1
     3    18    19    1
     4    19    20    1
     5    20    21   ar
     6    21    22   ar
     7    22    23    1
     8    22    24   ar
     9    24    25    1
    10    24    26   ar
    11    26    27   ar
    12    27    28    1
    13    28    15    1
    14    15     1    1
    15     1     2    2
    16     1     3   am
    17     3     4    1
    18     4     5    1
    19     5     6    1
    20     6     7    1
    21     7     9    1
    22     9    10   ar
    23    10    11   ar
    24    11    12   ar
    25    12    13   ar
    26    13    14   ar
    27     7     8    1
    28     8    29    1
    29    29    30    1
    30    30    31    1
    31    31    32    1
    32    32    33    1
    33    33    34    1
    34    34    35    1
    35    28    17   am
    36     8     3    1
    37    35    30    1
    38    27    20   ar
    39    14     9   ar
@<TRIPOS>MOLECULE
*****
 35 39 0 0 0
SMALL
GASTEIGER

@<TRIPOS>ATOM
      1 C           4.8355    1.2241   25.2186 C.2     1  UNL1        0.2463
      2 O           5.6499    1.5341   23.9976 O.2     1  UNL1       -0.2730
      3 N           4.7782    2.2061   26.3511 N.am    1  UNL1       -0.2781
      4 C           5.5354    3.4979   26.2626 C.3     1  UNL1        0.0935
      5 C           5.4781    4.4799   27.3952 C.3     1  UNL1        0.0219
      6 C           4.6638    4.1699   28.6161 C.3     1  UNL1        0.0078
      7 C           3.9066    2.8781   28.7045 C.3     1  UNL1        0.0419
      8 C           3.9638    1.8962   27.5721 C.3     1  UNL1        0.0953
      9 C           3.0922    2.5681   29.9255 C.ar    1  UNL1       -0.0209
     10 C           1.7529    3.2157   30.1179 C.ar    1  UNL1       -0.0042
     11 C           0.9385    2.9057   31.3389 C.ar    1  UNL1       -0.0003
     12 C           1.4634    1.9483   32.3674 C.ar    1  UNL1       -0.0000
     13 C           2.8027    1.3008   32.1749 C.ar    1  UNL1       -0.0003
     14 C           3.6171    1.6107   30.9540 C.ar    1  UNL1       -0.0042
     15 C           4.0783   -0.0677   25.3071 C.3     1  UNL1        0.1835
     16 O           5.9289   -1.5468   27.1476 O.2     1  UNL1       -0.2705
     17 C           5.6461   -2.0855   25.7766 C.2     1  UNL1        0.2744
     18 C           6.2887   -3.3637   25.3258 C.3     1  UNL1        0.2900
     19 O           6.0059   -3.9025   23.9547 O.3     1  UNL1       -0.4643
     20 C           5.0806   -3.1630   23.0345 C.ar    1  UNL1        0.1537
     21 C           4.7978   -3.7017   21.6634 C.ar    1  UNL1        0.0504
     22 C           3.8725   -2.9622   20.7431 C.ar    1  UNL1        0.0713
     23 CL          3.5897   -3.5010   19.3721 Cl      1  UNL1       -0.0813
     24 C           3.2300   -1.6839   21.1939 C.ar    1  UNL1        0.0696
     25 CL          2.3047   -0.9444   20.2736 Cl      1  UNL1       -0.0813
     26 C           3.5127   -1.1452   22.5650 C.ar    1  UNL1        0.0302
     27 C           4.4381   -1.8848   23.4853 C.ar    1  UNL1        0.0894
     28 N           4.7209   -1.3460   24.8563 N.am    1  UNL1       -0.2439
     29 C           3.2067    0.6043   27.6605 C.3     1  UNL1        0.0926
     30 N           1.7129    0.6182   27.7957 N.3     1  UNL1       -0.2670
     31 C           0.8866    1.4898   26.8971 C.3     1  UNL1        0.1047
     32 C          -0.6072    1.5037   27.0323 C.3     1  UNL1        0.1595
     33 O          -1.2748    0.6461   28.0662 O.3     1  UNL1       -0.3508
     34 C          -0.4485   -0.2255   28.9648 C.3     1  UNL1        0.1595
     35 C           1.0454   -0.2394   28.8296 C.3     1  UNL1        0.1047
@<TRIPOS>BOND
     1    16    17    2
     2    17    18    1
     3    18    19    1
     4    19    20    1
     5    20    21   ar
     6    21    22   ar
     7    22    23    1
     8    22    24   ar
     9    24    25    1
    10    24    26   ar
    11    26    27   ar
    12    27    28    1
    13    28    15    1
    14    15     1    1
    15     1     2    2
    16     1     3   am
    17     3     4    1
    18     4     5    1
    19     5     6    1
    20     6     7    1
    21     7     9    1
    22     9    10   ar
    23    10    11   ar
    24    11    12   ar
    25    12    13   ar
    26    13    14   ar
    27     7     8    1
    28     8    29    1
    29    29    30    1
    30    30    31    1
    31    31    32    1
    32    32    33    1
    33    33    34    1
    34    34    35    1
    35    28    17   am
    36     8     3    1
    37    35    30    1
    38    27    20   ar
    39    14     9   ar
@<TRIPOS>MOLECULE
*****
 35 39 0 0 0
SMALL
GASTEIGER

@<TRIPOS>ATOM
      1 C           5.4557   -0.0977   24.7059 C.2     1  UNL1        0.2463
      2 O           5.3629    1.3651   25.0246 O.2     1  UNL1       -0.2730
      3 N           6.7128   -0.8547   25.0165 N.am    1  UNL1       -0.2781
      4 C           7.8772   -0.1490   25.6459 C.3     1  UNL1        0.0935
      5 C           9.1343   -0.9061   25.9565 C.3     1  UNL1        0.0219
      6 C           9.2271   -2.3689   25.6378 C.3     1  UNL1        0.0078
      7 C           8.0627   -3.0746   25.0084 C.3     1  UNL1        0.0419
      8 C           6.8055   -2.3176   24.6978 C.3     1  UNL1        0.0953
      9 C           8.1554   -4.5374   24.6897 C.ar    1  UNL1       -0.0209
     10 C           7.6928   -5.5540   25.6910 C.ar    1  UNL1       -0.0042
     11 C           7.7856   -7.0168   25.3723 C.ar    1  UNL1       -0.0003
     12 C           8.3408   -7.4630   24.0522 C.ar    1  UNL1       -0.0000
     13 C           8.8033   -6.4465   23.0509 C.ar    1  UNL1       -0.0003
     14 C           8.7106   -4.9836   23.3696 C.ar    1  UNL1       -0.0042
     15 C           4.2913   -0.8035   24.0765 C.3     1  UNL1        0.1835
     16 O           2.7051    0.2291   26.4042 O.2     1  UNL1       -0.2705
     17 C           2.2130    0.4495   25.0044 C.2     1  UNL1        0.2744
     18 C           0.9279    1.1862   24.7685 C.3     1  UNL1        0.2900
     19 O           0.4358    1.4066   23.3687 O.3     1  UNL1       -0.4643
     20 C           1.2289    0.8904   22.2049 C.ar    1  UNL1        0.1537
     21 C           0.7368    1.1108   20.8052 C.ar    1  UNL1        0.0504
     22 C           1.5299    0.5945   19.6414 C.ar    1  UNL1        0.0713
     23 CL          1.0378    0.8149   18.2416 Cl      1  UNL1       -0.0813
     24 C           2.8151   -0.1422   19.8773 C.ar    1  UNL1        0.0696
     25 CL          3.6081   -0.6585   18.7135 Cl      1  UNL1       -0.0813
     26 C           3.3071   -0.3627   21.2770 C.ar    1  UNL1        0.0302
     27 C           2.5140    0.1537   22.4409 C.ar    1  UNL1        0.0894
     28 N           3.0061   -0.0667   23.8406 N.am    1  UNL1       -0.2439
     29 C           5.6412   -3.0234   24.0684 C.3     1  UNL1        0.0926
     30 N           5.5681   -3.1670   22.5771 N.3     1  UNL1       -0.2670
     31 C           4.4446   -3.9398   21.9522 C.3     1  UNL1        0.1047
     32 C           4.3715   -4.0834   20.4609 C.3     1  UNL1        0.1595
     33 O           5.4220   -3.4542   19.5945 O.3     1  UNL1       -0.3508
     34 C           6.5455   -2.6814   20.2194 C.3     1  UNL1        0.1595
     35 C           6.6185   -2.5378   21.7108 C.3     1  UNL1        0.1047
@<TRIPOS>BOND
     1    16    17    2
     2    17    18    1
     3    18    19    1
     4    19    20    1
     5    20    21   ar
     6    21    22   ar
     7    22    23    1
     8    22    24   ar
     9    24    25    1
    10    24    26   ar
    11    26    27   ar
    12    27    28    1
    13    28    15    1
    14    15     1    1
    15     1     2    2
    16     1     3   am
    17     3     4    1
    18     4     5    1
    19     5     6    1
    20     6     7    1
    21     7     9    1
    22     9    10   ar
    23    10    11   ar
    24    11    12   ar
    25    12    13   ar
    26    13    14   ar
    27     7     8    1
    28     8    29    1
    29    29    30    1
    30    30    31    1
    31    31    32    1
    32    32    33    1
    33    33    34    1
    34    34    35    1
    35    28    17   am
    36     8     3    1
    37    35    30    1
    38    27    20   ar
    39    14     9   ar
@<TRIPOS>MOLECULE
*****
 35 39 0 0 0
SMALL
GASTEIGER

@<TRIPOS>ATOM
      1 C           6.3006   -0.1834   28.6162 C.2     1  UNL1        0.2463
      2 O           7.7552   -0.2259   28.9802 O.2     1  UNL1       -0.2730
      3 N           5.7897    0.8814   27.6915 N.am    1  UNL1       -0.2781
      4 C           6.7333    1.9037   27.1307 C.3     1  UNL1        0.0935
      5 C           6.2223    2.9685   26.2059 C.3     1  UNL1        0.0219
      6 C           4.7678    3.0110   25.8421 C.3     1  UNL1        0.0078
      7 C           3.8241    1.9887   26.4029 C.3     1  UNL1        0.0419
      8 C           4.3351    0.9239   27.3276 C.3     1  UNL1        0.0953
      9 C           2.3696    2.0312   26.0390 C.ar    1  UNL1       -0.0209
     10 C           1.4584    3.0192   26.7051 C.ar    1  UNL1       -0.0042
     11 C           0.0038    3.0617   26.3412 C.ar    1  UNL1       -0.0003
     12 C          -0.5396    2.1163   25.3113 C.ar    1  UNL1       -0.0000
     13 C           0.3716    1.1283   24.6452 C.ar    1  UNL1       -0.0003
     14 C           1.8262    1.0858   25.0091 C.ar    1  UNL1       -0.0042
     15 C           5.3570   -1.2057   29.1771 C.3     1  UNL1        0.1835
     16 O           5.4122   -0.9849   32.1685 O.2     1  UNL1       -0.2705
     17 C           5.9130   -2.2303   31.4990 C.2     1  UNL1        0.2744
     18 C           6.4415   -3.3652   32.3251 C.3     1  UNL1        0.2900
     19 O           6.9423   -4.6106   31.6556 O.3     1  UNL1       -0.4643
     20 C           6.9147   -4.7210   30.1600 C.ar    1  UNL1        0.1537
     21 C           7.4156   -5.9664   29.4905 C.ar    1  UNL1        0.0504
     22 C           7.3880   -6.0768   27.9948 C.ar    1  UNL1        0.0713
     23 CL          7.8888   -7.3221   27.3253 Cl      1  UNL1       -0.0813
     24 C           6.8595   -4.9418   27.1686 C.ar    1  UNL1        0.0696
     25 CL          6.8319   -5.0522   25.6729 Cl      1  UNL1       -0.0813
     26 C           6.3587   -3.6964   27.8381 C.ar    1  UNL1        0.0302
     27 C           6.3863   -3.5860   29.3338 C.ar    1  UNL1        0.0894
     28 N           5.8854   -2.3407   30.0033 N.am    1  UNL1       -0.2439
     29 C           3.3914   -0.0983   27.8884 C.3     1  UNL1        0.0926
     30 N           2.2583    0.3319   28.7721 N.3     1  UNL1       -0.2670
     31 C           0.8602   -0.1220   28.4734 C.3     1  UNL1        0.1047
     32 C          -0.2729    0.3082   29.3571 C.3     1  UNL1        0.1595
     33 O          -0.0079    1.1924   30.5395 O.3     1  UNL1       -0.3508
     34 C           1.3902    1.6463   30.8382 C.3     1  UNL1        0.1595
     35 C           2.5233    1.2160   29.9545 C.3     1  UNL1        0.1047
@<TRIPOS>BOND
     1    16    17    2
     2    17    18    1
     3    18    19    1
     4    19    20    1
     5    20    21   ar
     6    21    22   ar
     7    22    23    1
     8    22    24   ar
     9    24    25    1
    10    24    26   ar
    11    26    27   ar
    12    27    28    1
    13    28    15    1
    14    15     1    1
    15     1     2    2
    16     1     3   am
    17     3     4    1
    18     4     5    1
    19     5     6    1
    20     6     7    1
    21     7     9    1
    22     9    10   ar
    23    10    11   ar
    24    11    12   ar
    25    12    13   ar
    26    13    14   ar
    27     7     8    1
    28     8    29    1
    29    29    30    1
    30    30    31    1
    31    31    32    1
    32    32    33    1
    33    33    34    1
    34    34    35    1
    35    28    17   am
    36     8     3    1
    37    35    30    1
    38    27    20   ar
    39    14     9   ar
