@<TRIPOS>MOLECULE
*****
 23 24 0 0 0
SMALL
GASTEIGER

@<TRIPOS>ATOM
      1 C         -10.1728  -19.1990   22.7745 C.ar    1  UNL1        0.1753
      2 C          -8.8326  -19.5914   22.2270 C.ar    1  UNL1        0.0403
      3 C          -8.4772  -19.2636   20.8071 C.ar    1  UNL1        0.0063
      4 C          -9.4621  -18.5434   19.9346 C.ar    1  UNL1        0.0403
      5 C         -10.8023  -18.1510   20.4821 C.ar    1  UNL1        0.1754
      6 C         -11.1576  -18.4788   21.9021 C.ar    1  UNL1        0.2061
      7 C          -7.1369  -19.6561   20.2596 C.2     1  UNL1        0.0035
      8 C          -5.8880  -19.3117   21.0155 C.2     1  UNL1        0.0420
      9 C          -4.5477  -19.7042   20.4681 C.2     1  UNL1        0.1957
     10 O          -4.3481  -21.0699   19.8807 O.2     1  UNL1       -0.2866
     11 C          -3.4070  -18.7309   20.5081 C.ar    1  UNL1        0.0420
     12 C          -3.1709  -17.9022   21.7358 C.ar    1  UNL1        0.0239
     13 C          -2.0302  -16.9289   21.7758 C.ar    1  UNL1        0.0990
     14 N          -1.1256  -16.7844   20.5880 N.ar    1  UNL1       -0.2423
     15 C          -1.3617  -17.6132   19.3602 C.ar    1  UNL1        0.0990
     16 C          -2.5024  -18.5864   19.3202 C.ar    1  UNL1        0.0239
     17 O         -11.7873  -17.4308   19.6096 O.3     1  UNL1       -0.4683
     18 C         -11.7069  -15.9405   19.4596 C.3     1  UNL1        0.2526
     19 O         -12.4979  -18.0863   22.4496 O.3     1  UNL1       -0.4654
     20 C         -12.7265  -16.6883   22.9427 C.3     1  UNL1        0.2528
     21 O         -10.5281  -19.5268   24.1945 O.3     1  UNL1       -0.4723
     22 C          -9.3841  -17.3500   25.0327 C.3     1  UNL1        0.0512
     23 C          -9.9739  -18.6996   25.3164 C.3     1  UNL1        0.2057
@<TRIPOS>BOND
     1    22    23    1
     2    23    21    1
     3    21     1    1
     4     1     2   ar
     5     2     3   ar
     6     3     7    1
     7     7     8    2
     8     8     9    1
     9     9    10    2
    10     9    11    1
    11    11    12   ar
    12    12    13   ar
    13    13    14   ar
    14    14    15   ar
    15    15    16   ar
    16     3     4   ar
    17     4     5   ar
    18     5    17    1
    19    17    18    1
    20     5     6   ar
    21     6    19    1
    22    19    20    1
    23     6     1   ar
    24    16    11   ar
@<TRIPOS>MOLECULE
*****
 23 24 0 0 0
SMALL
GASTEIGER

@<TRIPOS>ATOM
      1 C         -10.8749  -17.9526   21.2720 C.ar    1  UNL1        0.1753
      2 C          -9.6514  -18.4686   20.5744 C.ar    1  UNL1        0.0403
      3 C          -8.3925  -18.7151   21.3520 C.ar    1  UNL1        0.0063
      4 C          -8.3572  -18.4455   22.8271 C.ar    1  UNL1        0.0403
      5 C          -9.5808  -17.9295   23.5247 C.ar    1  UNL1        0.1754
      6 C         -10.8396  -17.6831   22.7471 C.ar    1  UNL1        0.2061
      7 C          -7.1689  -19.2311   20.6543 C.2     1  UNL1        0.0035
      8 C          -5.8266  -19.1213   21.3148 C.2     1  UNL1        0.0420
      9 C          -4.6031  -19.6372   20.6172 C.2     1  UNL1        0.1957
     10 O          -4.5898  -21.0287   20.0570 O.2     1  UNL1       -0.2866
     11 C          -3.3928  -18.7619   20.4799 C.ar    1  UNL1        0.0420
     12 C          -2.6408  -18.7199   19.1827 C.ar    1  UNL1        0.0239
     13 C          -1.4305  -17.8445   19.0453 C.ar    1  UNL1        0.0990
     14 N          -0.9722  -17.0111   20.2052 N.ar    1  UNL1       -0.2423
     15 C          -1.7241  -17.0530   21.5025 C.ar    1  UNL1        0.0990
     16 C          -2.9344  -17.9284   21.6398 C.ar    1  UNL1        0.0239
     17 O          -9.5456  -17.6599   24.9999 O.3     1  UNL1       -0.4683
     18 C          -8.7988  -16.4708   25.5273 C.3     1  UNL1        0.2526
     19 O         -12.0632  -17.1671   23.4447 O.3     1  UNL1       -0.4654
     20 C         -13.1835  -18.1044   23.7858 C.3     1  UNL1        0.2528
     21 O         -12.1337  -17.7062   20.4944 O.3     1  UNL1       -0.4723
     22 C         -11.5156  -15.5394   19.2011 C.3     1  UNL1        0.0512
     23 C         -12.4795  -16.3167   20.0477 C.3     1  UNL1        0.2057
@<TRIPOS>BOND
     1    22    23    1
     2    23    21    1
     3    21     1    1
     4     1     2   ar
     5     2     3   ar
     6     3     7    1
     7     7     8    2
     8     8     9    1
     9     9    10    2
    10     9    11    1
    11    11    12   ar
    12    12    13   ar
    13    13    14   ar
    14    14    15   ar
    15    15    16   ar
    16     3     4   ar
    17     4     5   ar
    18     5    17    1
    19    17    18    1
    20     5     6   ar
    21     6    19    1
    22    19    20    1
    23     6     1   ar
    24    16    11   ar
@<TRIPOS>MOLECULE
*****
 23 24 0 0 0
SMALL
GASTEIGER

@<TRIPOS>ATOM
      1 C          -4.5270  -17.6657   22.9448 C.ar    1  UNL1        0.1753
      2 C          -5.9367  -18.1508   22.7792 C.ar    1  UNL1        0.0403
      3 C          -6.2876  -19.0617   21.6403 C.ar    1  UNL1        0.0063
      4 C          -5.2287  -19.4875   20.6669 C.ar    1  UNL1        0.0403
      5 C          -3.8191  -19.0024   20.8324 C.ar    1  UNL1        0.1754
      6 C          -3.4682  -18.0915   21.9714 C.ar    1  UNL1        0.2061
      7 C          -7.6973  -19.5468   21.4747 C.2     1  UNL1        0.0035
      8 C          -8.8032  -18.5656   21.2209 C.2     1  UNL1        0.0420
      9 C         -10.2129  -19.0506   21.0554 C.2     1  UNL1        0.1957
     10 O         -10.6014  -19.8225   19.8293 O.2     1  UNL1       -0.2866
     11 C         -11.2341  -18.7639   22.1160 C.ar    1  UNL1        0.0420
     12 C         -11.0012  -19.2225   23.5250 C.ar    1  UNL1        0.0239
     13 C         -12.0224  -18.9357   24.5856 C.ar    1  UNL1        0.0990
     14 N         -13.2766  -18.1903   24.2371 N.ar    1  UNL1       -0.2423
     15 C         -13.5095  -17.7316   22.8280 C.ar    1  UNL1        0.0990
     16 C         -12.4883  -18.0184   21.7675 C.ar    1  UNL1        0.0239
     17 O          -2.7601  -19.4282   19.8590 O.3     1  UNL1       -0.4683
     18 C          -2.2680  -18.4669   18.8181 C.3     1  UNL1        0.2526
     19 O          -2.0584  -17.6064   22.1369 O.3     1  UNL1       -0.4654
     20 C          -1.6666  -16.2517   21.6260 C.3     1  UNL1        0.2528
     21 O          -4.1762  -16.7548   24.0837 O.3     1  UNL1       -0.4723
     22 C          -5.4586  -15.4012   25.8929 C.3     1  UNL1        0.0512
     23 C          -5.0964  -15.6301   24.4554 C.3     1  UNL1        0.2057
@<TRIPOS>BOND
     1    22    23    1
     2    23    21    1
     3    21     1    1
     4     1     2   ar
     5     2     3   ar
     6     3     7    1
     7     7     8    2
     8     8     9    1
     9     9    10    2
    10     9    11    1
    11    11    12   ar
    12    12    13   ar
    13    13    14   ar
    14    14    15   ar
    15    15    16   ar
    16     3     4   ar
    17     4     5   ar
    18     5    17    1
    19    17    18    1
    20     5     6   ar
    21     6    19    1
    22    19    20    1
    23     6     1   ar
    24    16    11   ar
@<TRIPOS>MOLECULE
*****
 23 24 0 0 0
SMALL
GASTEIGER

@<TRIPOS>ATOM
      1 C          -3.9613  -19.1430   22.0754 C.ar    1  UNL1        0.1753
      2 C          -5.3639  -19.6500   21.9161 C.ar    1  UNL1        0.0403
      3 C          -6.5191  -18.8259   22.4023 C.ar    1  UNL1        0.0063
      4 C          -6.2715  -17.4948   23.0479 C.ar    1  UNL1        0.0403
      5 C          -4.8689  -16.9878   23.2073 C.ar    1  UNL1        0.1754
      6 C          -3.7137  -17.8119   22.7210 C.ar    1  UNL1        0.2061
      7 C          -7.9218  -19.3329   22.2430 C.2     1  UNL1        0.0035
      8 C          -8.8931  -18.5913   21.3731 C.2     1  UNL1        0.0420
      9 C         -10.2957  -19.0982   21.2138 C.2     1  UNL1        0.1957
     10 O         -10.6603  -19.9341   20.0227 O.2     1  UNL1       -0.2866
     11 C         -11.3339  -18.7694   22.2453 C.ar    1  UNL1        0.0420
     12 C         -12.5404  -17.9636   21.8648 C.ar    1  UNL1        0.0239
     13 C         -13.5786  -17.6347   22.8963 C.ar    1  UNL1        0.0990
     14 N         -13.4101  -18.1117   24.3085 N.ar    1  UNL1       -0.2423
     15 C         -12.2035  -18.9175   24.6891 C.ar    1  UNL1        0.0990
     16 C         -11.1654  -19.2463   23.6575 C.ar    1  UNL1        0.0239
     17 O          -4.6213  -15.6566   23.8529 O.3     1  UNL1       -0.4683
     18 C          -5.3316  -15.2958   25.1238 C.3     1  UNL1        0.2526
     19 O          -2.3110  -17.3049   22.8804 O.3     1  UNL1       -0.4654
     20 C          -1.7488  -16.3297   21.8888 C.3     1  UNL1        0.2528
     21 O          -2.8061  -19.9671   21.5891 O.3     1  UNL1       -0.4723
     22 C          -2.8506  -18.7415   19.2987 C.3     1  UNL1        0.0512
     23 C          -2.1617  -19.6517   20.2719 C.3     1  UNL1        0.2057
@<TRIPOS>BOND
     1    22    23    1
     2    23    21    1
     3    21     1    1
     4     1     2   ar
     5     2     3   ar
     6     3     7    1
     7     7     8    2
     8     8     9    1
     9     9    10    2
    10     9    11    1
    11    11    12   ar
    12    12    13   ar
    13    13    14   ar
    14    14    15   ar
    15    15    16   ar
    16     3     4   ar
    17     4     5   ar
    18     5    17    1
    19    17    18    1
    20     5     6   ar
    21     6    19    1
    22    19    20    1
    23     6     1   ar
    24    16    11   ar
@<TRIPOS>MOLECULE
*****
 23 24 0 0 0
SMALL
GASTEIGER

@<TRIPOS>ATOM
      1 C          -9.4902  -17.9406   21.6575 C.ar    1  UNL1        0.1753
      2 C          -8.0795  -18.3937   21.4243 C.ar    1  UNL1        0.0403
      3 C          -6.9954  -17.9935   22.3806 C.ar    1  UNL1        0.0063
      4 C          -7.3220  -17.1401   23.5701 C.ar    1  UNL1        0.0403
      5 C          -8.7327  -16.6870   23.8034 C.ar    1  UNL1        0.1754
      6 C          -9.8168  -17.0872   22.8470 C.ar    1  UNL1        0.2061
      7 C          -5.5846  -18.4466   22.1473 C.2     1  UNL1        0.0035
      8 C          -5.2090  -19.0895   20.8451 C.2     1  UNL1        0.0420
      9 C          -3.7983  -19.5427   20.6118 C.2     1  UNL1        0.1957
     10 O          -3.4982  -21.0022   20.4386 O.2     1  UNL1       -0.2866
     11 C          -2.6875  -18.5364   20.5517 C.ar    1  UNL1        0.0420
     12 C          -2.6984  -17.3514   21.4712 C.ar    1  UNL1        0.0239
     13 C          -1.5876  -16.3451   21.4111 C.ar    1  UNL1        0.0990
     14 N          -0.4659  -16.5239   20.4314 N.ar    1  UNL1       -0.2423
     15 C          -0.4550  -17.7089   19.5118 C.ar    1  UNL1        0.0990
     16 C          -1.5657  -18.7152   19.5719 C.ar    1  UNL1        0.0239
     17 O          -9.0594  -15.8336   24.9930 O.3     1  UNL1       -0.4683
     18 C          -7.9715  -15.4143   25.9367 C.3     1  UNL1        0.2526
     19 O         -11.2276  -16.6340   23.0803 O.3     1  UNL1       -0.4654
     20 C         -11.9824  -15.9382   21.9867 C.3     1  UNL1        0.2528
     21 O         -10.5743  -18.3408   20.7012 O.3     1  UNL1       -0.4723
     22 C         -11.0998  -20.4381   22.1416 C.3     1  UNL1        0.0512
     23 C         -11.2875  -19.6482   20.8804 C.3     1  UNL1        0.2057
@<TRIPOS>BOND
     1    22    23    1
     2    23    21    1
     3    21     1    1
     4     1     2   ar
     5     2     3   ar
     6     3     7    1
     7     7     8    2
     8     8     9    1
     9     9    10    2
    10     9    11    1
    11    11    12   ar
    12    12    13   ar
    13    13    14   ar
    14    14    15   ar
    15    15    16   ar
    16     3     4   ar
    17     4     5   ar
    18     5    17    1
    19    17    18    1
    20     5     6   ar
    21     6    19    1
    22    19    20    1
    23     6     1   ar
    24    16    11   ar
@<TRIPOS>MOLECULE
*****
 23 24 0 0 0
SMALL
GASTEIGER

@<TRIPOS>ATOM
      1 C         -11.8573   -3.5646   18.9719 C.ar    1  UNL1        0.1753
      2 C         -13.2492   -3.9393   19.3868 C.ar    1  UNL1        0.0403
      3 C         -13.6823   -5.3749   19.3489 C.ar    1  UNL1        0.0063
      4 C         -12.7236   -6.4358   18.8962 C.ar    1  UNL1        0.0403
      5 C         -11.3317   -6.0612   18.4813 C.ar    1  UNL1        0.1754
      6 C         -10.8985   -4.6256   18.5192 C.ar    1  UNL1        0.2061
      7 C         -15.0744   -5.7495   19.7638 C.2     1  UNL1        0.0035
      8 C         -16.2460   -5.3222   18.9303 C.2     1  UNL1        0.0420
      9 C         -17.6379   -5.6967   19.3452 C.2     1  UNL1        0.1957
     10 O         -18.5466   -4.6629   19.9415 O.2     1  UNL1       -0.2866
     11 C         -18.1212   -7.1051   19.1637 C.ar    1  UNL1        0.0420
     12 C         -19.1365   -7.6772   20.1082 C.ar    1  UNL1        0.0239
     13 C         -19.6198   -9.0855   19.9267 C.ar    1  UNL1        0.0990
     14 N         -19.0879   -9.9218   18.8008 N.ar    1  UNL1       -0.2423
     15 C         -18.0726   -9.3498   17.8563 C.ar    1  UNL1        0.0990
     16 C         -17.5893   -7.9414   18.0377 C.ar    1  UNL1        0.0239
     17 O         -10.3728   -7.1222   18.0285 O.3     1  UNL1       -0.4683
     18 C          -9.3505   -7.6656   18.9822 C.3     1  UNL1        0.2526
     19 O          -9.5065   -4.2510   18.1042 O.3     1  UNL1       -0.4654
     20 C          -9.2116   -3.9345   16.6680 C.3     1  UNL1        0.2528
     21 O         -11.4241   -2.1290   19.0097 O.3     1  UNL1       -0.4723
     22 C         -10.7051   -0.5131   17.1067 C.3     1  UNL1        0.0512
     23 C         -11.7849   -1.2068   17.8831 C.3     1  UNL1        0.2057
@<TRIPOS>BOND
     1    22    23    1
     2    23    21    1
     3    21     1    1
     4     1     2   ar
     5     2     3   ar
     6     3     7    1
     7     7     8    2
     8     8     9    1
     9     9    10    2
    10     9    11    1
    11    11    12   ar
    12    12    13   ar
    13    13    14   ar
    14    14    15   ar
    15    15    16   ar
    16     3     4   ar
    17     4     5   ar
    18     5    17    1
    19    17    18    1
    20     5     6   ar
    21     6    19    1
    22    19    20    1
    23     6     1   ar
    24    16    11   ar
@<TRIPOS>MOLECULE
*****
 23 24 0 0 0
SMALL
GASTEIGER

@<TRIPOS>ATOM
      1 C          -4.6282  -18.8135   22.4374 C.ar    1  UNL1        0.1753
      2 C          -6.0912  -18.9429   22.1328 C.ar    1  UNL1        0.0403
      3 C          -7.0549  -17.9050   22.6270 C.ar    1  UNL1        0.0063
      4 C          -6.5555  -16.7377   23.4257 C.ar    1  UNL1        0.0403
      5 C          -5.0925  -16.6083   23.7303 C.ar    1  UNL1        0.1754
      6 C          -4.1289  -17.6462   23.2361 C.ar    1  UNL1        0.2061
      7 C          -8.5180  -18.0344   22.3223 C.2     1  UNL1        0.0035
      8 C          -9.0877  -19.3658   21.9314 C.2     1  UNL1        0.0420
      9 C         -10.5507  -19.4953   21.6268 C.2     1  UNL1        0.1957
     10 O         -11.2466  -20.8079   21.8339 O.2     1  UNL1       -0.2866
     11 C         -11.3178  -18.3123   21.1150 C.ar    1  UNL1        0.0420
     12 C         -12.3426  -17.6489   21.9866 C.ar    1  UNL1        0.0239
     13 C         -13.1098  -16.4658   21.4749 C.ar    1  UNL1        0.0990
     14 N         -12.8521  -15.9461   20.0916 N.ar    1  UNL1       -0.2423
     15 C         -11.8273  -16.6095   19.2200 C.ar    1  UNL1        0.0990
     16 C         -11.0601  -17.7926   19.7317 C.ar    1  UNL1        0.0239
     17 O          -4.5931  -15.4410   24.5291 O.3     1  UNL1       -0.4683
     18 C          -5.2462  -15.0901   25.8330 C.3     1  UNL1        0.2526
     19 O          -2.6658  -17.5167   23.5407 O.3     1  UNL1       -0.4654
     20 C          -1.7028  -17.1473   22.4516 C.3     1  UNL1        0.2528
     21 O          -3.6646  -19.8513   21.9432 O.3     1  UNL1       -0.4723
     22 C          -4.2388  -20.8849   19.6298 C.3     1  UNL1        0.0512
     23 C          -3.3903  -19.9811   20.4742 C.3     1  UNL1        0.2057
@<TRIPOS>BOND
     1    22    23    1
     2    23    21    1
     3    21     1    1
     4     1     2   ar
     5     2     3   ar
     6     3     7    1
     7     7     8    2
     8     8     9    1
     9     9    10    2
    10     9    11    1
    11    11    12   ar
    12    12    13   ar
    13    13    14   ar
    14    14    15   ar
    15    15    16   ar
    16     3     4   ar
    17     4     5   ar
    18     5    17    1
    19    17    18    1
    20     5     6   ar
    21     6    19    1
    22    19    20    1
    23     6     1   ar
    24    16    11   ar
@<TRIPOS>MOLECULE
*****
 23 24 0 0 0
SMALL
GASTEIGER

@<TRIPOS>ATOM
      1 C         -13.8714   -6.1837   19.2548 C.ar    1  UNL1        0.1753
      2 C         -14.6480   -4.9677   19.6649 C.ar    1  UNL1        0.0403
      3 C         -13.9474   -3.6522   19.8344 C.ar    1  UNL1        0.0063
      4 C         -12.4702   -3.5527   19.5938 C.ar    1  UNL1        0.0403
      5 C         -11.6936   -4.7687   19.1838 C.ar    1  UNL1        0.1754
      6 C         -12.3942   -6.0842   19.0142 C.ar    1  UNL1        0.2061
      7 C         -14.7242   -2.4362   20.2445 C.2     1  UNL1        0.0035
      8 C         -15.9175   -2.0037   19.4452 C.2     1  UNL1        0.0420
      9 C         -16.6942   -0.7878   19.8552 C.2     1  UNL1        0.1957
     10 O         -18.0215   -0.9404   20.5372 O.2     1  UNL1       -0.2866
     11 C         -16.1436    0.5808   19.5834 C.ar    1  UNL1        0.0420
     12 C         -15.1304    0.7791   18.4952 C.ar    1  UNL1        0.0239
     13 C         -14.5799    2.1477   18.2234 C.ar    1  UNL1        0.0990
     14 N         -15.0425    3.3180   19.0397 N.ar    1  UNL1       -0.2423
     15 C         -16.0558    3.1197   20.1279 C.ar    1  UNL1        0.0990
     16 C         -16.6063    1.7511   20.3997 C.ar    1  UNL1        0.0239
     17 O         -10.2163   -4.6692   18.9432 O.3     1  UNL1       -0.4683
     18 C          -9.7002   -4.3306   17.5761 C.3     1  UNL1        0.2526
     19 O         -11.6174   -7.3002   18.6041 O.3     1  UNL1       -0.4654
     20 C         -11.4884   -7.6531   17.1520 C.3     1  UNL1        0.2528
     21 O         -14.5719   -7.4991   19.0853 O.3     1  UNL1       -0.4723
     22 C         -16.5852   -8.8340   20.0418 C.3     1  UNL1        0.0512
     23 C         -16.0407   -7.6088   19.3693 C.3     1  UNL1        0.2057
@<TRIPOS>BOND
     1    22    23    1
     2    23    21    1
     3    21     1    1
     4     1     2   ar
     5     2     3   ar
     6     3     7    1
     7     7     8    2
     8     8     9    1
     9     9    10    2
    10     9    11    1
    11    11    12   ar
    12    12    13   ar
    13    13    14   ar
    14    14    15   ar
    15    15    16   ar
    16     3     4   ar
    17     4     5   ar
    18     5    17    1
    19    17    18    1
    20     5     6   ar
    21     6    19    1
    22    19    20    1
    23     6     1   ar
    24    16    11   ar
@<TRIPOS>MOLECULE
*****
 23 24 0 0 0
SMALL
GASTEIGER

@<TRIPOS>ATOM
      1 C          -4.1004  -18.5202   22.3664 C.ar    1  UNL1        0.1753
      2 C          -5.4409  -18.0026   22.7963 C.ar    1  UNL1        0.0403
      3 C          -6.6940  -18.6363   22.2688 C.ar    1  UNL1        0.0063
      4 C          -6.6065  -19.7876   21.3113 C.ar    1  UNL1        0.0403
      5 C          -5.2659  -20.3052   20.8814 C.ar    1  UNL1        0.1754
      6 C          -4.0128  -19.6715   21.4089 C.ar    1  UNL1        0.2061
      7 C          -8.0346  -18.1187   22.6988 C.2     1  UNL1        0.0035
      8 C          -8.1558  -16.7403   23.2780 C.2     1  UNL1        0.0420
      9 C          -9.4963  -16.2227   23.7080 C.2     1  UNL1        0.1957
     10 O          -9.6038  -15.3170   24.8989 O.2     1  UNL1       -0.2866
     11 C         -10.7294  -16.6106   22.9471 C.ar    1  UNL1        0.0420
     12 C         -10.9948  -16.0164   21.5957 C.ar    1  UNL1        0.0239
     13 C         -12.2279  -16.4044   20.8348 C.ar    1  UNL1        0.0990
     14 N         -13.1956  -17.3866   21.4253 N.ar    1  UNL1       -0.2423
     15 C         -12.9303  -17.9809   22.7768 C.ar    1  UNL1        0.0990
     16 C         -11.6972  -17.5929   23.5377 C.ar    1  UNL1        0.0239
     17 O          -5.1783  -21.4565   19.9238 O.3     1  UNL1       -0.4683
     18 C          -6.4141  -21.9550   19.2352 C.3     1  UNL1        0.2526
     19 O          -2.6722  -20.1891   20.9789 O.3     1  UNL1       -0.4654
     20 C          -1.8358  -19.3977   20.0176 C.3     1  UNL1        0.2528
     21 O          -2.8473  -17.8865   22.8939 O.3     1  UNL1       -0.4723
     22 C          -1.6113  -16.2359   21.3135 C.3     1  UNL1        0.0512
     23 C          -2.4940  -16.4827   22.5009 C.3     1  UNL1        0.2057
@<TRIPOS>BOND
     1    22    23    1
     2    23    21    1
     3    21     1    1
     4     1     2   ar
     5     2     3   ar
     6     3     7    1
     7     7     8    2
     8     8     9    1
     9     9    10    2
    10     9    11    1
    11    11    12   ar
    12    12    13   ar
    13    13    14   ar
    14    14    15   ar
    15    15    16   ar
    16     3     4   ar
    17     4     5   ar
    18     5    17    1
    19    17    18    1
    20     5     6   ar
    21     6    19    1
    22    19    20    1
    23     6     1   ar
    24    16    11   ar
