@<TRIPOS>MOLECULE
*****
 31 35 0 0 0
SMALL
GASTEIGER

@<TRIPOS>ATOM
      1 N           3.4419   -1.6066   19.9064 N.ar    1  UNL1       -0.3256
      2 C           4.3054   -1.7960   21.1182 C.ar    1  UNL1        0.0367
      3 C           3.7454   -0.9501   22.2231 C.ar    1  UNL1        0.0109
      4 C           2.5357   -0.2380   21.6942 C.ar    1  UNL1        0.0167
      5 C           1.5809    0.7274   22.3314 C.ar    1  UNL1        0.0308
      6 C           0.4384    1.2871   21.5368 C.ar    1  UNL1        0.1402
      7 F          -0.5165    2.2526   22.1740 F       1  UNL1       -0.2042
      8 C           0.2508    0.8813   20.1049 C.ar    1  UNL1        0.0311
      9 C           1.2057   -0.0841   19.4677 C.ar    1  UNL1        0.0195
     10 C           2.3482   -0.6438   20.2624 C.ar    1  UNL1        0.0598
     11 C           4.4093   -0.9376   23.5681 C.3     1  UNL1        0.1213
     12 N           5.6332   -1.7709   23.8082 N.am    1  UNL1       -0.2747
     13 C           6.2971   -1.7584   25.1533 C.2     1  UNL1        0.2303
     14 O           5.7370   -0.9125   26.2582 O.2     1  UNL1       -0.2745
     15 C           6.1932   -2.6168   22.7033 C.3     1  UNL1        0.0999
     16 C           5.5293   -2.6293   21.3583 C.3     1  UNL1        0.0650
     17 C           3.6377   -2.2646   18.5727 C.3     1  UNL1        0.1474
     18 O           3.8458   -0.9881   16.3194 O.co2   1  UNL1       -0.5472
     19 C           4.4869   -1.6038   17.5278 C.2     1  UNL1        0.0732
     20 O           5.9773   -1.5586   17.6910 O.co2   1  UNL1       -0.5472
     21 C           7.5210   -2.5918   25.3933 C.3     1  UNL1        0.1116
     22 C           7.3823   -4.0129   25.8530 C.ar    1  UNL1       -0.0131
     23 C           6.7169   -4.3160   27.1627 C.ar    1  UNL1       -0.0038
     24 C           6.5783   -5.7370   27.6224 C.ar    1  UNL1       -0.0003
     25 C           7.1049   -6.8550   26.7722 C.ar    1  UNL1       -0.0000
     26 C           7.7703   -6.5520   25.4625 C.ar    1  UNL1       -0.0003
     27 C           8.2970   -7.6700   24.6124 C.ar    1  UNL1       -0.0000
     28 C           8.9624   -7.3669   23.3026 C.ar    1  UNL1       -0.0000
     29 C           9.1010   -5.9457   22.8430 C.ar    1  UNL1       -0.0000
     30 C           8.5744   -4.8278   23.6931 C.ar    1  UNL1       -0.0003
     31 C           7.9090   -5.1309   25.0029 C.ar    1  UNL1       -0.0035
@<TRIPOS>UNITY_ATOM_ATTR
18 1
charge -1
@<TRIPOS>BOND
     1    18    19   ar
     2    19    20   ar
     3    19    17    1
     4    17     1    1
     5     1     2   ar
     6     2     3   ar
     7     3     4   ar
     8     4     5   ar
     9     5     6   ar
    10     6     7    1
    11     6     8   ar
    12     8     9   ar
    13     9    10   ar
    14     3    11    1
    15    11    12    1
    16    12    13   am
    17    13    14    2
    18    13    21    1
    19    21    22    1
    20    22    23   ar
    21    23    24   ar
    22    24    25   ar
    23    25    26   ar
    24    26    27   ar
    25    27    28   ar
    26    28    29   ar
    27    29    30   ar
    28    30    31   ar
    29    12    15    1
    30    15    16    1
    31    10     1   ar
    32    31    22   ar
    33    16     2    1
    34    10     4   ar
    35    31    26   ar
@<TRIPOS>MOLECULE
*****
 31 35 0 0 0
SMALL
GASTEIGER

@<TRIPOS>ATOM
      1 N           5.5890   -1.9307   26.0067 N.ar    1  UNL1       -0.3256
      2 C           5.1308   -2.2025   24.6045 C.ar    1  UNL1        0.0367
      3 C           5.8743   -3.4030   24.0985 C.ar    1  UNL1        0.0109
      4 C           6.7920   -3.8731   25.1879 C.ar    1  UNL1        0.0167
      5 C           7.7654   -5.0121   25.2584 C.ar    1  UNL1        0.0308
      6 C           8.5625   -5.2412   26.5082 C.ar    1  UNL1        0.1402
      7 F           9.5360   -6.3803   26.5787 F       1  UNL1       -0.2042
      8 C           8.3862   -4.3313   27.6876 C.ar    1  UNL1        0.0311
      9 C           7.4127   -3.1922   27.6171 C.ar    1  UNL1        0.0195
     10 C           6.6157   -2.9631   26.3673 C.ar    1  UNL1        0.0598
     11 C           5.6196   -3.9130   22.7110 C.3     1  UNL1        0.1213
     12 N           4.6214   -3.2225   21.8296 N.am    1  UNL1       -0.2747
     13 C           4.3668   -3.7325   20.4421 C.2     1  UNL1        0.2303
     14 O           5.1103   -4.9330   19.9360 O.2     1  UNL1       -0.2745
     15 C           3.8779   -2.0220   22.3356 C.3     1  UNL1        0.0999
     16 C           4.1326   -1.5121   23.7231 C.3     1  UNL1        0.0650
     17 C           5.1054   -0.8212   26.8928 C.3     1  UNL1        0.1474
     18 O           4.9860   -1.2963   29.4443 O.co2   1  UNL1       -0.5472
     19 C           4.3014   -1.1369   28.1190 C.2     1  UNL1        0.0732
     20 O           2.8129   -1.2934   28.0203 O.co2   1  UNL1       -0.5472
     21 C           3.3685   -3.0420   19.5607 C.3     1  UNL1        0.1116
     22 C           3.7001   -1.7123   18.9506 C.ar    1  UNL1       -0.0131
     23 C           4.9788   -1.5356   18.1866 C.ar    1  UNL1       -0.0038
     24 C           5.3104   -0.2060   17.5766 C.ar    1  UNL1       -0.0003
     25 C           4.3632    0.9469   17.7306 C.ar    1  UNL1       -0.0000
     26 C           3.0845    0.7702   18.4946 C.ar    1  UNL1       -0.0003
     27 C           2.1374    1.9232   18.6486 C.ar    1  UNL1       -0.0000
     28 C           0.8587    1.7465   19.4127 C.ar    1  UNL1       -0.0000
     29 C           0.5272    0.4168   20.0227 C.ar    1  UNL1       -0.0000
     30 C           1.4743   -0.7361   19.8687 C.ar    1  UNL1       -0.0003
     31 C           2.7530   -0.5594   19.1046 C.ar    1  UNL1       -0.0035
@<TRIPOS>UNITY_ATOM_ATTR
18 1
charge -1
@<TRIPOS>BOND
     1    18    19   ar
     2    19    20   ar
     3    19    17    1
     4    17     1    1
     5     1     2   ar
     6     2     3   ar
     7     3     4   ar
     8     4     5   ar
     9     5     6   ar
    10     6     7    1
    11     6     8   ar
    12     8     9   ar
    13     9    10   ar
    14     3    11    1
    15    11    12    1
    16    12    13   am
    17    13    14    2
    18    13    21    1
    19    21    22    1
    20    22    23   ar
    21    23    24   ar
    22    24    25   ar
    23    25    26   ar
    24    26    27   ar
    25    27    28   ar
    26    28    29   ar
    27    29    30   ar
    28    30    31   ar
    29    12    15    1
    30    15    16    1
    31    10     1   ar
    32    31    22   ar
    33    16     2    1
    34    10     4   ar
    35    31    26   ar
@<TRIPOS>MOLECULE
*****
 31 35 0 0 0
SMALL
GASTEIGER

@<TRIPOS>ATOM
      1 N           2.8020   -0.6307   20.0474 N.ar    1  UNL1       -0.3256
      2 C           2.1259    0.3297   20.9805 C.ar    1  UNL1        0.0367
      3 C           2.4891   -0.0546   22.3842 C.ar    1  UNL1        0.0109
      4 C           3.3896   -1.2524   22.3187 C.ar    1  UNL1        0.0167
      5 C           4.0584   -2.0649   23.3875 C.ar    1  UNL1        0.0308
      6 C           4.9207   -3.2335   23.0121 C.ar    1  UNL1        0.1402
      7 F           5.5896   -4.0460   24.0810 F       1  UNL1       -0.2042
      8 C           5.1141   -3.5895   21.5679 C.ar    1  UNL1        0.0311
      9 C           4.4452   -2.7770   20.4990 C.ar    1  UNL1        0.0195
     10 C           3.5830   -1.6085   20.8745 C.ar    1  UNL1        0.0598
     11 C           1.9529    0.7359   23.5407 C.3     1  UNL1        0.1213
     12 N           1.0535    1.9107   23.2935 N.am    1  UNL1       -0.2747
     13 C           0.5173    2.7012   24.4501 C.2     1  UNL1        0.2303
     14 O           0.8804    2.3169   25.8539 O.2     1  UNL1       -0.2745
     15 C           0.6903    2.2949   21.8898 C.3     1  UNL1        0.0999
     16 C           1.2265    1.5044   20.7333 C.3     1  UNL1        0.0650
     17 C           2.7127   -0.6159   18.5501 C.3     1  UNL1        0.1474
     18 O           5.1117    0.3499   18.3004 O.co2   1  UNL1       -0.5472
     19 C           3.9488   -0.4047   17.7272 C.2     1  UNL1        0.0732
     20 O           4.0222   -0.9479   16.3309 O.co2   1  UNL1       -0.5472
     21 C          -0.3821    3.8759   24.2029 C.3     1  UNL1        0.1116
     22 C          -1.8236    3.8164   24.6138 C.ar    1  UNL1       -0.0131
     23 C          -2.1943    3.9077   26.0644 C.ar    1  UNL1       -0.0038
     24 C          -3.6357    3.8482   26.4753 C.ar    1  UNL1       -0.0003
     25 C          -4.7063    3.6974   25.4356 C.ar    1  UNL1       -0.0000
     26 C          -4.3356    3.6061   23.9850 C.ar    1  UNL1       -0.0003
     27 C          -5.4063    3.4553   22.9453 C.ar    1  UNL1       -0.0000
     28 C          -5.0355    3.3639   21.4946 C.ar    1  UNL1       -0.0000
     29 C          -3.5940    3.4234   21.0838 C.ar    1  UNL1       -0.0000
     30 C          -2.5234    3.5743   22.1234 C.ar    1  UNL1       -0.0003
     31 C          -2.8942    3.6656   23.5741 C.ar    1  UNL1       -0.0035
@<TRIPOS>UNITY_ATOM_ATTR
18 1
charge -1
@<TRIPOS>BOND
     1    18    19   ar
     2    19    20   ar
     3    19    17    1
     4    17     1    1
     5     1     2   ar
     6     2     3   ar
     7     3     4   ar
     8     4     5   ar
     9     5     6   ar
    10     6     7    1
    11     6     8   ar
    12     8     9   ar
    13     9    10   ar
    14     3    11    1
    15    11    12    1
    16    12    13   am
    17    13    14    2
    18    13    21    1
    19    21    22    1
    20    22    23   ar
    21    23    24   ar
    22    24    25   ar
    23    25    26   ar
    24    26    27   ar
    25    27    28   ar
    26    28    29   ar
    27    29    30   ar
    28    30    31   ar
    29    12    15    1
    30    15    16    1
    31    10     1   ar
    32    31    22   ar
    33    16     2    1
    34    10     4   ar
    35    31    26   ar
@<TRIPOS>MOLECULE
*****
 31 35 0 0 0
SMALL
GASTEIGER

@<TRIPOS>ATOM
      1 N           8.0801   -5.8393   27.4919 N.ar    1  UNL1       -0.3256
      2 C           7.6189   -4.7642   26.5531 C.ar    1  UNL1        0.0367
      3 C           6.9440   -3.6984   27.3647 C.ar    1  UNL1        0.0109
      4 C           6.9883   -4.1148   28.8051 C.ar    1  UNL1        0.0167
      5 C           6.4799   -3.4601   30.0552 C.ar    1  UNL1        0.0308
      6 C           6.6737   -4.1285   31.3839 C.ar    1  UNL1        0.1402
      7 F           6.1653   -3.4738   32.6341 F       1  UNL1       -0.2042
      8 C           7.3758   -5.4517   31.4625 C.ar    1  UNL1        0.0311
      9 C           7.8842   -6.1064   30.2124 C.ar    1  UNL1        0.0195
     10 C           7.6904   -5.4380   28.8837 C.ar    1  UNL1        0.0598
     11 C           6.3765   -2.4865   26.6873 C.3     1  UNL1        0.1213
     12 N           6.4837   -2.3403   25.1982 N.am    1  UNL1       -0.2747
     13 C           5.9161   -1.1282   24.5208 C.2     1  UNL1        0.2303
     14 O           5.2413   -0.0624   25.3324 O.2     1  UNL1       -0.2745
     15 C           7.1585   -3.4061   24.3866 C.3     1  UNL1        0.0999
     16 C           7.7261   -4.6181   25.0641 C.3     1  UNL1        0.0650
     17 C           8.8041   -7.0953   27.1066 C.3     1  UNL1        0.1474
     18 O           8.5588   -9.6229   27.6554 O.co2   1  UNL1       -0.5472
     19 C           8.0504   -8.3856   26.9766 C.2     1  UNL1        0.0732
     20 O           6.7883   -8.4388   26.1677 O.co2   1  UNL1       -0.5472
     21 C           6.0234   -0.9821   23.0318 C.3     1  UNL1        0.1116
     22 C           4.7941   -1.0825   22.1779 C.ar    1  UNL1       -0.0131
     23 C           3.6594   -0.1227   22.3810 C.ar    1  UNL1       -0.0038
     24 C           2.4303   -0.2231   21.5272 C.ar    1  UNL1       -0.0003
     25 C           2.3358   -1.2833   20.4702 C.ar    1  UNL1       -0.0000
     26 C           3.4705   -2.2431   20.2671 C.ar    1  UNL1       -0.0003
     27 C           3.3760   -3.3033   19.2102 C.ar    1  UNL1       -0.0000
     28 C           4.5108   -4.2631   19.0072 C.ar    1  UNL1       -0.0000
     29 C           5.7400   -4.1627   19.8611 C.ar    1  UNL1       -0.0000
     30 C           5.8344   -3.1025   20.9179 C.ar    1  UNL1       -0.0003
     31 C           4.6997   -2.1427   21.1210 C.ar    1  UNL1       -0.0035
@<TRIPOS>UNITY_ATOM_ATTR
18 1
charge -1
@<TRIPOS>BOND
     1    18    19   ar
     2    19    20   ar
     3    19    17    1
     4    17     1    1
     5     1     2   ar
     6     2     3   ar
     7     3     4   ar
     8     4     5   ar
     9     5     6   ar
    10     6     7    1
    11     6     8   ar
    12     8     9   ar
    13     9    10   ar
    14     3    11    1
    15    11    12    1
    16    12    13   am
    17    13    14    2
    18    13    21    1
    19    21    22    1
    20    22    23   ar
    21    23    24   ar
    22    24    25   ar
    23    25    26   ar
    24    26    27   ar
    25    27    28   ar
    26    28    29   ar
    27    29    30   ar
    28    30    31   ar
    29    12    15    1
    30    15    16    1
    31    10     1   ar
    32    31    22   ar
    33    16     2    1
    34    10     4   ar
    35    31    26   ar
@<TRIPOS>MOLECULE
*****
 31 35 0 0 0
SMALL
GASTEIGER

@<TRIPOS>ATOM
      1 N           3.5394   -1.2153   23.7852 N.ar    1  UNL1       -0.3256
      2 C           2.5627   -0.1562   23.3675 C.ar    1  UNL1        0.0367
      3 C           2.3377   -0.2899   21.8905 C.ar    1  UNL1        0.0109
      4 C           3.1753   -1.4315   21.3954 C.ar    1  UNL1        0.0167
      5 C           3.3577   -2.0241   20.0296 C.ar    1  UNL1        0.0308
      6 C           4.2828   -3.1887   19.8348 C.ar    1  UNL1        0.1402
      7 F           4.4652   -3.7814   18.4689 F       1  UNL1       -0.2042
      8 C           5.0255   -3.7606   21.0058 C.ar    1  UNL1        0.0311
      9 C           4.8431   -3.1680   22.3716 C.ar    1  UNL1        0.0195
     10 C           3.9180   -2.0034   22.5664 C.ar    1  UNL1        0.0598
     11 C           1.3992    0.6453   21.1872 C.3     1  UNL1        0.1213
     12 N           0.6856    1.7140   21.9609 N.am    1  UNL1       -0.2747
     13 C          -0.2529    2.6492   21.2575 C.2     1  UNL1        0.2303
     14 O          -0.4779    2.5155   19.7805 O.2     1  UNL1       -0.2745
     15 C           0.9106    1.8477   23.4379 C.3     1  UNL1        0.0999
     16 C           1.8492    0.9126   24.1411 C.3     1  UNL1        0.0650
     17 C           4.0482   -1.4457   25.1773 C.3     1  UNL1        0.1474
     18 O           6.2562   -2.2612   26.2772 O.co2   1  UNL1       -0.5472
     19 C           5.4995   -1.2323   25.4904 C.2     1  UNL1        0.0732
     20 O           6.1942    0.0099   25.0168 O.co2   1  UNL1       -0.5472
     21 C          -0.9664    3.7180   22.0313 C.3     1  UNL1        0.1116
     22 C          -2.4370    3.5941   22.3001 C.ar    1  UNL1       -0.0131
     23 C          -3.3911    3.3731   21.1639 C.ar    1  UNL1       -0.0038
     24 C          -4.8616    3.2493   21.4327 C.ar    1  UNL1       -0.0003
     25 C          -5.3780    3.3464   22.8377 C.ar    1  UNL1       -0.0000
     26 C          -4.4239    3.5674   23.9739 C.ar    1  UNL1       -0.0003
     27 C          -4.9403    3.6646   25.3788 C.ar    1  UNL1       -0.0000
     28 C          -3.9861    3.8856   26.5150 C.ar    1  UNL1       -0.0000
     29 C          -2.5156    4.0094   26.2461 C.ar    1  UNL1       -0.0000
     30 C          -1.9992    3.9123   24.8412 C.ar    1  UNL1       -0.0003
     31 C          -2.9534    3.6913   23.7050 C.ar    1  UNL1       -0.0035
@<TRIPOS>UNITY_ATOM_ATTR
18 1
charge -1
@<TRIPOS>BOND
     1    18    19   ar
     2    19    20   ar
     3    19    17    1
     4    17     1    1
     5     1     2   ar
     6     2     3   ar
     7     3     4   ar
     8     4     5   ar
     9     5     6   ar
    10     6     7    1
    11     6     8   ar
    12     8     9   ar
    13     9    10   ar
    14     3    11    1
    15    11    12    1
    16    12    13   am
    17    13    14    2
    18    13    21    1
    19    21    22    1
    20    22    23   ar
    21    23    24   ar
    22    24    25   ar
    23    25    26   ar
    24    26    27   ar
    25    27    28   ar
    26    28    29   ar
    27    29    30   ar
    28    30    31   ar
    29    12    15    1
    30    15    16    1
    31    10     1   ar
    32    31    22   ar
    33    16     2    1
    34    10     4   ar
    35    31    26   ar
@<TRIPOS>MOLECULE
*****
 31 35 0 0 0
SMALL
GASTEIGER

@<TRIPOS>ATOM
      1 N           3.6152   -0.5168   18.8539 N.ar    1  UNL1       -0.3256
      2 C           2.6031    0.4390   19.4125 C.ar    1  UNL1        0.0367
      3 C           2.4418    0.1415   20.8738 C.ar    1  UNL1        0.0109
      4 C           3.3542   -0.9981   21.2183 C.ar    1  UNL1        0.0167
      5 C           3.6184   -1.7179   22.5075 C.ar    1  UNL1        0.0308
      6 C           4.6078   -2.8446   22.5483 C.ar    1  UNL1        0.1402
      7 F           4.8720   -3.5645   23.8375 F       1  UNL1       -0.2042
      8 C           5.3330   -3.2514   21.2999 C.ar    1  UNL1        0.0311
      9 C           5.0689   -2.5316   20.0107 C.ar    1  UNL1        0.0195
     10 C           4.0795   -1.4050   19.9699 C.ar    1  UNL1        0.0598
     11 C           1.4849    0.9468   21.7020 C.3     1  UNL1        0.1213
     12 N           0.6893    2.0496   21.0688 N.am    1  UNL1       -0.2747
     13 C          -0.2677    2.8549   21.8970 C.2     1  UNL1        0.2303
     14 O          -0.4289    2.5574   23.3583 O.2     1  UNL1       -0.2745
     15 C           0.8506    2.3471   19.6075 C.3     1  UNL1        0.0999
     16 C           1.8075    1.5418   18.7793 C.3     1  UNL1        0.0650
     17 C           4.0813   -0.5743   17.4293 C.3     1  UNL1        0.1474
     18 O           5.8493    1.1926   16.7205 O.co2   1  UNL1       -0.5472
     19 C           5.4981   -0.2185   17.0887 C.2     1  UNL1        0.0732
     20 O           6.5638   -1.2738   17.1163 O.co2   1  UNL1       -0.5472
     21 C          -1.0632    3.9576   21.2637 C.3     1  UNL1        0.1116
     22 C          -2.5281    3.7699   21.0009 C.ar    1  UNL1       -0.0131
     23 C          -3.4715    3.5382   22.1438 C.ar    1  UNL1       -0.0038
     24 C          -4.9363    3.3505   21.8810 C.ar    1  UNL1       -0.0003
     25 C          -5.4577    3.3945   20.4752 C.ar    1  UNL1       -0.0000
     26 C          -4.5143    3.6263   19.3322 C.ar    1  UNL1       -0.0003
     27 C          -5.0357    3.6703   17.9264 C.ar    1  UNL1       -0.0000
     28 C          -4.0922    3.9021   16.7835 C.ar    1  UNL1       -0.0000
     29 C          -2.6274    4.0898   17.0465 C.ar    1  UNL1       -0.0000
     30 C          -2.1060    4.0457   18.4522 C.ar    1  UNL1       -0.0003
     31 C          -3.0495    3.8140   19.5951 C.ar    1  UNL1       -0.0035
@<TRIPOS>UNITY_ATOM_ATTR
18 1
charge -1
@<TRIPOS>BOND
     1    18    19   ar
     2    19    20   ar
     3    19    17    1
     4    17     1    1
     5     1     2   ar
     6     2     3   ar
     7     3     4   ar
     8     4     5   ar
     9     5     6   ar
    10     6     7    1
    11     6     8   ar
    12     8     9   ar
    13     9    10   ar
    14     3    11    1
    15    11    12    1
    16    12    13   am
    17    13    14    2
    18    13    21    1
    19    21    22    1
    20    22    23   ar
    21    23    24   ar
    22    24    25   ar
    23    25    26   ar
    24    26    27   ar
    25    27    28   ar
    26    28    29   ar
    27    29    30   ar
    28    30    31   ar
    29    12    15    1
    30    15    16    1
    31    10     1   ar
    32    31    22   ar
    33    16     2    1
    34    10     4   ar
    35    31    26   ar
@<TRIPOS>MOLECULE
*****
 31 35 0 0 0
SMALL
GASTEIGER

@<TRIPOS>ATOM
      1 N          -3.1585    4.2919   22.9427 N.ar    1  UNL1       -0.3256
      2 C          -1.9750    3.6134   22.3192 C.ar    1  UNL1        0.0367
      3 C          -2.3533    3.2104   20.9248 C.ar    1  UNL1        0.0109
      4 C          -3.7706    3.6399   20.6865 C.ar    1  UNL1        0.0167
      5 C          -4.6723    3.5087   19.4950 C.ar    1  UNL1        0.0308
      6 C          -6.0716    4.0459   19.5507 C.ar    1  UNL1        0.1402
      7 F          -6.9734    3.9147   18.3591 F       1  UNL1       -0.2042
      8 C          -6.5693    4.7144   20.7978 C.ar    1  UNL1        0.0311
      9 C          -5.6676    4.8456   21.9894 C.ar    1  UNL1        0.0195
     10 C          -4.2683    4.3083   21.9337 C.ar    1  UNL1        0.0598
     11 C          -1.3583    2.5044   20.0522 C.3     1  UNL1        0.1213
     12 N           0.0150    2.2013   20.5740 N.am    1  UNL1       -0.2747
     13 C           1.0100    1.4953   19.7013 C.2     1  UNL1        0.2303
     14 O           0.6317    1.0923   18.3069 O.2     1  UNL1       -0.2745
     15 C           0.3933    2.6043   21.9684 C.3     1  UNL1        0.0999
     16 C          -0.6017    3.3103   22.8411 C.3     1  UNL1        0.0650
     17 C          -3.2214    4.8552   24.3315 C.3     1  UNL1        0.1474
     18 O          -4.8506    3.7056   25.9970 O.co2   1  UNL1       -0.5472
     19 C          -3.4555    3.9448   25.5003 C.2     1  UNL1        0.0732
     20 O          -2.2947    3.2735   26.1726 O.co2   1  UNL1       -0.5472
     21 C           2.3833    1.1923   20.2232 C.3     1  UNL1        0.1116
     22 C           3.4795    0.8110   19.2728 C.ar    1  UNL1       -0.0131
     23 C           4.1927    1.8708   18.4866 C.ar    1  UNL1       -0.0038
     24 C           5.2889    1.4895   17.5363 C.ar    1  UNL1       -0.0003
     25 C           5.6718    0.0485   17.3723 C.ar    1  UNL1       -0.0000
     26 C           4.9585   -1.0112   18.1585 C.ar    1  UNL1       -0.0003
     27 C           5.3415   -2.4522   17.9945 C.ar    1  UNL1       -0.0000
     28 C           4.6282   -3.5120   18.7808 C.ar    1  UNL1       -0.0000
     29 C           3.5320   -3.1307   19.7311 C.ar    1  UNL1       -0.0000
     30 C           3.1491   -1.6897   19.8951 C.ar    1  UNL1       -0.0003
     31 C           3.8624   -0.6300   19.1088 C.ar    1  UNL1       -0.0035
@<TRIPOS>UNITY_ATOM_ATTR
18 1
charge -1
@<TRIPOS>BOND
     1    18    19   ar
     2    19    20   ar
     3    19    17    1
     4    17     1    1
     5     1     2   ar
     6     2     3   ar
     7     3     4   ar
     8     4     5   ar
     9     5     6   ar
    10     6     7    1
    11     6     8   ar
    12     8     9   ar
    13     9    10   ar
    14     3    11    1
    15    11    12    1
    16    12    13   am
    17    13    14    2
    18    13    21    1
    19    21    22    1
    20    22    23   ar
    21    23    24   ar
    22    24    25   ar
    23    25    26   ar
    24    26    27   ar
    25    27    28   ar
    26    28    29   ar
    27    29    30   ar
    28    30    31   ar
    29    12    15    1
    30    15    16    1
    31    10     1   ar
    32    31    22   ar
    33    16     2    1
    34    10     4   ar
    35    31    26   ar
@<TRIPOS>MOLECULE
*****
 31 35 0 0 0
SMALL
GASTEIGER

@<TRIPOS>ATOM
      1 N           8.0554   -6.0587   27.6100 N.ar    1  UNL1       -0.3256
      2 C           7.7827   -5.1503   26.4480 C.ar    1  UNL1        0.0367
      3 C           7.1332   -3.9053   26.9754 C.ar    1  UNL1        0.0109
      4 C           7.0044   -4.0443   28.4634 C.ar    1  UNL1        0.0167
      5 C           6.4418   -3.1310   29.5118 C.ar    1  UNL1        0.0308
      6 C           6.4492   -3.5485   30.9524 C.ar    1  UNL1        0.1402
      7 F           5.8866   -2.6351   32.0010 F       1  UNL1       -0.2042
      8 C           7.0192   -4.8794   31.3447 C.ar    1  UNL1        0.0311
      9 C           7.5818   -5.7928   30.2963 C.ar    1  UNL1        0.0195
     10 C           7.5744   -5.3752   28.8556 C.ar    1  UNL1        0.0598
     11 C           6.7429   -2.8059   26.0325 C.3     1  UNL1        0.1213
     12 N           7.0022   -2.9515   24.5623 N.am    1  UNL1       -0.2747
     13 C           6.6118   -1.8520   23.6194 C.2     1  UNL1        0.2303
     14 O           5.9623   -0.6070   24.1468 O.2     1  UNL1       -0.2745
     15 C           7.6517   -4.1964   24.0349 C.3     1  UNL1        0.0999
     16 C           8.0420   -5.2958   24.9777 C.3     1  UNL1        0.0650
     17 C           8.6965   -7.4129   27.5390 C.3     1  UNL1        0.1474
     18 O           8.2211   -9.9645   27.6543 O.co2   1  UNL1       -0.5472
     19 C           7.8886   -8.6041   27.1169 C.2     1  UNL1        0.0732
     20 O           6.7480   -8.4350   26.1574 O.co2   1  UNL1       -0.5472
     21 C           6.8711   -1.9977   22.1492 C.3     1  UNL1        0.1116
     22 C           5.7559   -2.3914   21.2264 C.ar    1  UNL1       -0.0131
     23 C           5.2077   -3.7871   21.2652 C.ar    1  UNL1       -0.0038
     24 C           4.0926   -4.1807   20.3425 C.ar    1  UNL1       -0.0003
     25 C           3.5257   -3.1787   19.3809 C.ar    1  UNL1       -0.0000
     26 C           4.0739   -1.7830   19.3421 C.ar    1  UNL1       -0.0003
     27 C           3.5069   -0.7810   18.3805 C.ar    1  UNL1       -0.0000
     28 C           4.0552    0.6147   18.3417 C.ar    1  UNL1       -0.0000
     29 C           5.1704    1.0083   19.2645 C.ar    1  UNL1       -0.0000
     30 C           5.7373    0.0064   20.2260 C.ar    1  UNL1       -0.0003
     31 C           5.1890   -1.3894   20.2648 C.ar    1  UNL1       -0.0035
@<TRIPOS>UNITY_ATOM_ATTR
18 1
charge -1
@<TRIPOS>BOND
     1    18    19   ar
     2    19    20   ar
     3    19    17    1
     4    17     1    1
     5     1     2   ar
     6     2     3   ar
     7     3     4   ar
     8     4     5   ar
     9     5     6   ar
    10     6     7    1
    11     6     8   ar
    12     8     9   ar
    13     9    10   ar
    14     3    11    1
    15    11    12    1
    16    12    13   am
    17    13    14    2
    18    13    21    1
    19    21    22    1
    20    22    23   ar
    21    23    24   ar
    22    24    25   ar
    23    25    26   ar
    24    26    27   ar
    25    27    28   ar
    26    28    29   ar
    27    29    30   ar
    28    30    31   ar
    29    12    15    1
    30    15    16    1
    31    10     1   ar
    32    31    22   ar
    33    16     2    1
    34    10     4   ar
    35    31    26   ar
@<TRIPOS>MOLECULE
*****
 31 35 0 0 0
SMALL
GASTEIGER

@<TRIPOS>ATOM
      1 N           5.1865   -0.1692   17.8711 N.ar    1  UNL1       -0.3256
      2 C           3.9906    0.6310   18.2945 C.ar    1  UNL1        0.0367
      3 C           3.0528   -0.2865   19.0217 C.ar    1  UNL1        0.0109
      4 C           3.6692   -1.6537   19.0477 C.ar    1  UNL1        0.0167
      5 C           3.2000   -2.9553   19.6270 C.ar    1  UNL1        0.0308
      6 C           4.0496   -4.1845   19.4952 C.ar    1  UNL1        0.1402
      7 F           3.5804   -5.4862   20.0746 F       1  UNL1       -0.2042
      8 C           5.3683   -4.1120   18.7841 C.ar    1  UNL1        0.0311
      9 C           5.8374   -2.8104   18.2047 C.ar    1  UNL1        0.0195
     10 C           4.9879   -1.5813   18.3365 C.ar    1  UNL1        0.0598
     11 C           1.7588    0.2417   19.5663 C.3     1  UNL1        0.1213
     12 N           1.4026    1.6873   19.3836 N.am    1  UNL1       -0.2747
     13 C           0.1084    2.2154   19.9283 C.2     1  UNL1        0.2303
     14 O          -0.8293    1.2979   20.6555 O.2     1  UNL1       -0.2745
     15 C           2.3403    2.6048   18.6564 C.3     1  UNL1        0.0999
     16 C           3.6343    2.0766   18.1119 C.3     1  UNL1        0.0650
     17 C           6.3728    0.3512   17.1149 C.3     1  UNL1        0.1474
     18 O           7.7520    0.5040   19.3114 O.co2   1  UNL1       -0.5472
     19 C           7.5829    0.8343   17.8579 C.2     1  UNL1        0.0732
     20 O           8.6240    1.6477   17.1477 O.co2   1  UNL1       -0.5472
     21 C          -0.2477    3.6610   19.7456 C.3     1  UNL1        0.1116
     22 C          -1.1186    4.0796   18.5981 C.ar    1  UNL1       -0.0131
     23 C          -0.4964    4.5318   17.3104 C.ar    1  UNL1       -0.0038
     24 C          -1.3672    4.9503   16.1630 C.ar    1  UNL1       -0.0003
     25 C          -2.8603    4.9167   16.3034 C.ar    1  UNL1       -0.0000
     26 C          -3.4825    4.4644   17.5912 C.ar    1  UNL1       -0.0003
     27 C          -4.9755    4.4308   17.7316 C.ar    1  UNL1       -0.0000
     28 C          -5.5977    3.9785   19.0195 C.ar    1  UNL1       -0.0000
     29 C          -4.7268    3.5600   20.1668 C.ar    1  UNL1       -0.0000
     30 C          -3.2338    3.5937   20.0264 C.ar    1  UNL1       -0.0003
     31 C          -2.6116    4.0459   18.7385 C.ar    1  UNL1       -0.0035
@<TRIPOS>UNITY_ATOM_ATTR
18 1
charge -1
@<TRIPOS>BOND
     1    18    19   ar
     2    19    20   ar
     3    19    17    1
     4    17     1    1
     5     1     2   ar
     6     2     3   ar
     7     3     4   ar
     8     4     5   ar
     9     5     6   ar
    10     6     7    1
    11     6     8   ar
    12     8     9   ar
    13     9    10   ar
    14     3    11    1
    15    11    12    1
    16    12    13   am
    17    13    14    2
    18    13    21    1
    19    21    22    1
    20    22    23   ar
    21    23    24   ar
    22    24    25   ar
    23    25    26   ar
    24    26    27   ar
    25    27    28   ar
    26    28    29   ar
    27    29    30   ar
    28    30    31   ar
    29    12    15    1
    30    15    16    1
    31    10     1   ar
    32    31    22   ar
    33    16     2    1
    34    10     4   ar
    35    31    26   ar
