@<TRIPOS>MOLECULE
*****
 35 37 0 0 0
SMALL
GASTEIGER

@<TRIPOS>ATOM
      1 N          -5.1710  -15.1212   23.1142 N.am    1  UNL1       -0.2683
      2 C          -4.2560  -16.2469   22.7324 C.2     1  UNL1        0.3045
      3 O          -4.7245  -17.6670   22.8503 O.2     1  UNL1       -0.2525
      4 N          -2.8727  -15.9525   22.2327 N.am    1  UNL1       -0.2887
      5 H          -4.8636  -14.1892   23.0368 H       1  UNL1        0.1564
      6 H          -2.5653  -15.0204   22.1553 H       1  UNL1        0.1510
      7 C          -8.1976  -15.8075   25.5877 C.ar    1  UNL1        0.0360
      8 C          -6.8144  -15.5130   25.0880 C.ar    1  UNL1        0.0176
      9 C          -6.5543  -15.4157   23.6139 C.ar    1  UNL1        0.0517
     10 C          -7.6776  -15.6129   22.6396 C.ar    1  UNL1        0.0176
     11 C          -9.0609  -15.9073   23.1393 C.ar    1  UNL1        0.0360
     12 C          -9.3209  -16.0046   24.6134 C.ar    1  UNL1        0.0058
     13 C          -8.3450  -14.6836   27.9255 C.3     1  UNL1        0.0773
     14 C          -8.4576  -15.9048   27.0618 C.2     1  UNL1        0.1735
     15 O          -8.8303  -17.2233   27.6723 O.2     1  UNL1       -0.2913
     16 C         -10.1842  -16.1045   22.1650 C.2     1  UNL1        0.1735
     17 C         -11.5888  -16.2731   22.6638 C.3     1  UNL1        0.0773
     18 O          -9.9030  -16.1330   20.6919 O.2     1  UNL1       -0.2913
     19 C          -1.9578  -17.0781   21.8509 C.3     1  UNL1        0.0924
     20 C          -1.7132  -17.3879   20.4037 C.3     1  UNL1        0.0386
     21 C          -2.8726  -17.5983   19.4754 C.3     1  UNL1        0.0738
     22 N          -3.8563  -18.6989   19.7415 N.3     1  UNL1       -0.2726
     23 C          -3.3679  -20.0686   20.1096 C.3     1  UNL1        0.0721
     24 C          -4.3517  -21.1692   20.3757 C.3     1  UNL1        0.0174
     25 C          -5.8239  -20.9002   20.2737 C.3     1  UNL1        0.0031
     26 C          -6.3123  -19.5305   19.9056 C.3     1  UNL1        0.0204
     27 C          -5.3284  -18.4298   19.6395 C.3     1  UNL1        0.0724
     28 C          -7.7844  -19.2614   19.8036 C.3     1  UNL1        0.0277
     29 C          -8.6619  -19.4246   21.0091 C.ar    1  UNL1       -0.0220
     30 C          -8.0633  -19.3813   22.3839 C.ar    1  UNL1       -0.0020
     31 C          -8.9409  -19.5445   23.5894 C.ar    1  UNL1        0.0293
     32 C         -10.4170  -19.7510   23.4202 C.ar    1  UNL1        0.1401
     33 F         -11.2945  -19.9142   24.6258 F       1  UNL1       -0.2042
     34 C         -11.0155  -19.7943   22.0455 C.ar    1  UNL1        0.0293
     35 C         -10.1380  -19.6311   20.8400 C.ar    1  UNL1       -0.0020
@<TRIPOS>BOND
     1    13    14    1
     2    14    15    2
     3    14     7    1
     4     7     8   ar
     5     8     9   ar
     6     9     1    1
     7     1     2   am
     8     2     3    2
     9     2     4   am
    10     4    19    1
    11    19    20    1
    12    20    21    1
    13    21    22    1
    14    22    23    1
    15    23    24    1
    16    24    25    1
    17    25    26    1
    18    26    28    1
    19    28    29    1
    20    29    30   ar
    21    30    31   ar
    22    31    32   ar
    23    32    33    1
    24    32    34   ar
    25    34    35   ar
    26    26    27    1
    27     9    10   ar
    28    10    11   ar
    29    11    16    1
    30    16    17    1
    31    16    18    2
    32    11    12   ar
    33    12     7   ar
    34    27    22    1
    35    35    29   ar
    36     1     5    1
    37     4     6    1
@<TRIPOS>MOLECULE
*****
 35 37 0 0 0
SMALL
GASTEIGER

@<TRIPOS>ATOM
      1 N          -5.1851  -15.1038   23.1035 N.am    1  UNL1       -0.2683
      2 C          -4.2575  -16.2240   22.7368 C.2     1  UNL1        0.3045
      3 O          -4.7106  -17.6476   22.8720 O.2     1  UNL1       -0.2525
      4 N          -2.8769  -15.9208   22.2349 N.am    1  UNL1       -0.2887
      5 H          -4.8878  -14.1694   23.0148 H       1  UNL1        0.1564
      6 H          -2.5796  -14.9865   22.1462 H       1  UNL1        0.1510
      7 C          -9.0689  -15.9195   23.1345 C.ar    1  UNL1        0.0360
      8 C          -7.6883  -15.6162   22.6326 C.ar    1  UNL1        0.0176
      9 C          -6.5658  -15.4071   23.6054 C.ar    1  UNL1        0.0517
     10 C          -6.8239  -15.5012   25.0800 C.ar    1  UNL1        0.0176
     11 C          -8.2045  -15.8045   25.5818 C.ar    1  UNL1        0.0360
     12 C          -9.3270  -16.0136   24.6091 C.ar    1  UNL1        0.0058
     13 C         -11.5939  -16.3083   22.6622 C.3     1  UNL1        0.0773
     14 C         -10.1914  -16.1287   22.1617 C.2     1  UNL1        0.1735
     15 O          -9.9113  -16.1583   20.6884 O.2     1  UNL1       -0.2913
     16 C          -8.4627  -15.8986   27.0565 C.2     1  UNL1        0.1735
     17 C          -8.3546  -14.6745   27.9165 C.3     1  UNL1        0.0773
     18 O          -8.8290  -17.2170   27.6711 O.2     1  UNL1       -0.2913
     19 C          -1.9493  -17.0411   21.8682 C.3     1  UNL1        0.0924
     20 C          -1.6803  -17.3502   20.4252 C.3     1  UNL1        0.0386
     21 C          -2.8236  -17.5727   19.4801 C.3     1  UNL1        0.0738
     22 N          -3.8057  -18.6768   19.7378 N.3     1  UNL1       -0.2726
     23 C          -3.3156  -20.0454   20.1076 C.3     1  UNL1        0.0721
     24 C          -4.2977  -21.1495   20.3653 C.3     1  UNL1        0.0174
     25 C          -5.7700  -20.8849   20.2534 C.3     1  UNL1        0.0031
     26 C          -6.2601  -19.5163   19.8836 C.3     1  UNL1        0.0204
     27 C          -5.2779  -18.4122   19.6259 C.3     1  UNL1        0.0724
     28 C          -7.7323  -19.2517   19.7717 C.3     1  UNL1        0.0277
     29 C          -8.6187  -19.4253   20.9692 C.ar    1  UNL1       -0.0220
     30 C         -10.0896  -19.6557   20.7865 C.ar    1  UNL1       -0.0020
     31 C         -10.9760  -19.8293   21.9842 C.ar    1  UNL1        0.0293
     32 C         -10.3914  -19.7725   23.3644 C.ar    1  UNL1        0.1401
     33 F         -11.2778  -19.9461   24.5620 F       1  UNL1       -0.2042
     34 C          -8.9205  -19.5421   23.5471 C.ar    1  UNL1        0.0293
     35 C          -8.0342  -19.3685   22.3495 C.ar    1  UNL1       -0.0020
@<TRIPOS>BOND
     1    13    14    1
     2    14    15    2
     3    14     7    1
     4     7     8   ar
     5     8     9   ar
     6     9     1    1
     7     1     2   am
     8     2     3    2
     9     2     4   am
    10     4    19    1
    11    19    20    1
    12    20    21    1
    13    21    22    1
    14    22    23    1
    15    23    24    1
    16    24    25    1
    17    25    26    1
    18    26    28    1
    19    28    29    1
    20    29    30   ar
    21    30    31   ar
    22    31    32   ar
    23    32    33    1
    24    32    34   ar
    25    34    35   ar
    26    26    27    1
    27     9    10   ar
    28    10    11   ar
    29    11    16    1
    30    16    17    1
    31    16    18    2
    32    11    12   ar
    33    12     7   ar
    34    27    22    1
    35    35    29   ar
    36     1     5    1
    37     4     6    1
@<TRIPOS>MOLECULE
*****
 35 37 0 0 0
SMALL
GASTEIGER

@<TRIPOS>ATOM
      1 N          -8.1909  -15.3040   23.8661 N.am    1  UNL1       -0.2683
      2 C          -6.8488  -15.9106   23.5818 C.2     1  UNL1        0.3045
      3 O          -6.7341  -17.0666   22.6327 O.2     1  UNL1       -0.2525
      4 N          -5.6215  -15.3614   24.2466 N.am    1  UNL1       -0.2887
      5 H          -8.2662  -14.5453   24.4889 H       1  UNL1        0.1564
      6 H          -5.6968  -14.6027   24.8695 H       1  UNL1        0.1510
      7 C         -10.9902  -15.9867   21.1370 C.ar    1  UNL1        0.0360
      8 C          -9.7630  -15.4374   21.8018 C.ar    1  UNL1        0.0176
      9 C          -9.4183  -15.8533   23.2012 C.ar    1  UNL1        0.0517
     10 C         -10.3008  -16.8184   23.9357 C.ar    1  UNL1        0.0176
     11 C         -11.5281  -17.3677   23.2709 C.ar    1  UNL1        0.0360
     12 C         -11.8728  -16.9518   21.8715 C.ar    1  UNL1        0.0058
     13 C         -12.6627  -15.9461   19.1492 C.3     1  UNL1        0.0773
     14 C         -11.3350  -15.5708   19.7376 C.2     1  UNL1        0.1735
     15 O         -10.3519  -14.7797   18.9267 O.2     1  UNL1       -0.2913
     16 C         -12.4108  -18.3328   24.0054 C.2     1  UNL1        0.1735
     17 C         -13.8862  -18.0791   24.0975 C.3     1  UNL1        0.0773
     18 O         -11.8178  -19.5517   24.6479 O.2     1  UNL1       -0.2913
     19 C          -4.2794  -15.9680   23.9623 C.3     1  UNL1        0.0924
     20 C          -3.5137  -15.5558   22.7401 C.3     1  UNL1        0.0386
     21 C          -2.4559  -16.4585   22.1779 C.3     1  UNL1        0.0738
     22 N          -2.8375  -17.5756   21.2525 N.3     1  UNL1       -0.2726
     23 C          -2.0992  -17.7647   19.9605 C.3     1  UNL1        0.0721
     24 C          -2.4808  -18.8817   19.0351 C.3     1  UNL1        0.0174
     25 C          -3.6009  -19.8098   19.4016 C.3     1  UNL1        0.0031
     26 C          -4.3393  -19.6207   20.6935 C.3     1  UNL1        0.0204
     27 C          -3.9576  -18.5036   21.6189 C.3     1  UNL1        0.0724
     28 C          -5.4593  -20.5487   21.0599 C.3     1  UNL1        0.0277
     29 C          -6.8774  -20.1726   20.7478 C.ar    1  UNL1       -0.0220
     30 C          -7.8398  -19.8856   21.8620 C.ar    1  UNL1       -0.0020
     31 C          -9.2580  -19.5095   21.5498 C.ar    1  UNL1        0.0293
     32 C          -9.7137  -19.4204   20.1235 C.ar    1  UNL1        0.1401
     33 F         -11.1318  -19.0443   19.8113 F       1  UNL1       -0.2042
     34 C          -8.7512  -19.7074   19.0093 C.ar    1  UNL1        0.0293
     35 C          -7.3331  -20.0835   19.3215 C.ar    1  UNL1       -0.0020
@<TRIPOS>BOND
     1    13    14    1
     2    14    15    2
     3    14     7    1
     4     7     8   ar
     5     8     9   ar
     6     9     1    1
     7     1     2   am
     8     2     3    2
     9     2     4   am
    10     4    19    1
    11    19    20    1
    12    20    21    1
    13    21    22    1
    14    22    23    1
    15    23    24    1
    16    24    25    1
    17    25    26    1
    18    26    28    1
    19    28    29    1
    20    29    30   ar
    21    30    31   ar
    22    31    32   ar
    23    32    33    1
    24    32    34   ar
    25    34    35   ar
    26    26    27    1
    27     9    10   ar
    28    10    11   ar
    29    11    16    1
    30    16    17    1
    31    16    18    2
    32    11    12   ar
    33    12     7   ar
    34    27    22    1
    35    35    29   ar
    36     1     5    1
    37     4     6    1
@<TRIPOS>MOLECULE
*****
 35 37 0 0 0
SMALL
GASTEIGER

@<TRIPOS>ATOM
      1 N          -8.2327  -19.5349   22.4975 N.am    1  UNL1       -0.2683
      2 C          -7.5010  -19.9450   21.2540 C.2     1  UNL1        0.3045
      3 O          -8.0108  -19.5194   19.9089 O.2     1  UNL1       -0.2525
      4 N          -6.2595  -20.7808   21.3554 N.am    1  UNL1       -0.2887
      5 H          -7.8982  -19.8143   23.3803 H       1  UNL1        0.1564
      6 H          -5.9250  -21.0601   22.2382 H       1  UNL1        0.1510
      7 C         -10.8191  -16.7987   21.2430 C.ar    1  UNL1        0.0360
      8 C          -9.5777  -17.6344   21.3445 C.ar    1  UNL1        0.0176
      9 C          -9.4743  -18.6992   22.3960 C.ar    1  UNL1        0.0517
     10 C         -10.6123  -18.9282   23.3459 C.ar    1  UNL1        0.0176
     11 C         -11.8537  -18.0925   23.2444 C.ar    1  UNL1        0.0360
     12 C         -11.9571  -17.0277   22.1929 C.ar    1  UNL1        0.0058
     13 C         -12.1018  -15.7069   19.2649 C.3     1  UNL1        0.0773
     14 C         -10.9225  -15.7340   20.1915 C.2     1  UNL1        0.1735
     15 O          -9.8467  -14.6962   20.0666 O.2     1  UNL1       -0.2913
     16 C         -12.9918  -18.3214   24.1944 C.2     1  UNL1        0.1735
     17 C         -14.3943  -17.9899   23.7784 C.3     1  UNL1        0.0773
     18 O         -12.7273  -18.8820   25.5603 O.2     1  UNL1       -0.2913
     19 C          -5.5278  -21.1909   20.1119 C.3     1  UNL1        0.0924
     20 C          -4.0592  -20.9152   19.9805 C.3     1  UNL1        0.0386
     21 C          -3.5890  -19.6049   19.4218 C.3     1  UNL1        0.0738
     22 N          -3.1197  -18.5207   20.3460 N.3     1  UNL1       -0.2726
     23 C          -2.1507  -17.4855   19.8567 C.3     1  UNL1        0.0721
     24 C          -1.6814  -16.4013   20.7808 C.3     1  UNL1        0.0174
     25 C          -2.1811  -16.3521   22.1943 C.3     1  UNL1        0.0031
     26 C          -3.1501  -17.3873   22.6836 C.3     1  UNL1        0.0204
     27 C          -3.6194  -18.4716   21.7594 C.3     1  UNL1        0.0724
     28 C          -3.6498  -17.3382   24.0971 C.3     1  UNL1        0.0277
     29 C          -4.9575  -16.6723   24.4075 C.ar    1  UNL1       -0.0220
     30 C          -5.1473  -15.9662   25.7172 C.ar    1  UNL1       -0.0020
     31 C          -6.4551  -15.3003   26.0276 C.ar    1  UNL1        0.0293
     32 C          -7.5730  -15.3405   25.0283 C.ar    1  UNL1        0.1401
     33 F          -8.8808  -14.6746   25.3387 F       1  UNL1       -0.2042
     34 C          -7.3832  -16.0467   23.7186 C.ar    1  UNL1        0.0293
     35 C          -6.0755  -16.7126   23.4082 C.ar    1  UNL1       -0.0020
@<TRIPOS>BOND
     1    13    14    1
     2    14    15    2
     3    14     7    1
     4     7     8   ar
     5     8     9   ar
     6     9     1    1
     7     1     2   am
     8     2     3    2
     9     2     4   am
    10     4    19    1
    11    19    20    1
    12    20    21    1
    13    21    22    1
    14    22    23    1
    15    23    24    1
    16    24    25    1
    17    25    26    1
    18    26    28    1
    19    28    29    1
    20    29    30   ar
    21    30    31   ar
    22    31    32   ar
    23    32    33    1
    24    32    34   ar
    25    34    35   ar
    26    26    27    1
    27     9    10   ar
    28    10    11   ar
    29    11    16    1
    30    16    17    1
    31    16    18    2
    32    11    12   ar
    33    12     7   ar
    34    27    22    1
    35    35    29   ar
    36     1     5    1
    37     4     6    1
@<TRIPOS>MOLECULE
*****
 35 37 0 0 0
SMALL
GASTEIGER

@<TRIPOS>ATOM
      1 N          -8.9404  -20.0313   20.4742 N.am    1  UNL1       -0.2683
      2 C          -7.4972  -19.6247   20.4328 C.2     1  UNL1        0.3045
      3 O          -7.1018  -18.2241   20.7967 O.2     1  UNL1       -0.2525
      4 N          -6.4493  -20.6185   20.0276 N.am    1  UNL1       -0.2887
      5 H          -9.1999  -20.9504   20.2354 H       1  UNL1        0.1564
      6 H          -6.7088  -21.5376   19.7887 H       1  UNL1        0.1510
      7 C         -11.7355  -18.1870   22.6040 C.ar    1  UNL1        0.0360
      8 C         -10.6877  -19.1808   22.1987 C.ar    1  UNL1        0.0176
      9 C          -9.9883  -19.0374   20.8795 C.ar    1  UNL1        0.0517
     10 C         -10.3367  -17.9001   19.9656 C.ar    1  UNL1        0.0176
     11 C         -11.3845  -16.9063   20.3709 C.ar    1  UNL1        0.0360
     12 C         -12.0840  -17.0497   21.6901 C.ar    1  UNL1        0.0058
     13 C         -13.8596  -17.8843   24.0691 C.3     1  UNL1        0.0773
     14 C         -12.4350  -18.3304   23.9232 C.2     1  UNL1        0.1735
     15 O         -11.7097  -18.9199   25.0964 O.2     1  UNL1       -0.2913
     16 C         -11.7330  -15.7690   19.4570 C.2     1  UNL1        0.1735
     17 C         -10.6459  -15.0124   18.7530 C.3     1  UNL1        0.0773
     18 O         -13.1687  -15.3883   19.2471 O.2     1  UNL1       -0.2913
     19 C          -5.0061  -20.2119   19.9862 C.3     1  UNL1        0.0924
     20 C          -4.0935  -20.5686   21.1220 C.3     1  UNL1        0.0386
     21 C          -4.1912  -19.8289   22.4233 C.3     1  UNL1        0.0738
     22 N          -3.8367  -18.3728   22.4868 N.3     1  UNL1       -0.2726
     23 C          -2.5592  -17.8844   21.8707 C.3     1  UNL1        0.0721
     24 C          -2.2047  -16.4283   21.9342 C.3     1  UNL1        0.0174
     25 C          -3.1276  -15.4606   22.6138 C.3     1  UNL1        0.0031
     26 C          -4.4050  -15.9490   23.2299 C.3     1  UNL1        0.0204
     27 C          -4.7595  -17.4052   23.1664 C.3     1  UNL1        0.0724
     28 C          -5.3279  -14.9814   23.9095 C.3     1  UNL1        0.0277
     29 C          -6.2878  -15.4681   24.9542 C.ar    1  UNL1       -0.0220
     30 C          -7.6889  -15.8413   24.5699 C.ar    1  UNL1       -0.0020
     31 C          -8.6488  -16.3281   25.6147 C.ar    1  UNL1        0.0293
     32 C          -8.2076  -16.4416   27.0439 C.ar    1  UNL1        0.1401
     33 F          -9.1676  -16.9284   28.0887 F       1  UNL1       -0.2042
     34 C          -6.8066  -16.0684   27.4282 C.ar    1  UNL1        0.0293
     35 C          -5.8467  -15.5816   26.3834 C.ar    1  UNL1       -0.0020
@<TRIPOS>BOND
     1    13    14    1
     2    14    15    2
     3    14     7    1
     4     7     8   ar
     5     8     9   ar
     6     9     1    1
     7     1     2   am
     8     2     3    2
     9     2     4   am
    10     4    19    1
    11    19    20    1
    12    20    21    1
    13    21    22    1
    14    22    23    1
    15    23    24    1
    16    24    25    1
    17    25    26    1
    18    26    28    1
    19    28    29    1
    20    29    30   ar
    21    30    31   ar
    22    31    32   ar
    23    32    33    1
    24    32    34   ar
    25    34    35   ar
    26    26    27    1
    27     9    10   ar
    28    10    11   ar
    29    11    16    1
    30    16    17    1
    31    16    18    2
    32    11    12   ar
    33    12     7   ar
    34    27    22    1
    35    35    29   ar
    36     1     5    1
    37     4     6    1
@<TRIPOS>MOLECULE
*****
 35 37 0 0 0
SMALL
GASTEIGER

@<TRIPOS>ATOM
      1 N          -9.1019  -15.6659   22.3701 N.am    1  UNL1       -0.2683
      2 C          -9.9593  -16.8723   22.1262 C.2     1  UNL1        0.3045
      3 O          -9.6884  -18.1475   22.8682 O.2     1  UNL1       -0.2525
      4 N         -11.0877  -16.8035   21.1403 N.am    1  UNL1       -0.2887
      5 H          -9.2797  -14.8290   21.8832 H       1  UNL1        0.1564
      6 H         -11.2656  -15.9665   20.6534 H       1  UNL1        0.1510
      7 C          -5.4556  -16.1162   23.8709 C.ar    1  UNL1        0.0360
      8 C          -6.5840  -16.0473   22.8850 C.ar    1  UNL1        0.0176
      9 C          -7.9735  -15.7348   23.3561 C.ar    1  UNL1        0.0517
     10 C          -8.2345  -15.4911   24.8129 C.ar    1  UNL1        0.0176
     11 C          -7.1061  -15.5600   25.7987 C.ar    1  UNL1        0.0360
     12 C          -5.7167  -15.8725   25.3277 C.ar    1  UNL1        0.0058
     13 C          -3.3221  -17.5947   23.9800 C.3     1  UNL1        0.0773
     14 C          -4.0662  -16.4287   23.3999 C.2     1  UNL1        0.1735
     15 O          -3.4209  -15.5752   22.3487 O.2     1  UNL1       -0.2913
     16 C          -7.3671  -15.3163   27.2557 C.2     1  UNL1        0.1735
     17 C          -8.4255  -16.1034   27.9699 C.3     1  UNL1        0.0773
     18 O          -6.5695  -14.2856   27.9983 O.2     1  UNL1       -0.2913
     19 C         -11.9452  -18.0098   20.8964 C.3     1  UNL1        0.0924
     20 C         -11.3670  -19.2161   20.2176 C.3     1  UNL1        0.0386
     21 C         -10.2939  -19.0519   19.1825 C.3     1  UNL1        0.0738
     22 N          -9.0279  -19.8504   19.2814 N.3     1  UNL1       -0.2726
     23 C          -8.8325  -21.0571   18.4121 C.3     1  UNL1        0.0721
     24 C          -7.5666  -21.8556   18.5109 C.3     1  UNL1        0.0174
     25 C          -6.4960  -21.4474   19.4792 C.3     1  UNL1        0.0031
     26 C          -6.6915  -20.2408   20.3485 C.3     1  UNL1        0.0204
     27 C          -7.9575  -19.4422   20.2496 C.3     1  UNL1        0.0724
     28 C          -5.6210  -19.8326   21.3167 C.3     1  UNL1        0.0277
     29 C          -4.2808  -19.3890   20.8098 C.ar    1  UNL1       -0.0220
     30 C          -3.0327  -19.7927   21.5373 C.ar    1  UNL1       -0.0020
     31 C          -1.6924  -19.3491   21.0303 C.ar    1  UNL1        0.0293
     32 C          -1.6003  -18.5018   19.7960 C.ar    1  UNL1        0.1401
     33 F          -0.2600  -18.0582   19.2890 F       1  UNL1       -0.2042
     34 C          -2.8485  -18.0982   19.0685 C.ar    1  UNL1        0.0293
     35 C          -4.1887  -18.5418   19.5754 C.ar    1  UNL1       -0.0020
@<TRIPOS>BOND
     1    13    14    1
     2    14    15    2
     3    14     7    1
     4     7     8   ar
     5     8     9   ar
     6     9     1    1
     7     1     2   am
     8     2     3    2
     9     2     4   am
    10     4    19    1
    11    19    20    1
    12    20    21    1
    13    21    22    1
    14    22    23    1
    15    23    24    1
    16    24    25    1
    17    25    26    1
    18    26    28    1
    19    28    29    1
    20    29    30   ar
    21    30    31   ar
    22    31    32   ar
    23    32    33    1
    24    32    34   ar
    25    34    35   ar
    26    26    27    1
    27     9    10   ar
    28    10    11   ar
    29    11    16    1
    30    16    17    1
    31    16    18    2
    32    11    12   ar
    33    12     7   ar
    34    27    22    1
    35    35    29   ar
    36     1     5    1
    37     4     6    1
@<TRIPOS>MOLECULE
*****
 35 37 0 0 0
SMALL
GASTEIGER

@<TRIPOS>ATOM
      1 N          -8.8334  -15.5559   22.2036 N.am    1  UNL1       -0.2683
      2 C          -9.7943  -16.6848   21.9749 C.2     1  UNL1        0.3045
      3 O          -9.6743  -17.9461   22.7778 O.2     1  UNL1       -0.2525
      4 N         -10.8752  -16.5523   20.9433 N.am    1  UNL1       -0.2887
      5 H          -8.9121  -14.7281   21.6766 H       1  UNL1        0.1564
      6 H         -10.9539  -15.7245   20.4164 H       1  UNL1        0.1510
      7 C          -6.9685  -15.5229   25.7066 C.ar    1  UNL1        0.0360
      8 C          -8.0493  -15.3904   24.6750 C.ar    1  UNL1        0.0176
      9 C          -7.7525  -15.6884   23.2352 C.ar    1  UNL1        0.0517
     10 C          -6.3748  -16.1190   22.8269 C.ar    1  UNL1        0.0176
     11 C          -5.2940  -16.2515   23.8585 C.ar    1  UNL1        0.0360
     12 C          -5.5908  -15.9534   25.2983 C.ar    1  UNL1        0.0058
     13 C          -8.4084  -15.9107   27.8341 C.3     1  UNL1        0.0773
     14 C          -7.2653  -15.2248   27.1464 C.2     1  UNL1        0.1735
     15 O          -6.4190  -14.2409   27.8985 O.2     1  UNL1       -0.2913
     16 C          -3.9163  -16.6820   23.4503 C.2     1  UNL1        0.1735
     17 C          -3.2246  -17.7863   24.1934 C.3     1  UNL1        0.0773
     18 O          -3.2303  -16.0083   22.2991 O.2     1  UNL1       -0.2913
     19 C         -11.8361  -17.6812   20.7147 C.3     1  UNL1        0.0924
     20 C         -11.3306  -19.0125   20.2433 C.3     1  UNL1        0.0386
     21 C         -10.3735  -19.0861   19.0907 C.3     1  UNL1        0.0738
     22 N          -9.1046  -19.8756   19.2187 N.3     1  UNL1       -0.2726
     23 C          -8.8870  -21.0893   18.3646 C.3     1  UNL1        0.0721
     24 C          -7.6181  -21.8789   18.4927 C.3     1  UNL1        0.0174
     25 C          -6.5667  -21.4547   19.4749 C.3     1  UNL1        0.0031
     26 C          -6.7843  -20.2410   20.3290 C.3     1  UNL1        0.0204
     27 C          -8.0533  -19.4514   20.2009 C.3     1  UNL1        0.0724
     28 C          -5.7329  -19.8168   21.3112 C.3     1  UNL1        0.0277
     29 C          -4.3806  -19.3882   20.8239 C.ar    1  UNL1       -0.0220
     30 C          -3.1472  -19.8141   21.5637 C.ar    1  UNL1       -0.0020
     31 C          -1.7948  -19.3854   21.0763 C.ar    1  UNL1        0.0293
     32 C          -1.6760  -18.5310   19.8492 C.ar    1  UNL1        0.1401
     33 F          -0.3236  -18.1024   19.3618 F       1  UNL1       -0.2042
     34 C          -2.9094  -18.1052   19.1094 C.ar    1  UNL1        0.0293
     35 C          -4.2617  -18.5338   19.5967 C.ar    1  UNL1       -0.0020
@<TRIPOS>BOND
     1    13    14    1
     2    14    15    2
     3    14     7    1
     4     7     8   ar
     5     8     9   ar
     6     9     1    1
     7     1     2   am
     8     2     3    2
     9     2     4   am
    10     4    19    1
    11    19    20    1
    12    20    21    1
    13    21    22    1
    14    22    23    1
    15    23    24    1
    16    24    25    1
    17    25    26    1
    18    26    28    1
    19    28    29    1
    20    29    30   ar
    21    30    31   ar
    22    31    32   ar
    23    32    33    1
    24    32    34   ar
    25    34    35   ar
    26    26    27    1
    27     9    10   ar
    28    10    11   ar
    29    11    16    1
    30    16    17    1
    31    16    18    2
    32    11    12   ar
    33    12     7   ar
    34    27    22    1
    35    35    29   ar
    36     1     5    1
    37     4     6    1
@<TRIPOS>MOLECULE
*****
 35 37 0 0 0
SMALL
GASTEIGER

@<TRIPOS>ATOM
      1 N          -8.3292  -15.1503   23.9234 N.am    1  UNL1       -0.2683
      2 C          -7.0522  -15.9300   24.0308 C.2     1  UNL1        0.3045
      3 O          -6.9663  -17.3117   23.4533 O.2     1  UNL1       -0.2525
      4 N          -5.8612  -15.3279   24.7156 N.am    1  UNL1       -0.2887
      5 H          -8.3856  -14.2435   24.3024 H       1  UNL1        0.1564
      6 H          -5.9176  -14.4211   25.0946 H       1  UNL1        0.1510
      7 C         -11.6048  -17.3019   23.2979 C.ar    1  UNL1        0.0360
      8 C         -10.4139  -16.6998   23.9827 C.ar    1  UNL1        0.0176
      9 C          -9.5202  -15.7524   23.2385 C.ar    1  UNL1        0.0517
     10 C          -9.8175  -15.4072   21.8094 C.ar    1  UNL1        0.0176
     11 C         -11.0085  -16.0093   21.1245 C.ar    1  UNL1        0.0360
     12 C         -11.9021  -16.9566   21.8688 C.ar    1  UNL1        0.0058
     13 C         -13.9869  -18.0688   23.9962 C.3     1  UNL1        0.0773
     14 C         -12.4985  -18.2492   24.0422 C.2     1  UNL1        0.1735
     15 O         -11.9038  -19.3769   24.8325 O.2     1  UNL1       -0.2913
     16 C         -11.3058  -15.6641   19.6953 C.2     1  UNL1        0.1735
     17 C         -12.5385  -16.2053   19.0339 C.3     1  UNL1        0.0773
     18 O         -10.3704  -14.7778   18.9276 O.2     1  UNL1       -0.2913
     19 C          -4.5843  -16.1076   24.8230 C.3     1  UNL1        0.0924
     20 C          -3.8392  -16.5012   23.5820 C.3     1  UNL1        0.0386
     21 C          -3.2779  -17.8861   23.4518 C.3     1  UNL1        0.0738
     22 N          -3.5490  -18.6922   22.2162 N.3     1  UNL1       -0.2726
     23 C          -2.5464  -19.7038   21.7457 C.3     1  UNL1        0.0721
     24 C          -2.8176  -20.5099   20.5101 C.3     1  UNL1        0.0174
     25 C          -4.0914  -20.3044   19.7450 C.3     1  UNL1        0.0031
     26 C          -5.0940  -19.2928   20.2156 C.3     1  UNL1        0.0204
     27 C          -4.8228  -18.4867   21.4512 C.3     1  UNL1        0.0724
     28 C          -6.3678  -19.0872   19.4506 C.3     1  UNL1        0.0277
     29 C          -7.6864  -19.4082   20.0895 C.ar    1  UNL1       -0.0220
     30 C          -7.7711  -19.6123   21.5731 C.ar    1  UNL1       -0.0020
     31 C          -9.0898  -19.9332   22.2120 C.ar    1  UNL1        0.0293
     32 C         -10.3237  -20.0500   21.3672 C.ar    1  UNL1        0.1401
     33 F         -11.6424  -20.3709   22.0061 F       1  UNL1       -0.2042
     34 C         -10.2390  -19.8459   19.8836 C.ar    1  UNL1        0.0293
     35 C          -8.9204  -19.5250   19.2447 C.ar    1  UNL1       -0.0020
@<TRIPOS>BOND
     1    13    14    1
     2    14    15    2
     3    14     7    1
     4     7     8   ar
     5     8     9   ar
     6     9     1    1
     7     1     2   am
     8     2     3    2
     9     2     4   am
    10     4    19    1
    11    19    20    1
    12    20    21    1
    13    21    22    1
    14    22    23    1
    15    23    24    1
    16    24    25    1
    17    25    26    1
    18    26    28    1
    19    28    29    1
    20    29    30   ar
    21    30    31   ar
    22    31    32   ar
    23    32    33    1
    24    32    34   ar
    25    34    35   ar
    26    26    27    1
    27     9    10   ar
    28    10    11   ar
    29    11    16    1
    30    16    17    1
    31    16    18    2
    32    11    12   ar
    33    12     7   ar
    34    27    22    1
    35    35    29   ar
    36     1     5    1
    37     4     6    1
@<TRIPOS>MOLECULE
*****
 35 37 0 0 0
SMALL
GASTEIGER

@<TRIPOS>ATOM
      1 N          -4.6441  -15.8173   23.0980 N.am    1  UNL1       -0.2683
      2 C          -3.8674  -17.0992   23.0387 C.2     1  UNL1        0.3045
      3 O          -4.4683  -18.3656   23.5727 O.2     1  UNL1       -0.2525
      4 N          -2.4898  -17.1146   22.4455 N.am    1  UNL1       -0.2887
      5 H          -4.2497  -14.9861   22.7476 H       1  UNL1        0.1564
      6 H          -2.0954  -16.2834   22.0951 H       1  UNL1        0.1510
      7 C          -8.5998  -15.9324   23.3968 C.ar    1  UNL1        0.0360
      8 C          -7.2222  -15.9478   22.8037 C.ar    1  UNL1        0.0176
      9 C          -6.0218  -15.8019   23.6912 C.ar    1  UNL1        0.0517
     10 C          -6.1990  -15.6407   25.1720 C.ar    1  UNL1        0.0176
     11 C          -7.5766  -15.6253   25.7651 C.ar    1  UNL1        0.0360
     12 C          -8.7770  -15.7712   24.8775 C.ar    1  UNL1        0.0058
     13 C         -11.1639  -15.7316   23.0291 C.3     1  UNL1        0.0773
     14 C          -9.8002  -16.0783   22.5093 C.2     1  UNL1        0.1735
     15 O          -9.6370  -16.5708   21.1019 O.2     1  UNL1       -0.2913
     16 C          -7.7539  -15.4641   27.2459 C.2     1  UNL1        0.1735
     17 C          -8.7363  -16.3261   27.9819 C.3     1  UNL1        0.0773
     18 O          -6.9487  -14.4408   27.9906 O.2     1  UNL1       -0.2913
     19 C          -1.7130  -18.3965   22.3862 C.3     1  UNL1        0.0924
     20 C          -2.4081  -19.6792   22.0375 C.3     1  UNL1        0.0386
     21 C          -3.1357  -19.8070   20.7320 C.3     1  UNL1        0.0738
     22 N          -4.6306  -19.6912   20.6920 N.3     1  UNL1       -0.2726
     23 C          -5.3063  -19.1153   19.4829 C.3     1  UNL1        0.0721
     24 C          -6.8012  -18.9995   19.4430 C.3     1  UNL1        0.0174
     25 C          -7.6206  -19.4596   20.6122 C.3     1  UNL1        0.0031
     26 C          -6.9450  -20.0355   21.8213 C.3     1  UNL1        0.0204
     27 C          -5.4500  -20.1513   21.8612 C.3     1  UNL1        0.0724
     28 C          -7.7644  -20.4956   22.9904 C.3     1  UNL1        0.0277
     29 C          -9.1475  -19.9531   23.1968 C.ar    1  UNL1       -0.0220
     30 C          -9.5558  -19.4322   24.5429 C.ar    1  UNL1       -0.0020
     31 C         -10.9390  -18.8897   24.7492 C.ar    1  UNL1        0.0293
     32 C         -11.9138  -18.8680   23.6094 C.ar    1  UNL1        0.1401
     33 F         -13.2970  -18.3255   23.8157 F       1  UNL1       -0.2042
     34 C         -11.5055  -19.3889   22.2633 C.ar    1  UNL1        0.0293
     35 C         -10.1224  -19.9314   22.0569 C.ar    1  UNL1       -0.0020
@<TRIPOS>BOND
     1    13    14    1
     2    14    15    2
     3    14     7    1
     4     7     8   ar
     5     8     9   ar
     6     9     1    1
     7     1     2   am
     8     2     3    2
     9     2     4   am
    10     4    19    1
    11    19    20    1
    12    20    21    1
    13    21    22    1
    14    22    23    1
    15    23    24    1
    16    24    25    1
    17    25    26    1
    18    26    28    1
    19    28    29    1
    20    29    30   ar
    21    30    31   ar
    22    31    32   ar
    23    32    33    1
    24    32    34   ar
    25    34    35   ar
    26    26    27    1
    27     9    10   ar
    28    10    11   ar
    29    11    16    1
    30    16    17    1
    31    16    18    2
    32    11    12   ar
    33    12     7   ar
    34    27    22    1
    35    35    29   ar
    36     1     5    1
    37     4     6    1
