@<TRIPOS>MOLECULE
*****
 36 40 0 0 0
SMALL
GASTEIGER

@<TRIPOS>ATOM
      1 C          -8.9821  -19.8999   22.6185 C.ar    1  UNL1        0.0118
      2 C          -7.5205  -19.6920   22.3529 C.ar    1  UNL1        0.0007
      3 C          -7.0623  -19.2270   21.0024 C.ar    1  UNL1        0.0231
      4 C          -8.0657  -18.9700   19.9175 C.ar    1  UNL1        0.0051
      5 C          -9.5273  -19.1779   20.1831 C.ar    1  UNL1        0.0366
      6 C          -9.9855  -19.6429   21.5336 C.ar    1  UNL1        0.1345
      7 C          -5.6007  -19.0191   20.7368 C.2     1  UNL1        0.1040
      8 N          -5.0021  -18.4858   19.4690 N.2     1  UNL1       -0.2361
      9 C          -3.5125  -18.4451   19.6411 C.3     1  UNL1        0.2301
     10 O          -2.4078  -18.0110   18.7240 O.3     1  UNL1       -0.3338
     11 C          -0.9811  -18.0849   19.1811 C.3     1  UNL1        0.1444
     12 C          -0.6591  -18.5930   20.5552 C.3     1  UNL1        0.0332
     13 C          -1.7638  -19.0271   21.4722 C.3     1  UNL1        0.0183
     14 C          -3.1906  -18.9531   21.0152 C.3     1  UNL1        0.1042
     15 S          -4.4811  -19.3079   21.6924 S.3     1  UNL1       -0.0916
     16 C          -9.4402  -20.3649   23.9690 C.3     1  UNL1        0.0294
     17 C         -11.4094  -19.0533   25.0425 C.3     1  UNL1        0.0004
     18 C          -9.9450  -19.3712   24.9729 C.3     1  UNL1        0.0048
     19 O         -11.4471  -19.8508   21.7992 O.3     1  UNL1       -0.4756
     20 C         -12.4429  -18.8168   21.3643 C.3     1  UNL1        0.2092
     21 C         -12.9153  -17.7754   22.3350 C.3     1  UNL1        0.0946
     22 C         -12.4046  -16.3686   22.2332 C.3     1  UNL1        0.2093
     23 O         -11.0566  -16.1018   21.6318 O.3     1  UNL1       -0.4753
     24 C          -9.8499  -15.9895   22.5157 C.ar    1  UNL1        0.1382
     25 C          -8.4797  -15.9208   21.9091 C.ar    1  UNL1        0.0366
     26 C          -7.2730  -15.8086   22.7929 C.ar    1  UNL1       -0.0015
     27 C          -7.4364  -15.7651   24.2834 C.ar    1  UNL1       -0.0259
     28 C          -8.8066  -15.8339   24.8900 C.ar    1  UNL1       -0.0231
     29 C         -10.0134  -15.9461   24.0061 C.ar    1  UNL1        0.0323
     30 C          -8.6572  -15.7696   26.3811 C.3     1  UNL1        0.0265
     31 C          -7.1946  -15.6612   26.6961 C.3     1  UNL1        0.0094
     32 C          -6.4402  -15.6584   25.3996 C.3     1  UNL1        0.0279
     33 C          -4.9510  -15.5652   25.2463 C.3     1  UNL1        0.0460
     34 C          -4.2343  -16.4902   24.3078 C.2     1  UNL1        0.0507
     35 O          -3.8999  -16.0369   22.9176 O.co2   1  UNL1       -0.5492
     36 O          -3.8521  -17.8685   24.7595 O.co2   1  UNL1       -0.5492
@<TRIPOS>UNITY_ATOM_ATTR
35 1
charge -1
@<TRIPOS>BOND
     1    17    18    1
     2    18    16    1
     3    16     1    1
     4     1     2   ar
     5     2     3   ar
     6     3     7    1
     7     7     8    2
     8     8     9    1
     9     9    10    1
    10    10    11    1
    11    11    12    1
    12    12    13    1
    13    13    14    1
    14    14    15    1
    15     3     4   ar
    16     4     5   ar
    17     5     6   ar
    18     6    19    1
    19    19    20    1
    20    20    21    1
    21    21    22    1
    22    22    23    1
    23    23    24    1
    24    24    25   ar
    25    25    26   ar
    26    26    27   ar
    27    27    28   ar
    28    28    29   ar
    29    28    30    1
    30    30    31    1
    31    31    32    1
    32    32    33    1
    33    33    34    1
    34    34    35   ar
    35    34    36   ar
    36     6     1   ar
    37    29    24   ar
    38    15     7    1
    39    32    27    1
    40    14     9    1
@<TRIPOS>MOLECULE
*****
 36 40 0 0 0
SMALL
GASTEIGER

@<TRIPOS>ATOM
      1 C          -9.0013  -19.8438   22.5594 C.ar    1  UNL1        0.0118
      2 C          -7.5327  -19.6211   22.3501 C.ar    1  UNL1        0.0007
      3 C          -7.0204  -19.2172   20.9995 C.ar    1  UNL1        0.0231
      4 C          -7.9766  -19.0359   19.8581 C.ar    1  UNL1        0.0051
      5 C          -9.4452  -19.2586   20.0674 C.ar    1  UNL1        0.0366
      6 C          -9.9575  -19.6626   21.4181 C.ar    1  UNL1        0.1345
      7 C          -5.5519  -18.9944   20.7902 C.2     1  UNL1        0.1040
      8 N          -4.8815  -18.7084   19.4792 N.2     1  UNL1       -0.2361
      9 C          -3.4112  -18.5558   19.7339 C.3     1  UNL1        0.2301
     10 O          -2.2586  -18.2671   18.8184 O.3     1  UNL1       -0.3338
     11 C          -0.8677  -18.1701   19.3714 C.3     1  UNL1        0.1444
     12 C          -0.6293  -18.3619   20.8398 C.3     1  UNL1        0.0332
     13 C          -1.7819  -18.6506   21.7553 C.3     1  UNL1        0.0183
     14 C          -3.1728  -18.7476   21.2023 C.3     1  UNL1        0.1042
     15 S          -4.4958  -19.0187   21.8551 S.3     1  UNL1       -0.0916
     16 C          -9.5136  -20.2478   23.9102 C.3     1  UNL1        0.0294
     17 C         -11.5311  -18.9964   24.9655 C.3     1  UNL1        0.0004
     18 C         -10.0508  -19.2094   24.8499 C.3     1  UNL1        0.0048
     19 O         -11.4260  -19.8853   21.6273 O.3     1  UNL1       -0.4756
     20 C         -12.4061  -18.8062   21.2740 C.3     1  UNL1        0.2092
     21 C         -12.2740  -17.4432   21.8862 C.3     1  UNL1        0.0946
     22 C         -11.6865  -16.3166   21.0888 C.3     1  UNL1        0.2093
     23 O         -10.1978  -16.1854   20.9602 O.3     1  UNL1       -0.4753
     24 C          -9.3516  -16.0100   22.1862 C.ar    1  UNL1        0.1382
     25 C          -9.9993  -15.8924   23.5341 C.ar    1  UNL1        0.0366
     26 C          -9.1531  -15.7170   24.7601 C.ar    1  UNL1       -0.0015
     27 C          -7.6592  -15.6593   24.6383 C.ar    1  UNL1       -0.0259
     28 C          -7.0115  -15.7769   23.2906 C.ar    1  UNL1       -0.0231
     29 C          -7.8576  -15.9523   22.0645 C.ar    1  UNL1        0.0323
     30 C          -5.5264  -15.6853   23.4804 C.3     1  UNL1        0.0265
     31 C          -5.2563  -15.5111   24.9456 C.3     1  UNL1        0.0094
     32 C          -6.5744  -15.4950   25.6612 C.3     1  UNL1        0.0279
     33 C          -6.7730  -15.3415   27.1400 C.3     1  UNL1        0.0460
     34 C          -8.1405  -15.5058   27.7342 C.2     1  UNL1        0.0507
     35 O          -8.7383  -16.8745   27.8732 O.co2   1  UNL1       -0.5492
     36 O          -8.9102  -14.3015   28.1893 O.co2   1  UNL1       -0.5492
@<TRIPOS>UNITY_ATOM_ATTR
35 1
charge -1
@<TRIPOS>BOND
     1    17    18    1
     2    18    16    1
     3    16     1    1
     4     1     2   ar
     5     2     3   ar
     6     3     7    1
     7     7     8    2
     8     8     9    1
     9     9    10    1
    10    10    11    1
    11    11    12    1
    12    12    13    1
    13    13    14    1
    14    14    15    1
    15     3     4   ar
    16     4     5   ar
    17     5     6   ar
    18     6    19    1
    19    19    20    1
    20    20    21    1
    21    21    22    1
    22    22    23    1
    23    23    24    1
    24    24    25   ar
    25    25    26   ar
    26    26    27   ar
    27    27    28   ar
    28    28    29   ar
    29    28    30    1
    30    30    31    1
    31    31    32    1
    32    32    33    1
    33    33    34    1
    34    34    35   ar
    35    34    36   ar
    36     6     1   ar
    37    29    24   ar
    38    15     7    1
    39    32    27    1
    40    14     9    1
@<TRIPOS>MOLECULE
*****
 36 40 0 0 0
SMALL
GASTEIGER

@<TRIPOS>ATOM
      1 C          -8.9338  -19.6717   20.1542 C.ar    1  UNL1        0.0118
      2 C          -7.4904  -19.3858   19.8633 C.ar    1  UNL1        0.0007
      3 C          -6.5317  -19.1430   20.9911 C.ar    1  UNL1        0.0231
      4 C          -7.0166  -19.1861   22.4099 C.ar    1  UNL1        0.0051
      5 C          -8.4601  -19.4719   22.7009 C.ar    1  UNL1        0.0366
      6 C          -9.4187  -19.7147   21.5730 C.ar    1  UNL1        0.1345
      7 C          -5.0883  -18.8572   20.7002 C.2     1  UNL1        0.1040
      8 N          -4.5076  -18.5307   19.3562 N.2     1  UNL1       -0.2361
      9 C          -3.0324  -18.3194   19.5275 C.3     1  UNL1        0.2301
     10 O          -1.9479  -17.9739   18.5506 O.3     1  UNL1       -0.3338
     11 C          -0.5323  -17.8243   19.0236 C.3     1  UNL1        0.1444
     12 C          -0.2013  -18.0201   20.4735 C.3     1  UNL1        0.0332
     13 C          -1.2859  -18.3655   21.4503 C.3     1  UNL1        0.0183
     14 C          -2.7014  -18.5152   20.9774 C.3     1  UNL1        0.1042
     15 S          -3.9720  -18.8476   21.7021 S.3     1  UNL1       -0.0916
     16 C          -9.8925  -19.9145   19.0263 C.3     1  UNL1        0.0294
     17 C          -8.8211  -21.9546   17.8262 C.3     1  UNL1        0.0004
     18 C          -9.4176  -20.5795   17.7684 C.3     1  UNL1        0.0048
     19 O         -10.8622  -20.0006   21.8640 O.3     1  UNL1       -0.4756
     20 C         -11.8100  -18.8708   22.1382 C.3     1  UNL1        0.2092
     21 C         -12.1933  -17.9290   21.0354 C.3     1  UNL1        0.0946
     22 C         -11.7124  -16.5083   21.0615 C.3     1  UNL1        0.2093
     23 O         -10.2493  -16.2091   20.9202 O.3     1  UNL1       -0.4753
     24 C          -9.3929  -16.0601   22.1426 C.ar    1  UNL1        0.1382
     25 C          -9.9986  -16.2144   23.5062 C.ar    1  UNL1        0.0366
     26 C          -9.1421  -16.0653   24.7285 C.ar    1  UNL1       -0.0015
     27 C          -7.6799  -15.7621   24.5874 C.ar    1  UNL1       -0.0259
     28 C          -7.0741  -15.6078   23.2238 C.ar    1  UNL1       -0.0231
     29 C          -7.9306  -15.7568   22.0014 C.ar    1  UNL1        0.0323
     30 C          -5.6138  -15.3118   23.3961 C.3     1  UNL1        0.0265
     31 C          -5.3170  -15.2831   24.8662 C.3     1  UNL1        0.0094
     32 C          -6.5939  -15.5614   25.6024 C.3     1  UNL1        0.0279
     33 C          -6.7563  -15.6274   27.0921 C.3     1  UNL1        0.0460
     34 C          -8.1288  -15.6333   27.6973 C.2     1  UNL1        0.0507
     35 O          -8.8446  -16.9324   27.9203 O.co2   1  UNL1       -0.5492
     36 O          -8.7854  -14.3400   28.0797 O.co2   1  UNL1       -0.5492
@<TRIPOS>UNITY_ATOM_ATTR
35 1
charge -1
@<TRIPOS>BOND
     1    17    18    1
     2    18    16    1
     3    16     1    1
     4     1     2   ar
     5     2     3   ar
     6     3     7    1
     7     7     8    2
     8     8     9    1
     9     9    10    1
    10    10    11    1
    11    11    12    1
    12    12    13    1
    13    13    14    1
    14    14    15    1
    15     3     4   ar
    16     4     5   ar
    17     5     6   ar
    18     6    19    1
    19    19    20    1
    20    20    21    1
    21    21    22    1
    22    22    23    1
    23    23    24    1
    24    24    25   ar
    25    25    26   ar
    26    26    27   ar
    27    27    28   ar
    28    28    29   ar
    29    28    30    1
    30    30    31    1
    31    31    32    1
    32    32    33    1
    33    33    34    1
    34    34    35   ar
    35    34    36   ar
    36     6     1   ar
    37    29    24   ar
    38    15     7    1
    39    32    27    1
    40    14     9    1
@<TRIPOS>MOLECULE
*****
 36 40 0 0 0
SMALL
GASTEIGER

@<TRIPOS>ATOM
      1 C           3.5359   -1.8756   19.1750 C.ar    1  UNL1        0.0118
      2 C           2.3915   -0.9612   19.4977 C.ar    1  UNL1        0.0007
      3 C           2.2992    0.3848   18.8423 C.ar    1  UNL1        0.0231
      4 C           3.3513    0.8165   17.8642 C.ar    1  UNL1        0.0051
      5 C           4.4957   -0.0980   17.5415 C.ar    1  UNL1        0.0366
      6 C           4.5880   -1.4440   18.1969 C.ar    1  UNL1        0.1345
      7 C           1.1547    1.2993   19.1650 C.2     1  UNL1        0.1040
      8 N           0.0225    0.9980   20.1016 N.2     1  UNL1       -0.2361
      9 C          -0.8904    2.1880   20.1232 C.3     1  UNL1        0.2301
     10 O          -2.1655    2.4615   20.8643 O.3     1  UNL1       -0.3338
     11 C          -2.8726    3.7718   20.6821 C.3     1  UNL1        0.1444
     12 C          -2.3045    4.8086   19.7589 C.3     1  UNL1        0.0332
     13 C          -1.0294    4.5351   19.0178 C.3     1  UNL1        0.0183
     14 C          -0.3223    3.2248   19.2000 C.3     1  UNL1        0.1042
     15 S           0.9416    2.6755   18.6078 S.3     1  UNL1       -0.0916
     16 C           3.6282   -3.2217   19.8305 C.3     1  UNL1        0.0294
     17 C           4.6002   -5.4052   18.8118 C.3     1  UNL1        0.0004
     18 C           3.4473   -4.4672   19.0145 C.3     1  UNL1        0.0048
     19 O           5.7324   -2.3584   17.8742 O.3     1  UNL1       -0.4756
     20 C           7.0660   -2.1507   18.5286 C.3     1  UNL1        0.2092
     21 C           7.4369   -2.9468   19.7446 C.3     1  UNL1        0.0946
     22 C           7.7400   -2.2463   21.0360 C.3     1  UNL1        0.2093
     23 O           6.8441   -2.4412   22.2232 O.3     1  UNL1       -0.4753
     24 C           5.6532   -1.5504   22.4183 C.ar    1  UNL1        0.1382
     25 C           4.4677   -2.0424   23.1947 C.ar    1  UNL1        0.0366
     26 C           3.2768   -1.1515   23.3899 C.ar    1  UNL1       -0.0015
     27 C           3.2713    0.2312   22.8086 C.ar    1  UNL1       -0.0259
     28 C           4.4566    0.7232   22.0322 C.ar    1  UNL1       -0.0231
     29 C           5.6476   -0.1676   21.8370 C.ar    1  UNL1        0.0323
     30 C           4.1660    2.1236   21.5803 C.3     1  UNL1        0.0265
     31 C           2.8009    2.4972   22.0774 C.3     1  UNL1        0.0094
     32 C           2.2480    1.3276   22.8365 C.3     1  UNL1        0.0279
     33 C           0.9072    1.2653   23.5060 C.3     1  UNL1        0.0460
     34 C           0.7754    1.6264   24.9559 C.2     1  UNL1        0.0507
     35 O           1.6490    0.9602   25.9772 O.co2   1  UNL1       -0.5492
     36 O          -0.2300    2.6537   25.3847 O.co2   1  UNL1       -0.5492
@<TRIPOS>UNITY_ATOM_ATTR
35 1
charge -1
@<TRIPOS>BOND
     1    17    18    1
     2    18    16    1
     3    16     1    1
     4     1     2   ar
     5     2     3   ar
     6     3     7    1
     7     7     8    2
     8     8     9    1
     9     9    10    1
    10    10    11    1
    11    11    12    1
    12    12    13    1
    13    13    14    1
    14    14    15    1
    15     3     4   ar
    16     4     5   ar
    17     5     6   ar
    18     6    19    1
    19    19    20    1
    20    20    21    1
    21    21    22    1
    22    22    23    1
    23    23    24    1
    24    24    25   ar
    25    25    26   ar
    26    26    27   ar
    27    27    28   ar
    28    28    29   ar
    29    28    30    1
    30    30    31    1
    31    31    32    1
    32    32    33    1
    33    33    34    1
    34    34    35   ar
    35    34    36   ar
    36     6     1   ar
    37    29    24   ar
    38    15     7    1
    39    32    27    1
    40    14     9    1
@<TRIPOS>MOLECULE
*****
 36 40 0 0 0
SMALL
GASTEIGER

@<TRIPOS>ATOM
      1 C           2.7407   -1.2942   20.8184 C.ar    1  UNL1        0.0118
      2 C           3.4314   -1.5855   22.1176 C.ar    1  UNL1        0.0007
      3 C           3.1493   -0.7390   23.3234 C.ar    1  UNL1        0.0231
      4 C           2.1765    0.3989   23.2298 C.ar    1  UNL1        0.0051
      5 C           1.4858    0.6902   21.9306 C.ar    1  UNL1        0.0366
      6 C           1.7679   -0.1563   20.7249 C.ar    1  UNL1        0.1345
      7 C           3.8399   -1.0304   24.6226 C.2     1  UNL1        0.1040
      8 N           3.3872   -0.5844   25.9813 N.2     1  UNL1       -0.2361
      9 C           4.3721   -1.0973   26.9897 C.3     1  UNL1        0.2301
     10 O           4.4394   -0.9681   28.4826 O.3     1  UNL1       -0.3338
     11 C           5.5683   -1.6020   29.2400 C.3     1  UNL1        0.1444
     12 C           6.6298   -2.3651   28.5046 C.3     1  UNL1        0.0332
     13 C           6.5625   -2.4943   27.0117 C.3     1  UNL1        0.0183
     14 C           5.4336   -1.8604   26.2543 C.3     1  UNL1        0.1042
     15 S           5.1047   -1.8191   24.7913 S.3     1  UNL1       -0.0916
     16 C           3.0229   -2.1407   19.6126 C.3     1  UNL1        0.0294
     17 C           3.3994   -4.6791   19.2065 C.3     1  UNL1        0.0004
     18 C           3.8832   -3.3629   19.7390 C.3     1  UNL1        0.0048
     19 O           1.0772    0.1351   19.4256 O.3     1  UNL1       -0.4756
     20 C           1.6949    1.0873   18.4449 C.3     1  UNL1        0.2092
     21 C           1.8395    2.5381   18.7974 C.3     1  UNL1        0.0946
     22 C           3.1805    3.2033   18.7012 C.3     1  UNL1        0.2093
     23 O           4.1766    3.0469   19.8118 O.3     1  UNL1       -0.4753
     24 C           4.9745    1.7824   19.9312 C.ar    1  UNL1        0.1382
     25 C           5.4916    1.3453   21.2697 C.ar    1  UNL1        0.0366
     26 C           6.2895    0.0808   21.3891 C.ar    1  UNL1       -0.0015
     27 C           6.5702   -0.7468   20.1699 C.ar    1  UNL1       -0.0259
     28 C           6.0531   -0.3098   18.8314 C.ar    1  UNL1       -0.0231
     29 C           5.2552    0.9548   18.7120 C.ar    1  UNL1        0.0323
     30 C           6.4855   -1.3235   17.8139 C.3     1  UNL1        0.0265
     31 C           7.2700   -2.3870   18.5236 C.3     1  UNL1        0.0094
     32 C           7.3223   -2.0306   19.9796 C.3     1  UNL1        0.0279
     33 C           8.0066   -2.8194   21.0564 C.3     1  UNL1        0.0460
     34 C           7.4705   -4.1613   21.4588 C.2     1  UNL1        0.0507
     35 O           8.2449   -5.4053   21.1380 O.co2   1  UNL1       -0.5492
     36 O           6.1600   -4.2594   22.1819 O.co2   1  UNL1       -0.5492
@<TRIPOS>UNITY_ATOM_ATTR
35 1
charge -1
@<TRIPOS>BOND
     1    17    18    1
     2    18    16    1
     3    16     1    1
     4     1     2   ar
     5     2     3   ar
     6     3     7    1
     7     7     8    2
     8     8     9    1
     9     9    10    1
    10    10    11    1
    11    11    12    1
    12    12    13    1
    13    13    14    1
    14    14    15    1
    15     3     4   ar
    16     4     5   ar
    17     5     6   ar
    18     6    19    1
    19    19    20    1
    20    20    21    1
    21    21    22    1
    22    22    23    1
    23    23    24    1
    24    24    25   ar
    25    25    26   ar
    26    26    27   ar
    27    27    28   ar
    28    28    29   ar
    29    28    30    1
    30    30    31    1
    31    31    32    1
    32    32    33    1
    33    33    34    1
    34    34    35   ar
    35    34    36   ar
    36     6     1   ar
    37    29    24   ar
    38    15     7    1
    39    32    27    1
    40    14     9    1
@<TRIPOS>MOLECULE
*****
 36 40 0 0 0
SMALL
GASTEIGER

@<TRIPOS>ATOM
      1 C           4.4381   -1.5142   22.5640 C.ar    1  UNL1        0.0118
      2 C           3.2599   -0.9102   23.2691 C.ar    1  UNL1        0.0007
      3 C           3.0343    0.5718   23.2180 C.ar    1  UNL1        0.0231
      4 C           3.9869    1.4498   22.4619 C.ar    1  UNL1        0.0051
      5 C           5.1650    0.8458   21.7568 C.ar    1  UNL1        0.0366
      6 C           5.3906   -0.6362   21.8079 C.ar    1  UNL1        0.1345
      7 C           1.8562    1.1759   23.9231 C.2     1  UNL1        0.1040
      8 N           0.7604    1.9755   23.2829 N.2     1  UNL1       -0.2361
      9 C          -0.2060    2.3801   24.3563 C.3     1  UNL1        0.2301
     10 O          -1.4755    3.1780   24.3151 O.3     1  UNL1       -0.3338
     11 C          -2.2465    3.4263   25.5775 C.3     1  UNL1        0.1444
     12 C          -1.7481    2.8768   26.8812 C.3     1  UNL1        0.0332
     13 C          -0.4786    2.0790   26.9224 C.3     1  UNL1        0.0183
     14 C           0.2925    1.8306   25.6600 C.3     1  UNL1        0.1042
     15 S           1.5670    1.0863   25.3922 S.3     1  UNL1       -0.0916
     16 C           4.6636   -2.9964   22.6150 C.3     1  UNL1        0.0294
     17 C           5.1123   -4.2050   20.3594 C.3     1  UNL1        0.0004
     18 C           4.1867   -3.8668   21.4904 C.3     1  UNL1        0.0048
     19 O           6.5687   -1.2403   21.1028 O.3     1  UNL1       -0.4756
     20 C           7.5203   -0.3625   20.3452 C.3     1  UNL1        0.2092
     21 C           7.8804   -0.6947   18.9275 C.3     1  UNL1        0.0946
     22 C           7.1035   -1.7386   18.1813 C.3     1  UNL1        0.2093
     23 O           5.9406   -1.3373   17.3230 O.3     1  UNL1       -0.4753
     24 C           4.7814   -0.6014   17.9270 C.ar    1  UNL1        0.1382
     25 C           4.6797    0.8880   17.7797 C.ar    1  UNL1        0.0366
     26 C           3.5206    1.6239   18.3836 C.ar    1  UNL1       -0.0015
     27 C           2.4631    0.8706   19.1348 C.ar    1  UNL1       -0.0259
     28 C           2.5648   -0.6186   19.2821 C.ar    1  UNL1       -0.0231
     29 C           3.7240   -1.3547   18.6782 C.ar    1  UNL1        0.0323
     30 C           1.3791   -1.0884   20.0716 C.3     1  UNL1        0.0265
     31 C           0.5446    0.1106   20.4124 C.3     1  UNL1        0.0094
     32 C           1.2146    1.3213   19.8334 C.3     1  UNL1        0.0279
     33 C           0.7225    2.7346   19.9350 C.3     1  UNL1        0.0460
     34 C          -0.7411    3.0312   19.7935 C.2     1  UNL1        0.0507
     35 O          -1.2578    3.6778   18.5426 O.co2   1  UNL1       -0.5492
     36 O          -1.6880    2.6811   20.9029 O.co2   1  UNL1       -0.5492
@<TRIPOS>UNITY_ATOM_ATTR
35 1
charge -1
@<TRIPOS>BOND
     1    17    18    1
     2    18    16    1
     3    16     1    1
     4     1     2   ar
     5     2     3   ar
     6     3     7    1
     7     7     8    2
     8     8     9    1
     9     9    10    1
    10    10    11    1
    11    11    12    1
    12    12    13    1
    13    13    14    1
    14    14    15    1
    15     3     4   ar
    16     4     5   ar
    17     5     6   ar
    18     6    19    1
    19    19    20    1
    20    20    21    1
    21    21    22    1
    22    22    23    1
    23    23    24    1
    24    24    25   ar
    25    25    26   ar
    26    26    27   ar
    27    27    28   ar
    28    28    29   ar
    29    28    30    1
    30    30    31    1
    31    31    32    1
    32    32    33    1
    33    33    34    1
    34    34    35   ar
    35    34    36   ar
    36     6     1   ar
    37    29    24   ar
    38    15     7    1
    39    32    27    1
    40    14     9    1
@<TRIPOS>MOLECULE
*****
 36 40 0 0 0
SMALL
GASTEIGER

@<TRIPOS>ATOM
      1 C           6.1698   -2.8853   19.8314 C.ar    1  UNL1        0.0118
      2 C           6.3958   -3.8738   20.9367 C.ar    1  UNL1        0.0007
      3 C           7.1459   -3.4627   22.1689 C.ar    1  UNL1        0.0231
      4 C           7.6699   -2.0630   22.2958 C.ar    1  UNL1        0.0051
      5 C           7.4439   -1.0744   21.1905 C.ar    1  UNL1        0.0366
      6 C           6.6938   -1.4856   19.9583 C.ar    1  UNL1        0.1345
      7 C           7.3719   -4.4513   23.2741 C.2     1  UNL1        0.1040
      8 N           7.8977   -5.8470   23.1148 N.2     1  UNL1       -0.2361
      9 C           7.9626   -6.4761   24.4750 C.3     1  UNL1        0.2301
     10 O           8.4011   -7.8357   24.9322 O.3     1  UNL1       -0.3338
     11 C           8.3540   -8.1883   26.3894 C.3     1  UNL1        0.1444
     12 C           7.8683   -7.1812   27.3894 C.3     1  UNL1        0.0332
     13 C           7.4298   -5.8216   26.9322 C.3     1  UNL1        0.0183
     14 C           7.4769   -5.4690   25.4750 C.3     1  UNL1        0.1042
     15 S           7.1118   -4.2177   24.7328 S.3     1  UNL1       -0.0916
     16 C           5.4197   -3.2965   18.5992 C.3     1  UNL1        0.0294
     17 C           3.1527   -4.4319   19.1664 C.3     1  UNL1        0.0004
     18 C           4.5486   -4.5173   18.6238 C.3     1  UNL1        0.0048
     19 O           6.4678   -0.4970   18.8530 O.3     1  UNL1       -0.4756
     20 C           5.4360    0.5803   19.0098 C.3     1  UNL1        0.2092
     21 C           4.2359    0.6060   18.1102 C.3     1  UNL1        0.0946
     22 C           3.2278   -0.5030   18.1728 C.3     1  UNL1        0.2093
     23 O           2.0623   -0.4050   19.1120 O.3     1  UNL1       -0.4753
     24 C           2.2960   -0.3265   20.5916 C.ar    1  UNL1        0.1382
     25 C           1.6176    0.7375   21.4026 C.ar    1  UNL1        0.0366
     26 C           1.8513    0.8161   22.8822 C.ar    1  UNL1       -0.0015
     27 C           2.7633   -0.1694   23.5508 C.ar    1  UNL1       -0.0259
     28 C           3.4417   -1.2334   22.7399 C.ar    1  UNL1       -0.0231
     29 C           3.2080   -1.3120   21.2602 C.ar    1  UNL1        0.0323
     30 C           4.2804   -2.0602   23.6688 C.3     1  UNL1        0.0265
     31 C           4.1204   -1.5071   25.0539 C.3     1  UNL1        0.0094
     32 C           3.1828   -0.3386   24.9810 C.3     1  UNL1        0.0279
     33 C           2.7420    0.5116   26.1355 C.3     1  UNL1        0.0460
     34 C           3.0826    0.1057   27.5388 C.2     1  UNL1        0.0507
     35 O           3.7201    1.0928   28.4712 O.co2   1  UNL1       -0.5492
     36 O           2.7857   -1.2871   28.0098 O.co2   1  UNL1       -0.5492
@<TRIPOS>UNITY_ATOM_ATTR
35 1
charge -1
@<TRIPOS>BOND
     1    17    18    1
     2    18    16    1
     3    16     1    1
     4     1     2   ar
     5     2     3   ar
     6     3     7    1
     7     7     8    2
     8     8     9    1
     9     9    10    1
    10    10    11    1
    11    11    12    1
    12    12    13    1
    13    13    14    1
    14    14    15    1
    15     3     4   ar
    16     4     5   ar
    17     5     6   ar
    18     6    19    1
    19    19    20    1
    20    20    21    1
    21    21    22    1
    22    22    23    1
    23    23    24    1
    24    24    25   ar
    25    25    26   ar
    26    26    27   ar
    27    27    28   ar
    28    28    29   ar
    29    28    30    1
    30    30    31    1
    31    31    32    1
    32    32    33    1
    33    33    34    1
    34    34    35   ar
    35    34    36   ar
    36     6     1   ar
    37    29    24   ar
    38    15     7    1
    39    32    27    1
    40    14     9    1
@<TRIPOS>MOLECULE
*****
 36 40 0 0 0
SMALL
GASTEIGER

@<TRIPOS>ATOM
      1 C           5.3259    2.4355   19.1137 C.ar    1  UNL1        0.0118
      2 C           5.8528    1.1848   19.7526 C.ar    1  UNL1        0.0007
      3 C           5.3205    0.7405   21.0827 C.ar    1  UNL1        0.0231
      4 C           4.2613    1.5469   21.7739 C.ar    1  UNL1        0.0051
      5 C           3.7344    2.7976   21.1350 C.ar    1  UNL1        0.0366
      6 C           4.2667    3.2419   19.8049 C.ar    1  UNL1        0.1345
      7 C           5.8474   -0.5101   21.7216 C.2     1  UNL1        0.1040
      8 N           6.9820   -1.3493   21.2132 N.2     1  UNL1       -0.2361
      9 C           7.1681   -2.4991   22.1585 C.3     1  UNL1        0.2301
     10 O           8.1342   -3.6464   22.1654 O.3     1  UNL1       -0.3338
     11 C           8.0807   -4.6652   23.2651 C.3     1  UNL1        0.1444
     12 C           7.0611   -4.5366   24.3577 C.3     1  UNL1        0.0332
     13 C           6.0950   -3.3892   24.3507 C.3     1  UNL1        0.0183
     14 C           6.1485   -2.3704   23.2511 C.3     1  UNL1        0.1042
     15 S           5.3323   -1.1412   22.9811 S.3     1  UNL1       -0.0916
     16 C           5.8583    2.8798   17.7836 C.3     1  UNL1        0.0294
     17 C           7.6523    1.3418   16.7037 C.3     1  UNL1        0.0004
     18 C           6.2460    1.8614   16.7528 C.3     1  UNL1        0.0048
     19 O           3.7398    4.4925   19.1660 O.3     1  UNL1       -0.4756
     20 C           2.4738    4.4484   18.3628 C.3     1  UNL1        0.2092
     21 C           1.1442    4.4612   19.0571 C.3     1  UNL1        0.0946
     22 C           0.0585    3.5249   18.6157 C.3     1  UNL1        0.2093
     23 O          -0.2468    2.2973   19.4217 O.3     1  UNL1       -0.4753
     24 C           0.7258    1.1557   19.4470 C.ar    1  UNL1        0.1382
     25 C           0.7396    0.2078   20.6096 C.ar    1  UNL1        0.0366
     26 C           1.7122   -0.9339   20.6349 C.ar    1  UNL1       -0.0015
     27 C           2.6710   -1.1277   19.4977 C.ar    1  UNL1       -0.0259
     28 C           2.6572   -0.1799   18.3352 C.ar    1  UNL1       -0.0231
     29 C           1.6846    0.9618   18.3098 C.ar    1  UNL1        0.0323
     30 C           3.7133   -0.6203   17.3654 C.3     1  UNL1        0.0265
     31 C           4.3800   -1.8403   17.9286 C.3     1  UNL1        0.0094
     32 C           3.7357   -2.1539   19.2464 C.3     1  UNL1        0.0279
     33 C           4.0934   -3.2936   20.1536 C.3     1  UNL1        0.0460
     34 C           4.0404   -4.7033   19.6436 C.2     1  UNL1        0.0507
     35 O           3.3017   -5.7539   20.4185 O.co2   1  UNL1       -0.5492
     36 O           4.7262   -5.0624   18.3589 O.co2   1  UNL1       -0.5492
@<TRIPOS>UNITY_ATOM_ATTR
35 1
charge -1
@<TRIPOS>BOND
     1    17    18    1
     2    18    16    1
     3    16     1    1
     4     1     2   ar
     5     2     3   ar
     6     3     7    1
     7     7     8    2
     8     8     9    1
     9     9    10    1
    10    10    11    1
    11    11    12    1
    12    12    13    1
    13    13    14    1
    14    14    15    1
    15     3     4   ar
    16     4     5   ar
    17     5     6   ar
    18     6    19    1
    19    19    20    1
    20    20    21    1
    21    21    22    1
    22    22    23    1
    23    23    24    1
    24    24    25   ar
    25    25    26   ar
    26    26    27   ar
    27    27    28   ar
    28    28    29   ar
    29    28    30    1
    30    30    31    1
    31    31    32    1
    32    32    33    1
    33    33    34    1
    34    34    35   ar
    35    34    36   ar
    36     6     1   ar
    37    29    24   ar
    38    15     7    1
    39    32    27    1
    40    14     9    1
@<TRIPOS>MOLECULE
*****
 36 40 0 0 0
SMALL
GASTEIGER

@<TRIPOS>ATOM
      1 C           1.4465    1.7280   23.6900 C.ar    1  UNL1        0.0118
      2 C           2.3944    0.5675   23.6197 C.ar    1  UNL1        0.0007
      3 C           3.6318    0.6599   22.7771 C.ar    1  UNL1        0.0231
      4 C           3.9215    1.9127   22.0048 C.ar    1  UNL1        0.0051
      5 C           2.9737    3.0731   22.0751 C.ar    1  UNL1        0.0366
      6 C           1.7362    2.9808   22.9177 C.ar    1  UNL1        0.1345
      7 C           4.5797   -0.5006   22.7067 C.2     1  UNL1        0.1040
      8 N           5.6582   -0.6973   21.6830 N.2     1  UNL1       -0.2361
      9 C           6.3605   -1.9864   21.9914 C.3     1  UNL1        0.2301
     10 O           7.5036   -2.6914   21.3233 O.3     1  UNL1       -0.3338
     11 C           8.0021   -3.9963   21.8696 C.3     1  UNL1        0.1444
     12 C           7.3576   -4.5963   23.0839 C.3     1  UNL1        0.0332
     13 C           6.2146   -3.8914   23.7520 C.3     1  UNL1        0.0183
     14 C           5.7160   -2.5864   23.2057 C.3     1  UNL1        0.1042
     15 S           4.6154   -1.6681   23.6478 S.3     1  UNL1       -0.0916
     16 C           0.2090    1.6356   24.5326 C.3     1  UNL1        0.0294
     17 C          -0.8655    1.9359   26.8790 C.3     1  UNL1        0.0004
     18 C           0.3212    1.5930   26.0278 C.3     1  UNL1        0.0048
     19 O           0.7884    4.1413   22.9880 O.3     1  UNL1       -0.4756
     20 C           0.0514    4.5832   21.7586 C.3     1  UNL1        0.2092
     21 C          -1.2684    3.9608   21.4109 C.3     1  UNL1        0.0946
     22 C          -1.3258    2.8147   20.4448 C.3     1  UNL1        0.2093
     23 O          -0.7406    1.4861   20.8218 O.3     1  UNL1       -0.4753
     24 C           0.4656    0.9653   20.0979 C.ar    1  UNL1        0.1382
     25 C           1.1251    1.8012   19.0413 C.ar    1  UNL1        0.0366
     26 C           2.3313    1.2804   18.3175 C.ar    1  UNL1       -0.0015
     27 C           2.8779   -0.0762   18.6502 C.ar    1  UNL1       -0.0259
     28 C           2.2184   -0.9121   19.7067 C.ar    1  UNL1       -0.0231
     29 C           1.0122   -0.3914   20.4306 C.ar    1  UNL1        0.0323
     30 C           2.9770   -2.2013   19.8185 C.3     1  UNL1        0.0265
     31 C           4.1054   -2.1622   18.8309 C.3     1  UNL1        0.0094
     32 C           4.0441   -0.8488   18.1089 C.3     1  UNL1        0.0279
     33 C           4.9841   -0.3888   17.0343 C.3     1  UNL1        0.0460
     34 C           6.1750    0.4514   17.3888 C.2     1  UNL1        0.0507
     35 O           7.2123    0.7586   16.3497 O.co2   1  UNL1       -0.5492
     36 O           6.3288    0.9844   18.7824 O.co2   1  UNL1       -0.5492
@<TRIPOS>UNITY_ATOM_ATTR
35 1
charge -1
@<TRIPOS>BOND
     1    17    18    1
     2    18    16    1
     3    16     1    1
     4     1     2   ar
     5     2     3   ar
     6     3     7    1
     7     7     8    2
     8     8     9    1
     9     9    10    1
    10    10    11    1
    11    11    12    1
    12    12    13    1
    13    13    14    1
    14    14    15    1
    15     3     4   ar
    16     4     5   ar
    17     5     6   ar
    18     6    19    1
    19    19    20    1
    20    20    21    1
    21    21    22    1
    22    22    23    1
    23    23    24    1
    24    24    25   ar
    25    25    26   ar
    26    26    27   ar
    27    27    28   ar
    28    28    29   ar
    29    28    30    1
    30    30    31    1
    31    31    32    1
    32    32    33    1
    33    33    34    1
    34    34    35   ar
    35    34    36   ar
    36     6     1   ar
    37    29    24   ar
    38    15     7    1
    39    32    27    1
    40    14     9    1
