@<TRIPOS>MOLECULE
*****
 28 31 0 0 0
SMALL
GASTEIGER

@<TRIPOS>ATOM
      1 C          -7.9383  -18.9374   20.5368 C.ar    1  UNL1        0.0284
      2 C          -7.0430  -20.1324   20.3942 C.ar    1  UNL1        0.0027
      3 C          -5.7862  -20.2293   21.2073 C.ar    1  UNL1        0.0339
      4 C          -5.4248  -19.1312   22.1631 C.ar    1  UNL1        0.1311
      5 N          -6.3202  -17.9362   22.3057 N.ar    1  UNL1       -0.2035
      6 C          -7.5769  -17.8393   21.4926 C.ar    1  UNL1        0.2196
      7 F          -8.4722  -16.6443   21.6353 F       1  UNL1       -0.1835
      8 N          -4.1680  -19.2281   22.9762 N.pl3   1  UNL1       -0.3143
      9 H          -3.9814  -20.0412   23.4990 H       1  UNL1        0.1485
     10 C          -3.1955  -18.0862   22.9928 C.3     1  UNL1        0.1192
     11 C          -2.2185  -17.9168   21.8673 C.ar    1  UNL1        0.0434
     12 C          -1.7094  -16.5505   21.5153 C.ar    1  UNL1        0.0028
     13 C          -0.7324  -16.3810   20.3898 C.ar    1  UNL1        0.0206
     14 C          -0.2644  -17.5780   19.6163 C.ar    1  UNL1        0.1013
     15 N          -0.7735  -18.9444   19.9684 N.ar    1  UNL1       -0.2167
     16 C          -1.7505  -19.1137   21.0938 C.ar    1  UNL1        0.2198
     17 F          -2.2595  -20.4802   21.4459 F       1  UNL1       -0.1835
     18 C          -9.1951  -18.8405   19.7237 C.3     1  UNL1        0.0603
     19 C         -10.3342  -20.2067   25.3475 C.3     1  UNL1        0.0307
     20 C         -10.9628  -19.4405   24.2216 C.2     1  UNL1        0.0074
     21 C         -12.2815  -18.7552   24.4251 C.2     1  UNL1        0.2278
     22 N         -12.9102  -17.9890   23.2992 N.2     1  UNL1       -0.0314
     23 C         -12.2201  -17.9080   21.9698 C.2     1  UNL1        0.3716
     24 N         -12.5939  -17.2311   20.6845 N.2     1  UNL1       -0.0311
     25 C         -11.5062  -17.4980   19.6866 C.2     1  UNL1        0.2319
     26 C         -10.4602  -18.3399   20.3552 C.2     1  UNL1        0.0328
     27 C         -10.9015  -18.5933   21.7663 C.2     1  UNL1        0.0704
     28 C         -10.2728  -19.3595   22.8923 C.3     1  UNL1        0.0598
@<TRIPOS>BOND
     1    19    20    1
     2    20    21    2
     3    21    22    1
     4    22    23    2
     5    23    24    1
     6    24    25    2
     7    25    26    1
     8    26    18    1
     9    18     1    1
    10     1     2   ar
    11     2     3   ar
    12     3     4   ar
    13     4     8    1
    14     8    10    1
    15    10    11    1
    16    11    12   ar
    17    12    13   ar
    18    13    14   ar
    19    14    15   ar
    20    15    16   ar
    21    16    17    1
    22     4     5   ar
    23     5     6   ar
    24     6     7    1
    25    26    27    2
    26    27    28    1
    27    28    20    1
    28    27    23    1
    29     6     1   ar
    30    16    11   ar
    31     8     9    1
@<TRIPOS>MOLECULE
*****
 28 31 0 0 0
SMALL
GASTEIGER

@<TRIPOS>ATOM
      1 C          -5.4637  -16.6068   23.8447 C.ar    1  UNL1        0.0284
      2 C          -6.3681  -17.3409   22.8996 C.ar    1  UNL1        0.0027
      3 C          -7.8357  -17.0319   22.8736 C.ar    1  UNL1        0.0339
      4 C          -8.3990  -15.9889   23.7927 C.ar    1  UNL1        0.1311
      5 N          -7.4945  -15.2548   24.7378 N.ar    1  UNL1       -0.2035
      6 C          -6.0269  -15.5637   24.7639 C.ar    1  UNL1        0.2196
      7 F          -5.1226  -14.8296   25.7090 F       1  UNL1       -0.1835
      8 N          -9.8666  -15.6800   23.7667 N.pl3   1  UNL1       -0.3143
      9 H         -10.1771  -14.7544   23.8936 H       1  UNL1        0.1485
     10 C         -10.8610  -16.7813   23.5473 C.3     1  UNL1        0.1192
     11 C         -10.8348  -17.5727   22.2734 C.ar    1  UNL1        0.0434
     12 C         -10.9129  -19.0699   22.3188 C.ar    1  UNL1        0.0028
     13 C         -10.8867  -19.8614   21.0449 C.ar    1  UNL1        0.0206
     14 C         -10.7822  -19.1556   19.7254 C.ar    1  UNL1        0.1013
     15 N         -10.7040  -17.6582   19.6800 N.ar    1  UNL1       -0.2167
     16 C         -10.7303  -16.8669   20.9540 C.ar    1  UNL1        0.2198
     17 F         -10.6521  -15.3695   20.9085 F       1  UNL1       -0.1835
     18 C          -3.9961  -16.9157   23.8707 C.3     1  UNL1        0.0603
     19 C          -5.5887  -21.3766   20.3556 C.3     1  UNL1        0.0307
     20 C          -4.5752  -20.2712   20.3891 C.2     1  UNL1        0.0074
     21 C          -3.5971  -20.1161   19.2626 C.2     1  UNL1        0.2278
     22 N          -2.5837  -19.0107   19.2961 N.2     1  UNL1       -0.0314
     23 C          -2.5484  -18.0605   20.4562 C.2     1  UNL1        0.3716
     24 N          -1.6703  -16.8838   20.7635 N.2     1  UNL1       -0.0311
     25 C          -2.1057  -16.3118   22.0800 C.2     1  UNL1        0.2319
     26 C          -3.2529  -17.1349   22.5863 C.2     1  UNL1        0.0328
     27 C          -3.5265  -18.2157   21.5827 C.2     1  UNL1        0.0704
     28 C          -4.5399  -19.3210   21.5492 C.3     1  UNL1        0.0598
@<TRIPOS>BOND
     1    19    20    1
     2    20    21    2
     3    21    22    1
     4    22    23    2
     5    23    24    1
     6    24    25    2
     7    25    26    1
     8    26    18    1
     9    18     1    1
    10     1     2   ar
    11     2     3   ar
    12     3     4   ar
    13     4     8    1
    14     8    10    1
    15    10    11    1
    16    11    12   ar
    17    12    13   ar
    18    13    14   ar
    19    14    15   ar
    20    15    16   ar
    21    16    17    1
    22     4     5   ar
    23     5     6   ar
    24     6     7    1
    25    26    27    2
    26    27    28    1
    27    28    20    1
    28    27    23    1
    29     6     1   ar
    30    16    11   ar
    31     8     9    1
@<TRIPOS>MOLECULE
*****
 28 31 0 0 0
SMALL
GASTEIGER

@<TRIPOS>ATOM
      1 C          -8.7202  -19.6630   19.5257 C.ar    1  UNL1        0.0284
      2 C          -7.9364  -18.7929   20.4630 C.ar    1  UNL1        0.0027
      3 C          -6.5340  -19.1688   20.8396 C.ar    1  UNL1        0.0339
      4 C          -5.9152  -20.4149   20.2789 C.ar    1  UNL1        0.1311
      5 N          -6.6991  -21.2851   19.3416 N.ar    1  UNL1       -0.2035
      6 C          -8.1015  -20.9092   18.9650 C.ar    1  UNL1        0.2196
      7 F          -8.8852  -21.7794   18.0277 F       1  UNL1       -0.1835
      8 N          -4.5128  -20.7908   20.6556 N.pl3   1  UNL1       -0.3143
      9 H          -4.3547  -21.5066   21.3128 H       1  UNL1        0.1485
     10 C          -3.3513  -20.0762   20.0308 C.3     1  UNL1        0.1192
     11 C          -2.8531  -18.7923   20.6252 C.ar    1  UNL1        0.0434
     12 C          -3.1891  -18.4426   22.0446 C.ar    1  UNL1        0.0028
     13 C          -2.6909  -17.1587   22.6389 C.ar    1  UNL1        0.0206
     14 C          -1.8565  -16.2243   21.8138 C.ar    1  UNL1        0.1013
     15 N          -1.5205  -16.5740   20.3943 N.ar    1  UNL1       -0.2167
     16 C          -2.0187  -17.8579   19.8001 C.ar    1  UNL1        0.2198
     17 F          -1.6826  -18.2075   18.3805 F       1  UNL1       -0.1835
     18 C         -10.1226  -19.2871   19.1491 C.3     1  UNL1        0.0603
     19 C         -10.1376  -20.7170   24.8716 C.3     1  UNL1        0.0307
     20 C         -10.7688  -19.7090   23.9575 C.2     1  UNL1        0.0074
     21 C         -11.7150  -18.6845   24.5098 C.2     1  UNL1        0.2278
     22 N         -12.3462  -17.6765   23.5958 N.2     1  UNL1       -0.0314
     23 C         -12.0312  -17.6930   22.1293 C.2     1  UNL1        0.3716
     24 N         -12.4971  -16.8320   20.9929 N.2     1  UNL1       -0.0311
     25 C         -11.8389  -17.3244   19.7381 C.2     1  UNL1        0.2319
     26 C         -10.9661  -18.4897   20.0991 C.2     1  UNL1        0.0328
     27 C         -11.0850  -18.7175   21.5770 C.2     1  UNL1        0.0704
     28 C         -10.4538  -19.7255   22.4911 C.3     1  UNL1        0.0598
@<TRIPOS>BOND
     1    19    20    1
     2    20    21    2
     3    21    22    1
     4    22    23    2
     5    23    24    1
     6    24    25    2
     7    25    26    1
     8    26    18    1
     9    18     1    1
    10     1     2   ar
    11     2     3   ar
    12     3     4   ar
    13     4     8    1
    14     8    10    1
    15    10    11    1
    16    11    12   ar
    17    12    13   ar
    18    13    14   ar
    19    14    15   ar
    20    15    16   ar
    21    16    17    1
    22     4     5   ar
    23     5     6   ar
    24     6     7    1
    25    26    27    2
    26    27    28    1
    27    28    20    1
    28    27    23    1
    29     6     1   ar
    30    16    11   ar
    31     8     9    1
@<TRIPOS>MOLECULE
*****
 28 31 0 0 0
SMALL
GASTEIGER

@<TRIPOS>ATOM
      1 C          -7.0509  -20.2114   21.0033 C.ar    1  UNL1        0.0284
      2 C          -7.4482  -20.3645   22.4416 C.ar    1  UNL1        0.0027
      3 C          -8.7294  -19.7596   22.9343 C.ar    1  UNL1        0.0339
      4 C          -9.6134  -19.0017   21.9886 C.ar    1  UNL1        0.1311
      5 N          -9.2160  -18.8487   20.5502 N.ar    1  UNL1       -0.2035
      6 C          -7.9348  -19.4535   20.0576 C.ar    1  UNL1        0.2196
      7 F          -7.5376  -19.3004   18.6193 F       1  UNL1       -0.1835
      8 N         -10.8946  -18.3969   22.4813 N.pl3   1  UNL1       -0.3143
      9 H         -11.7575  -18.7960   22.2258 H       1  UNL1        0.1485
     10 C         -10.8609  -17.1840   23.3631 C.3     1  UNL1        0.1192
     11 C          -9.5673  -16.4611   23.5952 C.ar    1  UNL1        0.0434
     12 C          -8.9518  -16.4452   24.9630 C.ar    1  UNL1        0.0028
     13 C          -7.6582  -15.7223   25.1951 C.ar    1  UNL1        0.0206
     14 C          -6.9799  -15.0153   24.0593 C.ar    1  UNL1        0.1013
     15 N          -7.5954  -15.0312   22.6914 N.ar    1  UNL1       -0.2167
     16 C          -8.8890  -15.7541   22.4594 C.ar    1  UNL1        0.2198
     17 F          -9.5044  -15.7699   21.0915 F       1  UNL1       -0.1835
     18 C          -5.7697  -20.8163   20.5107 C.3     1  UNL1        0.0603
     19 C          -4.2109  -17.0288   24.7553 C.3     1  UNL1        0.0307
     20 C          -3.7439  -17.4561   23.3954 C.2     1  UNL1        0.0074
     21 C          -2.5259  -16.8255   22.7883 C.2     1  UNL1        0.2278
     22 N          -2.0589  -17.2527   21.4283 N.2     1  UNL1       -0.0314
     23 C          -2.8100  -18.3106   20.6755 C.2     1  UNL1        0.3716
     24 N          -2.5897  -18.9312   19.3278 N.2     1  UNL1       -0.0311
     25 C          -3.6716  -19.9454   19.1020 C.2     1  UNL1        0.2319
     26 C          -4.5606  -19.9516   20.3102 C.2     1  UNL1        0.0328
     27 C          -4.0281  -18.9412   21.2826 C.2     1  UNL1        0.0704
     28 C          -4.4950  -18.5139   22.6426 C.3     1  UNL1        0.0598
@<TRIPOS>BOND
     1    19    20    1
     2    20    21    2
     3    21    22    1
     4    22    23    2
     5    23    24    1
     6    24    25    2
     7    25    26    1
     8    26    18    1
     9    18     1    1
    10     1     2   ar
    11     2     3   ar
    12     3     4   ar
    13     4     8    1
    14     8    10    1
    15    10    11    1
    16    11    12   ar
    17    12    13   ar
    18    13    14   ar
    19    14    15   ar
    20    15    16   ar
    21    16    17    1
    22     4     5   ar
    23     5     6   ar
    24     6     7    1
    25    26    27    2
    26    27    28    1
    27    28    20    1
    28    27    23    1
    29     6     1   ar
    30    16    11   ar
    31     8     9    1
@<TRIPOS>MOLECULE
*****
 28 31 0 0 0
SMALL
GASTEIGER

@<TRIPOS>ATOM
      1 C          -5.1967  -16.5511   23.9908 C.ar    1  UNL1        0.0284
      2 C          -6.1548  -16.9885   22.9229 C.ar    1  UNL1        0.0027
      3 C          -7.6033  -16.6094   23.0136 C.ar    1  UNL1        0.0339
      4 C          -8.0936  -15.7928   24.1723 C.ar    1  UNL1        0.1311
      5 N          -7.1354  -15.3554   25.2404 N.ar    1  UNL1       -0.2035
      6 C          -5.6870  -15.7345   25.1496 C.ar    1  UNL1        0.2196
      7 F          -4.7289  -15.2970   26.2176 F       1  UNL1       -0.1835
      8 N          -9.5421  -15.4137   24.2631 N.pl3   1  UNL1       -0.3143
      9 H          -9.8037  -14.5692   24.6963 H       1  UNL1        0.1485
     10 C         -10.5919  -16.3213   23.6938 C.3     1  UNL1        0.1192
     11 C         -10.4379  -17.8092   23.8056 C.ar    1  UNL1        0.0434
     12 C         -10.7611  -18.6869   22.6330 C.ar    1  UNL1        0.0028
     13 C         -10.6070  -20.1747   22.7448 C.ar    1  UNL1        0.0206
     14 C         -10.1297  -20.7849   24.0292 C.ar    1  UNL1        0.1013
     15 N          -9.8064  -19.9072   25.2019 N.ar    1  UNL1       -0.2167
     16 C          -9.9605  -18.4194   25.0901 C.ar    1  UNL1        0.2198
     17 F          -9.6372  -17.5416   26.2628 F       1  UNL1       -0.1835
     18 C          -3.7482  -16.9302   23.9001 C.3     1  UNL1        0.0603
     19 C          -5.6204  -21.3735   20.5024 C.3     1  UNL1        0.0307
     20 C          -4.6073  -20.2681   20.4596 C.2     1  UNL1        0.0074
     21 C          -3.7233  -20.1071   19.2586 C.2     1  UNL1        0.2278
     22 N          -2.7102  -19.0017   19.2158 N.2     1  UNL1       -0.0314
     23 C          -2.5811  -18.0574   20.3740 C.2     1  UNL1        0.3716
     24 N          -1.6808  -16.8822   20.6154 N.2     1  UNL1       -0.0311
     25 C          -2.0084  -16.3168   21.9657 C.2     1  UNL1        0.2319
     26 C          -3.1112  -17.1427   22.5588 C.2     1  UNL1        0.0328
     27 C          -3.4651  -18.2184   21.5751 C.2     1  UNL1        0.0704
     28 C          -4.4782  -19.3238   21.6179 C.3     1  UNL1        0.0598
@<TRIPOS>BOND
     1    19    20    1
     2    20    21    2
     3    21    22    1
     4    22    23    2
     5    23    24    1
     6    24    25    2
     7    25    26    1
     8    26    18    1
     9    18     1    1
    10     1     2   ar
    11     2     3   ar
    12     3     4   ar
    13     4     8    1
    14     8    10    1
    15    10    11    1
    16    11    12   ar
    17    12    13   ar
    18    13    14   ar
    19    14    15   ar
    20    15    16   ar
    21    16    17    1
    22     4     5   ar
    23     5     6   ar
    24     6     7    1
    25    26    27    2
    26    27    28    1
    27    28    20    1
    28    27    23    1
    29     6     1   ar
    30    16    11   ar
    31     8     9    1
@<TRIPOS>MOLECULE
*****
 28 31 0 0 0
SMALL
GASTEIGER

@<TRIPOS>ATOM
      1 C          -7.7975  -19.4026   20.9938 C.ar    1  UNL1        0.0284
      2 C          -7.0332  -18.9482   19.7858 C.ar    1  UNL1        0.0027
      3 C          -5.6251  -19.4174   19.5688 C.ar    1  UNL1        0.0339
      4 C          -4.9812  -20.3412   20.5598 C.ar    1  UNL1        0.1311
      5 N          -5.7456  -20.7957   21.7678 N.ar    1  UNL1       -0.2035
      6 C          -7.1537  -20.3264   21.9848 C.ar    1  UNL1        0.2196
      7 F          -7.9179  -20.7809   23.1929 F       1  UNL1       -0.1835
      8 N          -3.5731  -20.8104   20.3428 N.pl3   1  UNL1       -0.3143
      9 H          -3.3754  -21.4617   19.6315 H       1  UNL1        0.1485
     10 C          -2.4663  -20.2873   21.2095 C.3     1  UNL1        0.1192
     11 C          -2.2254  -18.8101   21.3082 C.ar    1  UNL1        0.0434
     12 C          -1.2300  -18.1502   20.4007 C.ar    1  UNL1        0.0028
     13 C          -0.9891  -16.6730   20.4994 C.ar    1  UNL1        0.0206
     14 C          -1.7436  -15.8556   21.5057 C.ar    1  UNL1        0.1013
     15 N          -2.7390  -16.5155   22.4133 N.ar    1  UNL1       -0.2167
     16 C          -2.9799  -17.9927   22.3145 C.ar    1  UNL1        0.2198
     17 F          -3.9753  -18.6526   23.2222 F       1  UNL1       -0.1835
     18 C          -9.2055  -18.9334   21.2108 C.3     1  UNL1        0.0603
     19 C          -5.5276  -15.2386   23.9699 C.3     1  UNL1        0.0307
     20 C          -6.8781  -15.8558   24.1820 C.2     1  UNL1        0.0074
     21 C          -7.6610  -15.5395   25.4217 C.2     1  UNL1        0.2278
     22 N          -9.0116  -16.1567   25.6338 N.2     1  UNL1       -0.0314
     23 C          -9.5793  -17.0902   24.6062 C.2     1  UNL1        0.3716
     24 N         -10.8745  -17.8440   24.5414 N.2     1  UNL1       -0.0311
     25 C         -10.8922  -18.6262   23.2616 C.2     1  UNL1        0.2319
     26 C          -9.6079  -18.3559   22.5354 C.2     1  UNL1        0.0328
     27 C          -8.7964  -17.4066   23.3664 C.2     1  UNL1        0.0704
     28 C          -7.4459  -16.7894   23.1543 C.3     1  UNL1        0.0598
@<TRIPOS>BOND
     1    19    20    1
     2    20    21    2
     3    21    22    1
     4    22    23    2
     5    23    24    1
     6    24    25    2
     7    25    26    1
     8    26    18    1
     9    18     1    1
    10     1     2   ar
    11     2     3   ar
    12     3     4   ar
    13     4     8    1
    14     8    10    1
    15    10    11    1
    16    11    12   ar
    17    12    13   ar
    18    13    14   ar
    19    14    15   ar
    20    15    16   ar
    21    16    17    1
    22     4     5   ar
    23     5     6   ar
    24     6     7    1
    25    26    27    2
    26    27    28    1
    27    28    20    1
    28    27    23    1
    29     6     1   ar
    30    16    11   ar
    31     8     9    1
@<TRIPOS>MOLECULE
*****
 28 31 0 0 0
SMALL
GASTEIGER

@<TRIPOS>ATOM
      1 C          -6.9217  -16.2884   23.9108 C.ar    1  UNL1        0.0284
      2 C          -5.8221  -15.7802   24.7955 C.ar    1  UNL1        0.0027
      3 C          -4.4223  -16.2899   24.6202 C.ar    1  UNL1        0.0339
      4 C          -4.1220  -17.3079   23.5602 C.ar    1  UNL1        0.1311
      5 N          -5.2217  -17.8161   22.6755 N.ar    1  UNL1       -0.2035
      6 C          -6.6215  -17.3064   22.8508 C.ar    1  UNL1        0.2196
      7 F          -7.7210  -17.8147   21.9661 F       1  UNL1       -0.1835
      8 N          -2.7222  -17.8176   23.3850 N.pl3   1  UNL1       -0.3143
      9 H          -1.9888  -17.4358   23.9193 H       1  UNL1        0.1485
     10 C          -2.4399  -18.9091   22.3955 C.3     1  UNL1        0.1192
     11 C          -2.1389  -18.5664   20.9665 C.ar    1  UNL1        0.0434
     12 C          -0.8789  -17.8296   20.6213 C.ar    1  UNL1        0.0028
     13 C          -0.5779  -17.4869   19.1923 C.ar    1  UNL1        0.0206
     14 C          -1.5371  -17.8812   18.1084 C.ar    1  UNL1        0.1013
     15 N          -2.7972  -18.6181   18.4538 N.ar    1  UNL1       -0.2167
     16 C          -3.0981  -18.9607   19.8827 C.ar    1  UNL1        0.2198
     17 F          -4.3582  -19.6976   20.2279 F       1  UNL1       -0.1835
     18 C          -8.3215  -15.7787   24.0861 C.3     1  UNL1        0.0603
     19 C         -11.9898  -15.7804   19.4671 C.3     1  UNL1        0.0307
     20 C         -11.8147  -16.5014   20.7707 C.2     1  UNL1        0.0074
     21 C         -12.7814  -17.5771   21.1686 C.2     1  UNL1        0.2278
     22 N         -12.6063  -18.2980   22.4723 N.2     1  UNL1       -0.0314
     23 C         -11.4645  -17.9434   23.3780 C.2     1  UNL1        0.3716
     24 N         -11.0400  -18.4769   24.7142 N.2     1  UNL1       -0.0311
     25 C          -9.8110  -17.7309   25.1420 C.2     1  UNL1        0.2319
     26 C          -9.4758  -16.7364   24.0704 C.2     1  UNL1        0.0328
     27 C         -10.4978  -16.8677   22.9801 C.2     1  UNL1        0.0704
     28 C         -10.6729  -16.1467   21.6765 C.3     1  UNL1        0.0598
@<TRIPOS>BOND
     1    19    20    1
     2    20    21    2
     3    21    22    1
     4    22    23    2
     5    23    24    1
     6    24    25    2
     7    25    26    1
     8    26    18    1
     9    18     1    1
    10     1     2   ar
    11     2     3   ar
    12     3     4   ar
    13     4     8    1
    14     8    10    1
    15    10    11    1
    16    11    12   ar
    17    12    13   ar
    18    13    14   ar
    19    14    15   ar
    20    15    16   ar
    21    16    17    1
    22     4     5   ar
    23     5     6   ar
    24     6     7    1
    25    26    27    2
    26    27    28    1
    27    28    20    1
    28    27    23    1
    29     6     1   ar
    30    16    11   ar
    31     8     9    1
@<TRIPOS>MOLECULE
*****
 28 31 0 0 0
SMALL
GASTEIGER

@<TRIPOS>ATOM
      1 C          -7.4848  -16.2369   24.5347 C.ar    1  UNL1        0.0284
      2 C          -7.1313  -16.9260   23.2502 C.ar    1  UNL1        0.0027
      3 C          -5.7101  -16.9352   22.7704 C.ar    1  UNL1        0.0339
      4 C          -4.6424  -16.2552   23.5752 C.ar    1  UNL1        0.1311
      5 N          -4.9960  -15.5660   24.8598 N.ar    1  UNL1       -0.2035
      6 C          -6.4172  -15.5569   25.3396 C.ar    1  UNL1        0.2196
      7 F          -6.7706  -14.8677   26.6242 F       1  UNL1       -0.1835
      8 N          -3.2213  -16.2643   23.0954 N.pl3   1  UNL1       -0.3143
      9 H          -2.7539  -15.4148   22.9245 H       1  UNL1        0.1485
     10 C          -2.5121  -17.5677   22.8760 C.3     1  UNL1        0.1192
     11 C          -2.7386  -18.3410   21.6107 C.ar    1  UNL1        0.0434
     12 C          -3.5719  -19.5880   21.6328 C.ar    1  UNL1        0.0028
     13 C          -3.7983  -20.3612   20.3675 C.ar    1  UNL1        0.0206
     14 C          -3.1914  -19.8875   19.0802 C.ar    1  UNL1        0.1013
     15 N          -2.3579  -18.6405   19.0582 N.ar    1  UNL1       -0.2167
     16 C          -2.1316  -17.8673   20.3234 C.ar    1  UNL1        0.2198
     17 F          -1.2981  -16.6203   20.3013 F       1  UNL1       -0.1835
     18 C          -8.9060  -16.2278   25.0146 C.3     1  UNL1        0.0603
     19 C         -11.4239  -15.7277   19.7041 C.3     1  UNL1        0.0307
     20 C         -11.4251  -16.6709   20.8704 C.2     1  UNL1        0.0074
     21 C         -12.2697  -17.9099   20.8322 C.2     1  UNL1        0.2278
     22 N         -12.2709  -18.8530   21.9986 N.2     1  UNL1       -0.0314
     23 C         -11.4275  -18.5572   23.2032 C.2     1  UNL1        0.3716
     24 N         -11.2261  -19.2955   24.4933 N.2     1  UNL1       -0.0311
     25 C         -10.2569  -18.5127   25.3289 C.2     1  UNL1        0.2319
     26 C          -9.8595  -17.2907   24.5552 C.2     1  UNL1        0.0328
     27 C         -10.5830  -17.3182   23.2414 C.2     1  UNL1        0.0704
     28 C         -10.5818  -16.3750   22.0750 C.3     1  UNL1        0.0598
@<TRIPOS>BOND
     1    19    20    1
     2    20    21    2
     3    21    22    1
     4    22    23    2
     5    23    24    1
     6    24    25    2
     7    25    26    1
     8    26    18    1
     9    18     1    1
    10     1     2   ar
    11     2     3   ar
    12     3     4   ar
    13     4     8    1
    14     8    10    1
    15    10    11    1
    16    11    12   ar
    17    12    13   ar
    18    13    14   ar
    19    14    15   ar
    20    15    16   ar
    21    16    17    1
    22     4     5   ar
    23     5     6   ar
    24     6     7    1
    25    26    27    2
    26    27    28    1
    27    28    20    1
    28    27    23    1
    29     6     1   ar
    30    16    11   ar
    31     8     9    1
@<TRIPOS>MOLECULE
*****
 28 31 0 0 0
SMALL
GASTEIGER

@<TRIPOS>ATOM
      1 C         -11.6468   -3.6754   18.9778 C.ar    1  UNL1        0.0284
      2 C         -11.0135   -4.6531   18.0329 C.ar    1  UNL1        0.0027
      3 C         -11.4669   -6.0829   18.0177 C.ar    1  UNL1        0.0339
      4 C         -12.5537   -6.5350   18.9475 C.ar    1  UNL1        0.1311
      5 N         -13.1871   -5.5572   19.8925 N.ar    1  UNL1       -0.2035
      6 C         -12.7337   -4.1274   19.9077 C.ar    1  UNL1        0.2196
      7 F         -13.3671   -3.1498   20.8526 F       1  UNL1       -0.1835
      8 N         -13.0071   -7.9647   18.9323 N.pl3   1  UNL1       -0.3143
      9 H         -12.5697   -8.6260   19.5159 H       1  UNL1        0.1485
     10 C         -14.1269   -8.3868   18.0279 C.3     1  UNL1        0.1192
     11 C         -15.4824   -8.6800   18.5993 C.ar    1  UNL1        0.0434
     12 C         -16.2443   -7.6031   19.3133 C.ar    1  UNL1        0.0028
     13 C         -17.5999   -7.8962   19.8847 C.ar    1  UNL1        0.0206
     14 C         -18.1937   -9.2663   19.7420 C.ar    1  UNL1        0.1013
     15 N         -17.4317  -10.3432   19.0280 N.ar    1  UNL1       -0.2167
     16 C         -16.0762  -10.0500   18.4567 C.ar    1  UNL1        0.2198
     17 F         -15.3143  -11.1270   17.7426 F       1  UNL1       -0.1835
     18 C         -11.1934   -2.2457   18.9930 C.3     1  UNL1        0.0603
     19 C         -16.7031   -0.2135   19.5461 C.3     1  UNL1        0.0307
     20 C         -15.5320   -0.0651   18.6206 C.2     1  UNL1        0.0074
     21 C         -15.6298    0.8363   17.4257 C.2     1  UNL1        0.2278
     22 N         -14.4587    0.9847   16.5003 N.2     1  UNL1       -0.0314
     23 C         -13.1897    0.2316   16.7697 C.2     1  UNL1        0.3716
     24 N         -11.8802    0.1781   16.0403 N.2     1  UNL1       -0.0311
     25 C         -10.9729   -0.7564   16.7843 C.2     1  UNL1        0.2319
     26 C         -11.7218   -1.2805   17.9736 C.2     1  UNL1        0.0328
     27 C         -13.0919   -0.6698   17.9646 C.2     1  UNL1        0.0704
     28 C         -14.2630   -0.8182   18.8900 C.3     1  UNL1        0.0598
@<TRIPOS>BOND
     1    19    20    1
     2    20    21    2
     3    21    22    1
     4    22    23    2
     5    23    24    1
     6    24    25    2
     7    25    26    1
     8    26    18    1
     9    18     1    1
    10     1     2   ar
    11     2     3   ar
    12     3     4   ar
    13     4     8    1
    14     8    10    1
    15    10    11    1
    16    11    12   ar
    17    12    13   ar
    18    13    14   ar
    19    14    15   ar
    20    15    16   ar
    21    16    17    1
    22     4     5   ar
    23     5     6   ar
    24     6     7    1
    25    26    27    2
    26    27    28    1
    27    28    20    1
    28    27    23    1
    29     6     1   ar
    30    16    11   ar
    31     8     9    1
