@<TRIPOS>MOLECULE
*****
 42 47 0 0 0
SMALL
GASTEIGER

@<TRIPOS>ATOM
      1 C           8.7100   -7.6344   24.9112 C.3     1  UNL1        0.0341
      2 C           8.4696   -6.9600   26.2294 C.ar    1  UNL1        0.0137
      3 C           8.4734   -7.6253   27.5737 C.ar    1  UNL1        0.0699
      4 C           8.1893   -6.5783   28.6097 C.ar    1  UNL1        0.1149
      5 N           8.0100   -5.2661   27.9056 N.ar    1  UNL1       -0.2230
      6 N           7.7113   -3.8868   28.4140 N.ar    1  UNL1       -0.1422
      7 C           7.5859   -2.7435   27.4513 C.ar    1  UNL1        0.2211
      8 N           7.7591   -2.9794   25.9801 N.ar    1  UNL1       -0.2060
      9 C           8.0577   -4.3586   25.4717 C.ar    1  UNL1        0.1515
     10 C           8.1832   -5.5019   26.4344 C.ar    1  UNL1        0.1118
     11 N           8.7182   -9.0817   27.8361 N.am    1  UNL1       -0.2487
     12 C           7.6159  -10.0772   27.6265 C.2     1  UNL1        0.4055
     13 O           6.2687   -9.6163   27.1546 O.2     1  UNL1       -0.2261
     14 H           9.6024   -9.3842   28.1458 H       1  UNL1        0.1582
     15 O           7.8608  -11.5336   27.8889 O.3     1  UNL1       -0.4329
     16 C           6.8774  -12.3255   28.6987 C.3     1  UNL1        0.2282
     17 C           5.5319  -12.6607   28.1264 C.3     1  UNL1        0.1284
     18 C           4.2864  -12.1585   28.7947 C.3     1  UNL1        0.1616
     19 O           2.9410  -12.4937   28.2223 O.3     1  UNL1       -0.3507
     20 C           2.8411  -13.3309   26.9817 C.3     1  UNL1        0.1592
     21 C           4.0866  -13.8330   26.3135 C.3     1  UNL1        0.1012
     22 N           5.4321  -13.4979   26.8858 N.3     1  UNL1       -0.2914
     23 H           5.9481  -13.0061   26.1563 H       1  UNL1        0.1235
     24 N           8.2310   -4.5945   24.0005 N.pl3   1  UNL1       -0.2967
     25 H           8.9952   -5.1217   23.6731 H       1  UNL1        0.1537
     26 C           7.2398   -4.0270   23.0281 C.ar    1  UNL1        0.0495
     27 C           5.7703   -4.1198   23.3148 C.ar    1  UNL1        0.0162
     28 C           4.7792   -3.5523   22.3425 C.ar    1  UNL1        0.0201
     29 C           5.2574   -2.8921   21.0834 C.ar    1  UNL1        0.0798
     30 C           6.7268   -2.7993   20.7966 C.ar    1  UNL1        0.0394
     31 C           6.8992   -2.0965   19.4827 C.ar    1  UNL1        0.1216
     32 N           5.5364   -1.7549   18.9574 N.ar    1  UNL1       -0.1674
     33 N           4.5217   -2.2466   19.9467 N.ar    1  UNL1       -0.2464
     34 C           7.7180   -3.3668   21.7690 C.ar    1  UNL1        0.0177
     35 C           3.0326   -2.1158   19.8213 C.3     1  UNL1        0.1538
     36 C           2.3077   -1.0423   20.5775 C.ar    1  UNL1        0.0043
     37 C           1.0385   -0.4631   20.0264 C.ar    1  UNL1       -0.0022
     38 C           0.3136    0.6105   20.7827 C.ar    1  UNL1        0.0020
     39 C           0.8579    1.1048   22.0902 C.ar    1  UNL1        0.0296
     40 C           2.1270    0.5256   22.6413 C.ar    1  UNL1        0.1399
     41 F           2.6713    1.0200   23.9487 F       1  UNL1       -0.2042
     42 C           2.8520   -0.5479   21.8850 C.ar    1  UNL1        0.0273
@<TRIPOS>BOND
     1     1     2    1
     2     2     3   ar
     3     3    11    1
     4    11    12   am
     5    12    13    2
     6    12    15    1
     7    15    16    1
     8    17    16    1
     9    17    18    1
    10    18    19    1
    11    19    20    1
    12    20    21    1
    13    21    22    1
    14     3     4   ar
    15     4     5   ar
    16     5     6   ar
    17     6     7   ar
    18     7     8   ar
    19     8     9   ar
    20     9    24    1
    21    24    26    1
    22    26    27   ar
    23    27    28   ar
    24    28    29   ar
    25    29    30   ar
    26    30    31   ar
    27    31    32   ar
    28    32    33   ar
    29    33    35    1
    30    35    36    1
    31    36    37   ar
    32    37    38   ar
    33    38    39   ar
    34    39    40   ar
    35    40    41    1
    36    40    42   ar
    37    30    34   ar
    38     9    10   ar
    39    10     2   ar
    40    22    17    1
    41    10     5   ar
    42    34    26   ar
    43    33    29   ar
    44    42    36   ar
    45    11    14    1
    46    22    23    1
    47    24    25    1
@<TRIPOS>MOLECULE
*****
 42 47 0 0 0
SMALL
GASTEIGER

@<TRIPOS>ATOM
      1 C           6.5090   -3.3563   26.6287 C.3     1  UNL1        0.0341
      2 C           6.9340   -4.7824   26.4403 C.ar    1  UNL1        0.0137
      3 C           6.8635   -5.8673   27.4738 C.ar    1  UNL1        0.0699
      4 C           7.3901   -7.1293   26.8575 C.ar    1  UNL1        0.1149
      5 N           7.7861   -6.8245   25.4432 N.ar    1  UNL1       -0.2230
      6 N           8.3669   -7.6803   24.3568 N.ar    1  UNL1       -0.1422
      7 C           8.6658   -7.0856   23.0126 C.ar    1  UNL1        0.2211
      8 N           8.3839   -5.6351   22.7548 N.ar    1  UNL1       -0.2060
      9 C           7.8031   -4.7792   23.8411 C.ar    1  UNL1        0.1515
     10 C           7.5042   -5.3740   25.1853 C.ar    1  UNL1        0.1118
     11 N           6.3556   -5.7165   28.8771 N.am    1  UNL1       -0.2487
     12 C           7.2833   -5.2655   29.9661 C.2     1  UNL1        0.4055
     13 O           8.7190   -4.9651   29.6517 O.2     1  UNL1       -0.2261
     14 H           5.4134   -5.9136   29.0834 H       1  UNL1        0.1582
     15 O           6.7754   -5.1147   31.3694 O.3     1  UNL1       -0.4329
     16 C           6.8909   -3.7939   32.0710 C.3     1  UNL1        0.2282
     17 C           5.7901   -2.7820   31.9506 C.3     1  UNL1        0.1284
     18 C           4.7880   -2.6288   33.0563 C.3     1  UNL1        0.1616
     19 O           3.6873   -1.6170   32.9360 O.3     1  UNL1       -0.3507
     20 C           3.5887   -0.7582   31.7100 C.3     1  UNL1        0.1592
     21 C           4.5907   -0.9114   30.6044 C.3     1  UNL1        0.1012
     22 N           5.6915   -1.9233   30.7247 N.3     1  UNL1       -0.2914
     23 H           6.5709   -1.4118   30.6520 H       1  UNL1        0.1235
     24 N           7.5212   -3.3287   23.5833 N.pl3   1  UNL1       -0.2967
     25 H           7.7602   -2.6532   24.2584 H       1  UNL1        0.1537
     26 C           6.8752   -2.9074   22.2968 C.ar    1  UNL1        0.0495
     27 C           5.4026   -2.6249   22.2543 C.ar    1  UNL1        0.0162
     28 C           4.7566   -2.2036   20.9678 C.ar    1  UNL1        0.0201
     29 C           5.5831   -2.0647   19.7238 C.ar    1  UNL1        0.0798
     30 C           7.0556   -2.3471   19.7662 C.ar    1  UNL1        0.0394
     31 C           7.6098   -2.1268   18.3899 C.ar    1  UNL1        0.1216
     32 N           6.4797   -1.7082   17.4968 N.ar    1  UNL1       -0.1674
     33 N           5.2271   -1.6698   18.3211 N.ar    1  UNL1       -0.2464
     34 C           7.7017   -2.7685   21.0528 C.ar    1  UNL1        0.0177
     35 C           3.8588   -1.3012   17.8293 C.3     1  UNL1        0.1538
     36 C           3.3157    0.0737   18.0834 C.ar    1  UNL1        0.0043
     37 C           1.8439    0.2715   18.2951 C.ar    1  UNL1       -0.0022
     38 C           1.3007    1.6464   18.5493 C.ar    1  UNL1        0.0020
     39 C           2.2294    2.8236   18.5917 C.ar    1  UNL1        0.0296
     40 C           3.7011    2.6259   18.3799 C.ar    1  UNL1        0.1399
     41 F           4.6297    3.8031   18.4223 F       1  UNL1       -0.2042
     42 C           4.2443    1.2510   18.1258 C.ar    1  UNL1        0.0273
@<TRIPOS>BOND
     1     1     2    1
     2     2     3   ar
     3     3    11    1
     4    11    12   am
     5    12    13    2
     6    12    15    1
     7    15    16    1
     8    17    16    1
     9    17    18    1
    10    18    19    1
    11    19    20    1
    12    20    21    1
    13    21    22    1
    14     3     4   ar
    15     4     5   ar
    16     5     6   ar
    17     6     7   ar
    18     7     8   ar
    19     8     9   ar
    20     9    24    1
    21    24    26    1
    22    26    27   ar
    23    27    28   ar
    24    28    29   ar
    25    29    30   ar
    26    30    31   ar
    27    31    32   ar
    28    32    33   ar
    29    33    35    1
    30    35    36    1
    31    36    37   ar
    32    37    38   ar
    33    38    39   ar
    34    39    40   ar
    35    40    41    1
    36    40    42   ar
    37    30    34   ar
    38     9    10   ar
    39    10     2   ar
    40    22    17    1
    41    10     5   ar
    42    34    26   ar
    43    33    29   ar
    44    42    36   ar
    45    11    14    1
    46    22    23    1
    47    24    25    1
@<TRIPOS>MOLECULE
*****
 42 47 0 0 0
SMALL
GASTEIGER

@<TRIPOS>ATOM
      1 C           7.4534   -2.0230   25.7987 C.3     1  UNL1        0.0341
      2 C           7.0790   -3.3292   26.4341 C.ar    1  UNL1        0.0137
      3 C           6.3483   -3.5005   27.7327 C.ar    1  UNL1        0.0699
      4 C           6.1873   -4.9706   27.9836 C.ar    1  UNL1        0.1149
      5 N           6.8187   -5.7078   26.8399 N.ar    1  UNL1       -0.2230
      6 N           6.9629   -7.1718   26.5469 N.ar    1  UNL1       -0.1422
      7 C           7.6582   -7.6213   25.2961 C.ar    1  UNL1        0.2211
      8 N           8.2093   -6.6068   24.3385 N.ar    1  UNL1       -0.2060
      9 C           8.0651   -5.1429   24.6315 C.ar    1  UNL1        0.1515
     10 C           7.3698   -4.6934   25.8823 C.ar    1  UNL1        0.1118
     11 N           5.8635   -2.3957   28.6241 N.am    1  UNL1       -0.2487
     12 C           4.6718   -1.5774   28.2239 C.2     1  UNL1        0.4055
     13 O           3.9648   -1.8639   26.9323 O.2     1  UNL1       -0.2261
     14 H           6.3275   -2.2077   29.4718 H       1  UNL1        0.1582
     15 O           4.1871   -0.4726   29.1152 O.3     1  UNL1       -0.4329
     16 C           2.8414   -0.5733   29.7703 C.3     1  UNL1        0.2282
     17 C           1.6253   -0.0417   29.0713 C.3     1  UNL1        0.1284
     18 C           1.7744    0.9574   27.9624 C.3     1  UNL1        0.1616
     19 O           0.5583    1.4890   27.2634 O.3     1  UNL1       -0.3507
     20 C          -0.8068    1.0214   27.6732 C.3     1  UNL1        0.1592
     21 C          -0.9558    0.0222   28.7820 C.3     1  UNL1        0.1012
     22 N           0.2603   -0.5093   29.4811 N.3     1  UNL1       -0.2914
     23 H           0.2484   -1.5224   29.3632 H       1  UNL1        0.1235
     24 N           8.6162   -4.1284   23.6739 N.pl3   1  UNL1       -0.2967
     25 H           9.4978   -3.7228   23.8398 H       1  UNL1        0.1537
     26 C           7.8242   -3.7319   22.4634 C.ar    1  UNL1        0.0495
     27 C           6.3267   -3.8166   22.4861 C.ar    1  UNL1        0.0162
     28 C           5.5346   -3.4200   21.2756 C.ar    1  UNL1        0.0201
     29 C           6.2400   -2.9388   20.0423 C.ar    1  UNL1        0.0798
     30 C           7.7374   -2.8541   20.0195 C.ar    1  UNL1        0.0394
     31 C           8.1525   -2.3460   18.6707 C.ar    1  UNL1        0.1216
     32 N           6.9116   -2.1167   17.8598 N.ar    1  UNL1       -0.1674
     33 N           5.7296   -2.4830   18.7075 N.ar    1  UNL1       -0.2464
     34 C           8.5295   -3.2507   21.2301 C.ar    1  UNL1        0.0177
     35 C           4.2899   -2.4070   18.2931 C.3     1  UNL1        0.1538
     36 C           3.4153   -1.3078   18.8190 C.ar    1  UNL1        0.0043
     37 C           2.5130   -1.5625   19.9900 C.ar    1  UNL1       -0.0022
     38 C           1.6383   -0.4633   20.5160 C.ar    1  UNL1        0.0020
     39 C           1.6658    0.8906   19.8710 C.ar    1  UNL1        0.0296
     40 C           2.5680    1.1454   18.7001 C.ar    1  UNL1        0.1399
     41 F           2.5954    2.4993   18.0551 F       1  UNL1       -0.2042
     42 C           3.4427    0.0462   18.1741 C.ar    1  UNL1        0.0273
@<TRIPOS>BOND
     1     1     2    1
     2     2     3   ar
     3     3    11    1
     4    11    12   am
     5    12    13    2
     6    12    15    1
     7    15    16    1
     8    17    16    1
     9    17    18    1
    10    18    19    1
    11    19    20    1
    12    20    21    1
    13    21    22    1
    14     3     4   ar
    15     4     5   ar
    16     5     6   ar
    17     6     7   ar
    18     7     8   ar
    19     8     9   ar
    20     9    24    1
    21    24    26    1
    22    26    27   ar
    23    27    28   ar
    24    28    29   ar
    25    29    30   ar
    26    30    31   ar
    27    31    32   ar
    28    32    33   ar
    29    33    35    1
    30    35    36    1
    31    36    37   ar
    32    37    38   ar
    33    38    39   ar
    34    39    40   ar
    35    40    41    1
    36    40    42   ar
    37    30    34   ar
    38     9    10   ar
    39    10     2   ar
    40    22    17    1
    41    10     5   ar
    42    34    26   ar
    43    33    29   ar
    44    42    36   ar
    45    11    14    1
    46    22    23    1
    47    24    25    1
@<TRIPOS>MOLECULE
*****
 42 47 0 0 0
SMALL
GASTEIGER

@<TRIPOS>ATOM
      1 C           6.5061   -3.5349   26.2212 C.3     1  UNL1        0.0341
      2 C           6.9676   -4.9188   25.8722 C.ar    1  UNL1        0.0137
      3 C           6.9336   -6.1142   26.7778 C.ar    1  UNL1        0.0699
      4 C           7.4891   -7.2844   26.0216 C.ar    1  UNL1        0.1149
      5 N           7.8664   -6.8124   24.6487 N.ar    1  UNL1       -0.2230
      6 N           8.4619   -7.5250   23.4708 N.ar    1  UNL1       -0.1422
      7 C           8.7350   -6.7755   22.2005 C.ar    1  UNL1        0.2211
      8 N           8.4127   -5.3135   22.1082 N.ar    1  UNL1       -0.2060
      9 C           7.8172   -4.6009   23.2861 C.ar    1  UNL1        0.1515
     10 C           7.5441   -5.3504   24.5564 C.ar    1  UNL1        0.1118
     11 N           6.4321   -6.1354   28.1913 N.am    1  UNL1       -0.2487
     12 C           7.3397   -5.7317   29.3153 C.2     1  UNL1        0.4055
     13 O           8.7488   -5.3066   29.0257 O.2     1  UNL1       -0.2261
     14 H           5.5073   -6.4144   28.3814 H       1  UNL1        0.1582
     15 O           6.8382   -5.7530   30.7288 O.3     1  UNL1       -0.4329
     16 C           7.1286   -4.6013   31.6451 C.3     1  UNL1        0.2282
     17 C           6.2252   -3.4040   31.6543 C.3     1  UNL1        0.1284
     18 C           6.3109   -2.3912   30.5511 C.3     1  UNL1        0.1616
     19 O           5.4074   -1.1938   30.5604 O.3     1  UNL1       -0.3507
     20 C           4.4182   -1.0093   31.6729 C.3     1  UNL1        0.1592
     21 C           4.3325   -2.0221   32.7760 C.3     1  UNL1        0.1012
     22 N           5.2360   -3.2194   32.7668 N.3     1  UNL1       -0.2914
     23 H           4.6338   -4.0427   32.7649 H       1  UNL1        0.1235
     24 N           7.4949   -3.1388   23.1938 N.pl3   1  UNL1       -0.2967
     25 H           8.0579   -2.4802   23.6612 H       1  UNL1        0.1537
     26 C           6.3148   -2.6803   22.3894 C.ar    1  UNL1        0.0495
     27 C           4.9621   -2.5836   23.0305 C.ar    1  UNL1        0.0162
     28 C           3.7820   -2.1251   22.2261 C.ar    1  UNL1        0.0201
     29 C           3.9545   -1.7633   20.7806 C.ar    1  UNL1        0.0798
     30 C           5.3071   -1.8600   20.1396 C.ar    1  UNL1        0.0394
     31 C           5.1719   -1.4395   18.7061 C.ar    1  UNL1        0.1216
     32 N           3.7356   -1.0829   18.4613 N.ar    1  UNL1       -0.1674
     33 N           2.9832   -1.2830   19.7434 N.ar    1  UNL1       -0.2464
     34 C           6.4873   -2.3185   20.9440 C.ar    1  UNL1        0.0177
     35 C           1.5169   -1.0447   19.9517 C.3     1  UNL1        0.1538
     36 C           0.9563    0.3404   19.8211 C.ar    1  UNL1        0.0043
     37 C           1.0037    1.0472   18.4988 C.ar    1  UNL1       -0.0022
     38 C           0.4431    2.4323   18.3682 C.ar    1  UNL1        0.0020
     39 C          -0.1650    3.1107   19.5598 C.ar    1  UNL1        0.0296
     40 C          -0.2124    2.4040   20.8820 C.ar    1  UNL1        0.1399
     41 F          -0.8205    3.0825   22.0736 F       1  UNL1       -0.2042
     42 C           0.3482    1.0189   21.0127 C.ar    1  UNL1        0.0273
@<TRIPOS>BOND
     1     1     2    1
     2     2     3   ar
     3     3    11    1
     4    11    12   am
     5    12    13    2
     6    12    15    1
     7    15    16    1
     8    17    16    1
     9    17    18    1
    10    18    19    1
    11    19    20    1
    12    20    21    1
    13    21    22    1
    14     3     4   ar
    15     4     5   ar
    16     5     6   ar
    17     6     7   ar
    18     7     8   ar
    19     8     9   ar
    20     9    24    1
    21    24    26    1
    22    26    27   ar
    23    27    28   ar
    24    28    29   ar
    25    29    30   ar
    26    30    31   ar
    27    31    32   ar
    28    32    33   ar
    29    33    35    1
    30    35    36    1
    31    36    37   ar
    32    37    38   ar
    33    38    39   ar
    34    39    40   ar
    35    40    41    1
    36    40    42   ar
    37    30    34   ar
    38     9    10   ar
    39    10     2   ar
    40    22    17    1
    41    10     5   ar
    42    34    26   ar
    43    33    29   ar
    44    42    36   ar
    45    11    14    1
    46    22    23    1
    47    24    25    1
@<TRIPOS>MOLECULE
*****
 42 47 0 0 0
SMALL
GASTEIGER

@<TRIPOS>ATOM
      1 C           0.9227    3.4385   22.5666 C.3     1  UNL1        0.0341
      2 C          -0.5247    3.4230   22.1728 C.ar    1  UNL1        0.0137
      3 C          -1.0693    3.0301   20.8316 C.ar    1  UNL1        0.0699
      4 C          -2.5627    3.1619   20.8811 C.ar    1  UNL1        0.1149
      5 N          -2.9410    3.6364   22.2529 N.ar    1  UNL1       -0.2230
      6 N          -4.2696    3.9423   22.8781 N.ar    1  UNL1       -0.1422
      7 C          -4.3387    4.4096   24.3018 C.ar    1  UNL1        0.2211
      8 N          -3.0791    4.5709   25.1002 N.ar    1  UNL1       -0.2060
      9 C          -1.7505    4.2650   24.4749 C.ar    1  UNL1        0.1515
     10 C          -1.6814    3.7977   23.0512 C.ar    1  UNL1        0.1118
     11 N          -0.2623    2.5836   19.6486 N.am    1  UNL1       -0.2487
     12 C           0.1906    1.1575   19.5448 C.2     1  UNL1        0.4055
     13 O          -0.1635    0.1776   20.6240 O.2     1  UNL1       -0.2261
     14 H          -0.0299    3.2267   18.9403 H       1  UNL1        0.1582
     15 O           0.9976    0.7111   18.3618 O.3     1  UNL1       -0.4329
     16 C           2.4953    0.7822   18.4057 C.3     1  UNL1        0.2282
     17 C           3.3061   -0.4798   18.4173 C.3     1  UNL1        0.1284
     18 C           4.2654   -0.7652   17.3000 C.3     1  UNL1        0.1616
     19 O           5.0762   -2.0272   17.3117 O.3     1  UNL1       -0.3507
     20 C           4.9276   -3.0037   18.4406 C.3     1  UNL1        0.1592
     21 C           3.9683   -2.7182   19.5578 C.3     1  UNL1        0.1012
     22 N           3.1575   -1.4562   19.5462 N.3     1  UNL1       -0.2914
     23 H           3.3849   -0.9522   20.4033 H       1  UNL1        0.1235
     24 N          -0.4909    4.4263   25.2733 N.pl3   1  UNL1       -0.2967
     25 H           0.0416    5.2503   25.1914 H       1  UNL1        0.1537
     26 C          -0.0426    3.3322   26.1962 C.ar    1  UNL1        0.0495
     27 C           1.4208    3.1051   26.4352 C.ar    1  UNL1        0.0162
     28 C           1.8691    2.0110   27.3582 C.ar    1  UNL1        0.0201
     29 C           0.8540    1.1440   28.0423 C.ar    1  UNL1        0.0798
     30 C          -0.6093    1.3711   27.8034 C.ar    1  UNL1        0.0394
     31 C          -1.3727    0.3644   28.6119 C.ar    1  UNL1        0.1216
     32 N          -0.3812   -0.4848   29.3506 N.ar    1  UNL1       -0.1674
     33 N           0.9950   -0.0030   28.9985 N.ar    1  UNL1       -0.2464
     34 C          -1.0576    2.4652   26.8803 C.ar    1  UNL1        0.0177
     35 C           2.2857   -0.5689   29.5125 C.3     1  UNL1        0.1538
     36 C           2.7612   -0.2197   30.8915 C.ar    1  UNL1        0.0043
     37 C           2.3532    1.0804   31.5188 C.ar    1  UNL1       -0.0022
     38 C           2.8287    1.4297   32.8979 C.ar    1  UNL1        0.0020
     39 C           3.7124    0.4789   33.6497 C.ar    1  UNL1        0.0296
     40 C           4.1204   -0.8211   33.0224 C.ar    1  UNL1        0.1399
     41 F           5.0041   -1.7717   33.7743 F       1  UNL1       -0.2042
     42 C           3.6449   -1.1704   31.6434 C.ar    1  UNL1        0.0273
@<TRIPOS>BOND
     1     1     2    1
     2     2     3   ar
     3     3    11    1
     4    11    12   am
     5    12    13    2
     6    12    15    1
     7    15    16    1
     8    17    16    1
     9    17    18    1
    10    18    19    1
    11    19    20    1
    12    20    21    1
    13    21    22    1
    14     3     4   ar
    15     4     5   ar
    16     5     6   ar
    17     6     7   ar
    18     7     8   ar
    19     8     9   ar
    20     9    24    1
    21    24    26    1
    22    26    27   ar
    23    27    28   ar
    24    28    29   ar
    25    29    30   ar
    26    30    31   ar
    27    31    32   ar
    28    32    33   ar
    29    33    35    1
    30    35    36    1
    31    36    37   ar
    32    37    38   ar
    33    38    39   ar
    34    39    40   ar
    35    40    41    1
    36    40    42   ar
    37    30    34   ar
    38     9    10   ar
    39    10     2   ar
    40    22    17    1
    41    10     5   ar
    42    34    26   ar
    43    33    29   ar
    44    42    36   ar
    45    11    14    1
    46    22    23    1
    47    24    25    1
@<TRIPOS>MOLECULE
*****
 42 47 0 0 0
SMALL
GASTEIGER

@<TRIPOS>ATOM
      1 C           0.0279    3.1834   22.5057 C.3     1  UNL1        0.0341
      2 C          -1.1598    3.4279   21.6227 C.ar    1  UNL1        0.0137
      3 C          -2.5746    3.6221   22.0817 C.ar    1  UNL1        0.0699
      4 C          -3.4303    3.8354   20.8684 C.ar    1  UNL1        0.1149
      5 N          -2.5444    3.7730   19.6595 N.ar    1  UNL1       -0.2230
      6 N          -2.8342    3.9130   18.1945 N.ar    1  UNL1       -0.1422
      7 C          -1.7208    3.8011   17.1957 C.ar    1  UNL1        0.2211
      8 N          -0.3175    3.5492   17.6619 N.ar    1  UNL1       -0.2060
      9 C          -0.0277    3.4093   19.1269 C.ar    1  UNL1        0.1515
     10 C          -1.1411    3.5212   20.1257 C.ar    1  UNL1        0.1118
     11 N          -3.0501    3.6059   23.5042 N.am    1  UNL1       -0.2487
     12 C          -2.7865    4.7824   24.3966 C.2     1  UNL1        0.4055
     13 O          -2.0474    5.9752   23.8664 O.2     1  UNL1       -0.2261
     14 H          -3.5352    2.8231   23.8522 H       1  UNL1        0.1582
     15 O          -3.2621    4.7662   25.8191 O.3     1  UNL1       -0.4329
     16 C          -4.6054    4.1889   26.1543 C.3     1  UNL1        0.2282
     17 C          -5.8281    4.6624   25.4258 C.3     1  UNL1        0.1284
     18 C          -6.5964    5.8441   25.9390 C.3     1  UNL1        0.1616
     19 O          -7.8192    6.3176   25.2104 O.3     1  UNL1       -0.3507
     20 C          -8.2736    5.6093   23.9686 C.3     1  UNL1        0.1592
     21 C          -7.5053    4.4277   23.4555 C.3     1  UNL1        0.1012
     22 N          -6.2826    3.9542   24.1840 N.3     1  UNL1       -0.2914
     23 H          -5.5091    3.9977   23.5205 H       1  UNL1        0.1235
     24 N           1.3756    3.1574   19.5932 N.pl3   1  UNL1       -0.2967
     25 H           1.9014    3.8892   19.9898 H       1  UNL1        0.1537
     26 C           1.9779    1.7906   19.4552 C.ar    1  UNL1        0.0495
     27 C           1.7470    0.7584   20.5189 C.ar    1  UNL1        0.0162
     28 C           2.3492   -0.6084   20.3809 C.ar    1  UNL1        0.0201
     29 C           3.1823   -0.9431   19.1793 C.ar    1  UNL1        0.0798
     30 C           3.4132    0.0890   18.1156 C.ar    1  UNL1        0.0394
     31 C           4.2727   -0.5263   17.0514 C.ar    1  UNL1        0.1216
     32 N           4.5730   -1.9387   17.4573 N.ar    1  UNL1       -0.1674
     33 N           3.8991   -2.1963   18.7724 N.ar    1  UNL1       -0.2464
     34 C           2.8110    1.4559   18.2536 C.ar    1  UNL1        0.0177
     35 C           3.9357   -3.4816   19.5450 C.3     1  UNL1        0.1538
     36 C           4.9386   -3.6672   20.6448 C.ar    1  UNL1        0.0043
     37 C           4.4926   -3.6520   22.0770 C.ar    1  UNL1       -0.0022
     38 C           5.4955   -3.8376   23.1768 C.ar    1  UNL1        0.0020
     39 C           6.9445   -4.0384   22.8446 C.ar    1  UNL1        0.0296
     40 C           7.3904   -4.0536   21.4125 C.ar    1  UNL1        0.1399
     41 F           8.8393   -4.2544   21.0803 F       1  UNL1       -0.2042
     42 C           6.3875   -3.8680   20.3126 C.ar    1  UNL1        0.0273
@<TRIPOS>BOND
     1     1     2    1
     2     2     3   ar
     3     3    11    1
     4    11    12   am
     5    12    13    2
     6    12    15    1
     7    15    16    1
     8    17    16    1
     9    17    18    1
    10    18    19    1
    11    19    20    1
    12    20    21    1
    13    21    22    1
    14     3     4   ar
    15     4     5   ar
    16     5     6   ar
    17     6     7   ar
    18     7     8   ar
    19     8     9   ar
    20     9    24    1
    21    24    26    1
    22    26    27   ar
    23    27    28   ar
    24    28    29   ar
    25    29    30   ar
    26    30    31   ar
    27    31    32   ar
    28    32    33   ar
    29    33    35    1
    30    35    36    1
    31    36    37   ar
    32    37    38   ar
    33    38    39   ar
    34    39    40   ar
    35    40    41    1
    36    40    42   ar
    37    30    34   ar
    38     9    10   ar
    39    10     2   ar
    40    22    17    1
    41    10     5   ar
    42    34    26   ar
    43    33    29   ar
    44    42    36   ar
    45    11    14    1
    46    22    23    1
    47    24    25    1
@<TRIPOS>MOLECULE
*****
 42 47 0 0 0
SMALL
GASTEIGER

@<TRIPOS>ATOM
      1 C           5.5327    0.2840   28.5630 C.3     1  UNL1        0.0341
      2 C           5.6857   -0.8888   29.4855 C.ar    1  UNL1        0.0137
      3 C           5.1409   -0.9912   30.8793 C.ar    1  UNL1        0.0699
      4 C           5.5290   -2.3309   31.4314 C.ar    1  UNL1        0.1149
      5 N           6.3136   -3.0564   30.3788 N.ar    1  UNL1       -0.2230
      6 N           6.9524   -4.4134   30.3600 N.ar    1  UNL1       -0.1422
      7 C           7.6881   -4.8792   29.1386 C.ar    1  UNL1        0.2211
      8 N           7.7850   -3.9879   27.9360 N.ar    1  UNL1       -0.2060
      9 C           7.1462   -2.6309   27.9548 C.ar    1  UNL1        0.1515
     10 C           6.4105   -2.1651   29.1762 C.ar    1  UNL1        0.1118
     11 N           4.3473    0.0612   31.5953 N.am    1  UNL1       -0.2487
     12 C           2.8499    0.0603   31.5082 C.2     1  UNL1        0.4055
     13 O           2.1459   -0.9930   30.7050 O.2     1  UNL1       -0.2261
     14 H           4.8093    0.7525   32.1225 H       1  UNL1        0.1582
     15 O           2.0563    1.1127   32.2242 O.3     1  UNL1       -0.4329
     16 C           1.4288    2.2346   31.4510 C.3     1  UNL1        0.2282
     17 C           0.6410    1.9406   30.2089 C.3     1  UNL1        0.1284
     18 C           0.7921    2.8160   29.0002 C.3     1  UNL1        0.1616
     19 O           0.0043    2.5220   27.7580 O.3     1  UNL1       -0.3507
     20 C          -0.9347    1.3527   27.7246 C.3     1  UNL1        0.1592
     21 C          -1.0858    0.4774   28.9333 C.3     1  UNL1        0.1012
     22 N          -0.2979    0.7713   30.1754 N.3     1  UNL1       -0.2914
     23 H           0.2593   -0.0596   30.3742 H       1  UNL1        0.1235
     24 N           7.2431   -1.7396   26.7522 N.pl3   1  UNL1       -0.2967
     25 H           7.6454   -0.8448   26.8338 H       1  UNL1        0.1537
     26 C           6.7270   -2.2117   25.4253 C.ar    1  UNL1        0.0495
     27 C           5.2914   -1.9835   25.0546 C.ar    1  UNL1        0.0162
     28 C           4.7753   -2.4556   23.7277 C.ar    1  UNL1        0.0201
     29 C           5.6947   -3.1559   22.7714 C.ar    1  UNL1        0.0798
     30 C           7.1301   -3.3840   23.1420 C.ar    1  UNL1        0.0394
     31 C           7.7951   -4.0982   22.0029 C.ar    1  UNL1        0.1216
     32 N           6.7706   -4.3115   20.9282 N.ar    1  UNL1       -0.1674
     33 N           5.4725   -3.7291   21.4032 N.ar    1  UNL1       -0.2464
     34 C           7.6463   -2.9119   24.4690 C.ar    1  UNL1        0.0177
     35 C           4.1791   -3.7212   20.6433 C.3     1  UNL1        0.1538
     36 C           3.7371   -2.4791   19.9282 C.ar    1  UNL1        0.0043
     37 C           2.9522   -1.4312   20.6603 C.ar    1  UNL1       -0.0022
     38 C           2.5101   -0.1889   19.9452 C.ar    1  UNL1        0.0020
     39 C           2.8529    0.0054   18.4979 C.ar    1  UNL1        0.0296
     40 C           3.6377   -1.0424   17.7657 C.ar    1  UNL1        0.1399
     41 F           3.9804   -0.8479   16.3184 F       1  UNL1       -0.2042
     42 C           4.0798   -2.2846   18.4808 C.ar    1  UNL1        0.0273
@<TRIPOS>BOND
     1     1     2    1
     2     2     3   ar
     3     3    11    1
     4    11    12   am
     5    12    13    2
     6    12    15    1
     7    15    16    1
     8    17    16    1
     9    17    18    1
    10    18    19    1
    11    19    20    1
    12    20    21    1
    13    21    22    1
    14     3     4   ar
    15     4     5   ar
    16     5     6   ar
    17     6     7   ar
    18     7     8   ar
    19     8     9   ar
    20     9    24    1
    21    24    26    1
    22    26    27   ar
    23    27    28   ar
    24    28    29   ar
    25    29    30   ar
    26    30    31   ar
    27    31    32   ar
    28    32    33   ar
    29    33    35    1
    30    35    36    1
    31    36    37   ar
    32    37    38   ar
    33    38    39   ar
    34    39    40   ar
    35    40    41    1
    36    40    42   ar
    37    30    34   ar
    38     9    10   ar
    39    10     2   ar
    40    22    17    1
    41    10     5   ar
    42    34    26   ar
    43    33    29   ar
    44    42    36   ar
    45    11    14    1
    46    22    23    1
    47    24    25    1
@<TRIPOS>MOLECULE
*****
 42 47 0 0 0
SMALL
GASTEIGER

@<TRIPOS>ATOM
      1 C          -0.5514    4.1108   21.7785 C.3     1  UNL1        0.0341
      2 C          -1.8902    3.9353   21.1253 C.ar    1  UNL1        0.0137
      3 C          -3.1937    3.7108   21.8328 C.ar    1  UNL1        0.0699
      4 C          -4.2697    3.5902   20.7947 C.ar    1  UNL1        0.1149
      5 N          -3.6313    3.7401   19.4456 N.ar    1  UNL1       -0.2230
      6 N          -4.1990    3.7100   18.0576 N.ar    1  UNL1       -0.1422
      7 C          -3.2961    3.8931   16.8739 C.ar    1  UNL1        0.2211
      8 N          -1.8255    4.1063   17.0782 N.ar    1  UNL1       -0.2060
      9 C          -1.2577    4.1364   18.4663 C.ar    1  UNL1        0.1515
     10 C          -2.1606    3.9533   19.6500 C.ar    1  UNL1        0.1118
     11 N          -3.3873    3.6225   23.3176 N.am    1  UNL1       -0.2487
     12 C          -3.1863    4.8377   24.1737 C.2     1  UNL1        0.4055
     13 O          -2.7918    6.1412   23.5450 O.2     1  UNL1       -0.2261
     14 H          -3.6461    2.7670   23.7303 H       1  UNL1        0.1582
     15 O          -3.3798    4.7494   25.6586 O.3     1  UNL1       -0.4329
     16 C          -4.7121    4.3476   26.2187 C.3     1  UNL1        0.2282
     17 C          -5.9750    4.7919   25.5422 C.3     1  UNL1        0.1284
     18 C          -6.7232    5.9847   26.0594 C.3     1  UNL1        0.1616
     19 O          -7.9861    6.4291   25.3829 O.3     1  UNL1       -0.3507
     20 C          -8.5007    5.6806   24.1891 C.3     1  UNL1        0.1592
     21 C          -7.7525    4.4879   23.6719 C.3     1  UNL1        0.1012
     22 N          -6.4896    4.0436   24.3484 N.3     1  UNL1       -0.2914
     23 H          -5.7527    4.0708   23.6437 H       1  UNL1        0.1235
     24 N           0.2129    4.3497   18.6706 N.pl3   1  UNL1       -0.2967
     25 H           0.5514    5.2403   18.9185 H       1  UNL1        0.1537
     26 C           1.1678    3.2060   18.4973 C.ar    1  UNL1        0.0495
     27 C           0.6481    1.8015   18.4115 C.ar    1  UNL1        0.0162
     28 C           1.6030    0.6578   18.2381 C.ar    1  UNL1        0.0201
     29 C           3.0776    0.9185   18.1506 C.ar    1  UNL1        0.0798
     30 C           3.5973    2.3230   18.2364 C.ar    1  UNL1        0.0394
     31 C           5.0918    2.2722   18.1197 C.ar    1  UNL1        0.1216
     32 N           5.4959    0.8363   17.9618 N.ar    1  UNL1       -0.1674
     33 N           4.2510   -0.0003   17.9808 N.ar    1  UNL1       -0.2464
     34 C           2.6424    3.4668   18.4098 C.ar    1  UNL1        0.0177
     35 C           4.1902   -1.4937   17.8527 C.3     1  UNL1        0.1538
     36 C           4.2341   -2.3541   19.0805 C.ar    1  UNL1        0.0043
     37 C           4.8234   -1.8180   20.3514 C.ar    1  UNL1       -0.0022
     38 C           4.8673   -2.6784   21.5793 C.ar    1  UNL1        0.0020
     39 C           4.3218   -4.0751   21.5363 C.ar    1  UNL1        0.0296
     40 C           3.7324   -4.6112   20.2654 C.ar    1  UNL1        0.1399
     41 F           3.1869   -6.0078   20.2224 F       1  UNL1       -0.2042
     42 C           3.6885   -3.7507   19.0375 C.ar    1  UNL1        0.0273
@<TRIPOS>BOND
     1     1     2    1
     2     2     3   ar
     3     3    11    1
     4    11    12   am
     5    12    13    2
     6    12    15    1
     7    15    16    1
     8    17    16    1
     9    17    18    1
    10    18    19    1
    11    19    20    1
    12    20    21    1
    13    21    22    1
    14     3     4   ar
    15     4     5   ar
    16     5     6   ar
    17     6     7   ar
    18     7     8   ar
    19     8     9   ar
    20     9    24    1
    21    24    26    1
    22    26    27   ar
    23    27    28   ar
    24    28    29   ar
    25    29    30   ar
    26    30    31   ar
    27    31    32   ar
    28    32    33   ar
    29    33    35    1
    30    35    36    1
    31    36    37   ar
    32    37    38   ar
    33    38    39   ar
    34    39    40   ar
    35    40    41    1
    36    40    42   ar
    37    30    34   ar
    38     9    10   ar
    39    10     2   ar
    40    22    17    1
    41    10     5   ar
    42    34    26   ar
    43    33    29   ar
    44    42    36   ar
    45    11    14    1
    46    22    23    1
    47    24    25    1
@<TRIPOS>MOLECULE
*****
 42 47 0 0 0
SMALL
GASTEIGER

@<TRIPOS>ATOM
      1 C           4.8202   -3.9149   22.6259 C.3     1  UNL1        0.0341
      2 C           6.0259   -3.5871   21.7960 C.ar    1  UNL1        0.0137
      3 C           7.4488   -3.9138   22.1406 C.ar    1  UNL1        0.0699
      4 C           8.3227   -3.4037   21.0334 C.ar    1  UNL1        0.1149
      5 N           7.4400   -2.7617   20.0044 N.ar    1  UNL1       -0.2230
      6 N           7.7454   -2.0886   18.6992 N.ar    1  UNL1       -0.1422
      7 C           6.6313   -1.5288   17.8654 C.ar    1  UNL1        0.2211
      8 N           5.2118   -1.6422   18.3367 N.ar    1  UNL1       -0.2060
      9 C           4.9064   -2.3153   19.6419 C.ar    1  UNL1        0.1515
     10 C           6.0205   -2.8751   20.4758 C.ar    1  UNL1        0.1118
     11 N           7.9157   -4.6256   23.3757 N.am    1  UNL1       -0.2487
     12 C           8.4132   -6.0378   23.2846 C.2     1  UNL1        0.4055
     13 O           8.4437   -6.7382   21.9584 O.2     1  UNL1       -0.2261
     14 H           7.8957   -4.1660   24.2460 H       1  UNL1        0.1582
     15 O           8.8801   -6.7496   24.5196 O.3     1  UNL1       -0.4329
     16 C           7.8849   -7.4159   25.4228 C.3     1  UNL1        0.2282
     17 C           7.5157   -6.7803   26.7304 C.3     1  UNL1        0.1284
     18 C           8.1878   -7.2238   27.9960 C.3     1  UNL1        0.1616
     19 O           7.8186   -6.5883   29.3036 O.3     1  UNL1       -0.3507
     20 C           6.7774   -5.5093   29.3456 C.3     1  UNL1        0.1592
     21 C           6.1053   -5.0659   28.0800 C.3     1  UNL1        0.1012
     22 N           6.4745   -5.7014   26.7724 N.3     1  UNL1       -0.2914
     23 H           6.8022   -4.9521   26.1630 H       1  UNL1        0.1235
     24 N           3.4869   -2.4287   20.1133 N.pl3   1  UNL1       -0.2967
     25 H           2.9940   -3.2723   19.9925 H       1  UNL1        0.1537
     26 C           2.8183   -1.2567   20.7686 C.ar    1  UNL1        0.0495
     27 C           3.3375   -0.7304   22.0738 C.ar    1  UNL1        0.0162
     28 C           2.6690    0.4416   22.7291 C.ar    1  UNL1        0.0201
     29 C           1.4813    1.0874   22.0792 C.ar    1  UNL1        0.0798
     30 C           0.9621    0.5612   20.7741 C.ar    1  UNL1        0.0394
     31 C          -0.2176    1.3966   20.3737 C.ar    1  UNL1        0.1216
     32 N          -0.4275    2.4393   21.4315 N.ar    1  UNL1       -0.1674
     33 N           0.6224    2.2481   22.4855 N.ar    1  UNL1       -0.2464
     34 C           1.6306   -0.6109   20.1187 C.ar    1  UNL1        0.0177
     35 C           0.7850    3.0729   23.7279 C.3     1  UNL1        0.1538
     36 C           0.2118    2.5918   25.0278 C.ar    1  UNL1        0.0043
     37 C          -1.1230    3.0955   25.4911 C.ar    1  UNL1       -0.0022
     38 C          -1.6963    2.6144   26.7910 C.ar    1  UNL1        0.0020
     39 C          -0.9347    1.6296   27.6278 C.ar    1  UNL1        0.0296
     40 C           0.4001    1.1259   27.1645 C.ar    1  UNL1        0.1399
     41 F           1.1616    0.1411   28.0013 F       1  UNL1       -0.2042
     42 C           0.9734    1.6070   25.8646 C.ar    1  UNL1        0.0273
@<TRIPOS>BOND
     1     1     2    1
     2     2     3   ar
     3     3    11    1
     4    11    12   am
     5    12    13    2
     6    12    15    1
     7    15    16    1
     8    17    16    1
     9    17    18    1
    10    18    19    1
    11    19    20    1
    12    20    21    1
    13    21    22    1
    14     3     4   ar
    15     4     5   ar
    16     5     6   ar
    17     6     7   ar
    18     7     8   ar
    19     8     9   ar
    20     9    24    1
    21    24    26    1
    22    26    27   ar
    23    27    28   ar
    24    28    29   ar
    25    29    30   ar
    26    30    31   ar
    27    31    32   ar
    28    32    33   ar
    29    33    35    1
    30    35    36    1
    31    36    37   ar
    32    37    38   ar
    33    38    39   ar
    34    39    40   ar
    35    40    41    1
    36    40    42   ar
    37    30    34   ar
    38     9    10   ar
    39    10     2   ar
    40    22    17    1
    41    10     5   ar
    42    34    26   ar
    43    33    29   ar
    44    42    36   ar
    45    11    14    1
    46    22    23    1
    47    24    25    1
