@<TRIPOS>MOLECULE
*****
 32 35 0 0 0
SMALL
GASTEIGER

@<TRIPOS>ATOM
      1 C           3.8699    1.2358   35.0552 C.ar    1  UNL1        0.0277
      2 S           4.5700    0.0466   34.4673 S.2     1  UNL1       -0.0677
      3 C           4.0608   -0.1470   33.0697 C.ar    1  UNL1        0.1200
      4 C           3.0459    0.9225   32.7939 C.ar    1  UNL1        0.0887
      5 C           2.9279    1.7771   34.0210 C.ar    1  UNL1       -0.0042
      6 C           2.0263    2.9646   34.1849 C.3     1  UNL1        0.0323
      7 C           4.4869    2.8890   39.1948 C.ar    1  UNL1        0.1724
      8 C           5.6274    2.8603   38.2210 C.ar    1  UNL1        0.0401
      9 C           5.4217    2.3092   36.8411 C.ar    1  UNL1        0.0038
     10 C           4.0755    1.7869   36.4351 C.ar    1  UNL1        0.0090
     11 C           2.9350    1.8156   37.4089 C.ar    1  UNL1        0.0405
     12 C           3.1407    2.3667   38.7888 C.ar    1  UNL1        0.1724
     13 C           4.2549    4.8382   40.8968 C.3     1  UNL1        0.2526
     14 O           4.6926    3.4401   40.5747 O.3     1  UNL1       -0.4684
     15 O           2.0001    2.3954   39.7626 O.3     1  UNL1       -0.4684
     16 C           0.8243    1.4848   39.5675 C.3     1  UNL1        0.2526
     17 N           4.4909   -1.2215   32.1156 N.2     1  UNL1       -0.2366
     18 C           5.8261   -1.8839   32.2844 C.2     1  UNL1        0.0994
     19 C           6.2563   -2.9584   31.3303 C.ar    1  UNL1        0.0192
     20 C           6.2873   -2.6837   29.8558 C.ar    1  UNL1        0.0015
     21 C           6.7174   -3.7582   28.9017 C.ar    1  UNL1        0.0000
     22 C           7.1165   -5.1073   29.4219 C.ar    1  UNL1        0.0000
     23 C           7.0855   -5.3819   30.8962 C.ar    1  UNL1        0.0000
     24 C           6.6554   -4.3074   31.8504 C.ar    1  UNL1        0.0015
     25 C           7.5467   -6.1818   28.4677 C.ar    1  UNL1        0.0000
     26 C           6.8983   -6.2911   27.1195 C.ar    1  UNL1        0.0000
     27 C           7.3285   -7.3657   26.1653 C.ar    1  UNL1        0.0000
     28 C           8.4069   -8.3308   26.5593 C.ar    1  UNL1        0.0000
     29 C           9.0552   -8.2215   27.9076 C.ar    1  UNL1        0.0000
     30 C           8.6252   -7.1470   28.8618 C.ar    1  UNL1        0.0000
     31 C           2.2830    1.1054   31.5154 C.1     1  UNL1        0.1022
     32 N           1.5201    1.2883   30.2369 N.1     1  UNL1       -0.1908
@<TRIPOS>BOND
     1    13    14    1
     2    14     7    1
     3     7     8   ar
     4     8     9   ar
     5     9    10   ar
     6    10     1    1
     7     1     2   ar
     8     2     3   ar
     9     3    17    1
    10    17    18    2
    11    18    19    1
    12    19    20   ar
    13    20    21   ar
    14    21    22   ar
    15    22    25    1
    16    25    26   ar
    17    26    27   ar
    18    27    28   ar
    19    28    29   ar
    20    29    30   ar
    21    22    23   ar
    22    23    24   ar
    23     3     4   ar
    24     4    31    1
    25    31    32    3
    26     4     5   ar
    27     5     6    1
    28    10    11   ar
    29    11    12   ar
    30    12    15    1
    31    15    16    1
    32    12     7   ar
    33     5     1   ar
    34    24    19   ar
    35    30    25   ar
@<TRIPOS>MOLECULE
*****
 32 35 0 0 0
SMALL
GASTEIGER

@<TRIPOS>ATOM
      1 C           4.1472    0.6482   34.7117 C.ar    1  UNL1        0.0277
      2 S           4.8246   -0.5041   34.0311 S.2     1  UNL1       -0.0677
      3 C           4.2552   -0.6259   32.6488 C.ar    1  UNL1        0.1200
      4 C           3.2257    0.4512   32.4750 C.ar    1  UNL1        0.0887
      5 C           3.1590    1.2386   33.7500 C.ar    1  UNL1       -0.0042
      6 C           2.2616    2.4106   34.0165 C.3     1  UNL1        0.0323
      7 C           4.9402    2.0821   38.9028 C.ar    1  UNL1        0.1724
      8 C           5.9739    2.2801   37.8342 C.ar    1  UNL1        0.0401
      9 C           5.7096    1.8022   36.4371 C.ar    1  UNL1        0.0038
     10 C           4.4115    1.1262   36.1088 C.ar    1  UNL1        0.0090
     11 C           3.3778    0.9281   37.1774 C.ar    1  UNL1        0.0405
     12 C           3.6421    1.4060   38.5744 C.ar    1  UNL1        0.1724
     13 C           5.2949    4.0298   40.5851 C.3     1  UNL1        0.2526
     14 O           5.2045    2.5600   40.2998 O.3     1  UNL1       -0.4684
     15 O           2.6082    1.2079   39.6431 O.3     1  UNL1       -0.4684
     16 C           1.3934    0.3730   39.3658 C.3     1  UNL1        0.2526
     17 N           4.6464   -1.6456   31.6207 N.2     1  UNL1       -0.2366
     18 C           5.8255   -1.3961   30.7276 C.2     1  UNL1        0.0994
     19 C           6.2167   -2.4158   29.6995 C.ar    1  UNL1        0.0192
     20 C           6.5554   -3.8149   30.1219 C.ar    1  UNL1        0.0015
     21 C           6.9467   -4.8346   29.0938 C.ar    1  UNL1        0.0000
     22 C           6.9993   -4.4555   27.6435 C.ar    1  UNL1        0.0000
     23 C           6.6607   -3.0566   27.2212 C.ar    1  UNL1        0.0000
     24 C           6.2694   -2.0367   28.2493 C.ar    1  UNL1        0.0015
     25 C           7.3906   -5.4753   26.6154 C.ar    1  UNL1        0.0000
     26 C           7.6433   -6.8956   27.0262 C.ar    1  UNL1        0.0000
     27 C           8.0346   -7.9154   25.9981 C.ar    1  UNL1        0.0000
     28 C           8.1731   -7.5149   24.5593 C.ar    1  UNL1        0.0000
     29 C           7.9203   -6.0945   24.1485 C.ar    1  UNL1        0.0000
     30 C           7.5291   -5.0747   25.1765 C.ar    1  UNL1        0.0000
     31 C           2.4068    0.6976   31.2427 C.1     1  UNL1        0.1022
     32 N           1.5878    0.9440   30.0104 N.1     1  UNL1       -0.1908
@<TRIPOS>BOND
     1    13    14    1
     2    14     7    1
     3     7     8   ar
     4     8     9   ar
     5     9    10   ar
     6    10     1    1
     7     1     2   ar
     8     2     3   ar
     9     3    17    1
    10    17    18    2
    11    18    19    1
    12    19    20   ar
    13    20    21   ar
    14    21    22   ar
    15    22    25    1
    16    25    26   ar
    17    26    27   ar
    18    27    28   ar
    19    28    29   ar
    20    29    30   ar
    21    22    23   ar
    22    23    24   ar
    23     3     4   ar
    24     4    31    1
    25    31    32    3
    26     4     5   ar
    27     5     6    1
    28    10    11   ar
    29    11    12   ar
    30    12    15    1
    31    15    16    1
    32    12     7   ar
    33     5     1   ar
    34    24    19   ar
    35    30    25   ar
@<TRIPOS>MOLECULE
*****
 32 35 0 0 0
SMALL
GASTEIGER

@<TRIPOS>ATOM
      1 C          -5.2813    4.7289   22.2272 C.ar    1  UNL1        0.0277
      2 S          -4.2008    3.6916   22.3086 S.2     1  UNL1       -0.0677
      3 C          -3.6864    3.4482   20.9208 C.ar    1  UNL1        0.1200
      4 C          -4.4489    4.3350   19.9816 C.ar    1  UNL1        0.0887
      5 C          -5.4346    5.1265   20.7891 C.ar    1  UNL1       -0.0042
      6 C          -6.4036    6.1380   20.2525 C.3     1  UNL1        0.0323
      7 C          -7.6473    6.3611   25.6896 C.ar    1  UNL1        0.1724
      8 C          -6.1536    6.4974   25.6712 C.ar    1  UNL1        0.0401
      9 C          -5.3650    5.9533   24.5171 C.ar    1  UNL1        0.0038
     10 C          -6.0699    5.2729   23.3814 C.ar    1  UNL1        0.0090
     11 C          -7.5636    5.1366   23.3997 C.ar    1  UNL1        0.0405
     12 C          -8.3522    5.6807   24.5538 C.ar    1  UNL1        0.1724
     13 C          -7.7468    7.2322   28.1352 C.3     1  UNL1        0.2526
     14 O          -8.4359    6.9052   26.8437 O.3     1  UNL1       -0.4684
     15 O          -9.8460    5.5443   24.5722 O.3     1  UNL1       -0.4684
     16 C         -10.7119    6.7633   24.4528 C.3     1  UNL1        0.2526
     17 N          -2.6001    2.4868   20.5391 N.2     1  UNL1       -0.2366
     18 C          -1.1714    2.9427   20.5095 C.2     1  UNL1        0.0994
     19 C          -0.0851    1.9813   20.1279 C.ar    1  UNL1        0.0192
     20 C           0.7203    2.2149   18.8840 C.ar    1  UNL1        0.0015
     21 C           1.8065    1.2534   18.5024 C.ar    1  UNL1        0.0000
     22 C           2.0875    0.0585   19.3644 C.ar    1  UNL1        0.0000
     23 C           1.2822   -0.1751   20.6082 C.ar    1  UNL1        0.0000
     24 C           0.1958    0.7864   20.9899 C.ar    1  UNL1        0.0015
     25 C           3.1738   -0.9029   18.9828 C.ar    1  UNL1        0.0000
     26 C           3.1841   -2.2890   19.5562 C.ar    1  UNL1        0.0000
     27 C           4.2704   -3.2505   19.1746 C.ar    1  UNL1        0.0000
     28 C           5.3463   -2.8259   18.2196 C.ar    1  UNL1        0.0000
     29 C           5.3359   -1.4398   17.6461 C.ar    1  UNL1        0.0000
     30 C           4.2497   -0.4784   18.0277 C.ar    1  UNL1        0.0000
     31 C          -4.2592    4.4161   18.4959 C.1     1  UNL1        0.1022
     32 N          -4.0694    4.4972   17.0102 N.1     1  UNL1       -0.1908
@<TRIPOS>BOND
     1    13    14    1
     2    14     7    1
     3     7     8   ar
     4     8     9   ar
     5     9    10   ar
     6    10     1    1
     7     1     2   ar
     8     2     3   ar
     9     3    17    1
    10    17    18    2
    11    18    19    1
    12    19    20   ar
    13    20    21   ar
    14    21    22   ar
    15    22    25    1
    16    25    26   ar
    17    26    27   ar
    18    27    28   ar
    19    28    29   ar
    20    29    30   ar
    21    22    23   ar
    22    23    24   ar
    23     3     4   ar
    24     4    31    1
    25    31    32    3
    26     4     5   ar
    27     5     6    1
    28    10    11   ar
    29    11    12   ar
    30    12    15    1
    31    15    16    1
    32    12     7   ar
    33     5     1   ar
    34    24    19   ar
    35    30    25   ar
@<TRIPOS>MOLECULE
*****
 32 35 0 0 0
SMALL
GASTEIGER

@<TRIPOS>ATOM
      1 C           2.9277    0.2833   31.5129 C.ar    1  UNL1        0.0277
      2 S           3.4484   -0.5404   30.3726 S.2     1  UNL1       -0.0677
      3 C           2.6046   -0.2492   29.1671 C.ar    1  UNL1        0.1200
      4 C           1.5624    0.7546   29.5623 C.ar    1  UNL1        0.0887
      5 C           1.7621    1.0837   31.0121 C.ar    1  UNL1       -0.0042
      6 C           0.9404    2.0445   31.8194 C.3     1  UNL1        0.0323
      7 C           4.5733    0.3430   35.7008 C.ar    1  UNL1        0.1724
      8 C           4.7152   -0.8888   34.8567 C.ar    1  UNL1        0.0401
      9 C           4.1666   -0.9087   33.4607 C.ar    1  UNL1        0.0038
     10 C           3.4762    0.3032   32.9089 C.ar    1  UNL1        0.0090
     11 C           3.3344    1.5350   33.7529 C.ar    1  UNL1        0.0405
     12 C           3.8830    1.5549   35.1489 C.ar    1  UNL1        0.1724
     13 C           6.4255    1.0485   37.3806 C.3     1  UNL1        0.2526
     14 O           5.1219    0.3629   37.0967 O.3     1  UNL1       -0.4684
     15 O           3.7411    2.7868   35.9930 O.3     1  UNL1       -0.4684
     16 C           2.6217    2.8908   36.9859 C.3     1  UNL1        0.2526
     17 N           2.7734   -0.8553   27.8054 N.2     1  UNL1       -0.2366
     18 C           3.3942   -0.0541   26.6996 C.2     1  UNL1        0.0994
     19 C           3.5630   -0.6603   25.3380 C.ar    1  UNL1        0.0192
     20 C           2.7465   -0.1548   24.1855 C.ar    1  UNL1        0.0015
     21 C           2.9153   -0.7609   22.8239 C.ar    1  UNL1        0.0000
     22 C           3.9005   -1.8724   22.6146 C.ar    1  UNL1        0.0000
     23 C           4.7170   -2.3778   23.7670 C.ar    1  UNL1        0.0000
     24 C           4.5482   -1.7717   25.1287 C.ar    1  UNL1        0.0015
     25 C           4.0694   -2.4785   21.2529 C.ar    1  UNL1        0.0000
     26 C           3.7398   -1.6766   20.0289 C.ar    1  UNL1        0.0000
     27 C           3.9087   -2.2827   18.6672 C.ar    1  UNL1        0.0000
     28 C           4.4070   -3.6907   18.5296 C.ar    1  UNL1        0.0000
     29 C           4.7365   -4.4927   19.7537 C.ar    1  UNL1        0.0000
     30 C           4.5677   -3.8866   21.1153 C.ar    1  UNL1        0.0000
     31 C           0.5061    1.3286   28.6653 C.1     1  UNL1        0.1022
     32 N          -0.5503    1.9025   27.7683 N.1     1  UNL1       -0.1908
@<TRIPOS>BOND
     1    13    14    1
     2    14     7    1
     3     7     8   ar
     4     8     9   ar
     5     9    10   ar
     6    10     1    1
     7     1     2   ar
     8     2     3   ar
     9     3    17    1
    10    17    18    2
    11    18    19    1
    12    19    20   ar
    13    20    21   ar
    14    21    22   ar
    15    22    25    1
    16    25    26   ar
    17    26    27   ar
    18    27    28   ar
    19    28    29   ar
    20    29    30   ar
    21    22    23   ar
    22    23    24   ar
    23     3     4   ar
    24     4    31    1
    25    31    32    3
    26     4     5   ar
    27     5     6    1
    28    10    11   ar
    29    11    12   ar
    30    12    15    1
    31    15    16    1
    32    12     7   ar
    33     5     1   ar
    34    24    19   ar
    35    30    25   ar
@<TRIPOS>MOLECULE
*****
 32 35 0 0 0
SMALL
GASTEIGER

@<TRIPOS>ATOM
      1 C           3.6523    1.3596   34.5353 C.ar    1  UNL1        0.0277
      2 S           2.4288    1.8732   33.8359 S.2     1  UNL1       -0.0677
      3 C           2.4366    1.3376   32.4348 C.ar    1  UNL1        0.1200
      4 C           3.6650    0.4929   32.2682 C.ar    1  UNL1        0.0887
      5 C           4.4163    0.5066   33.5664 C.ar    1  UNL1       -0.0042
      6 C           5.7054   -0.2075   33.8466 C.3     1  UNL1        0.0323
      7 C           4.8251    2.2258   38.7926 C.ar    1  UNL1        0.1724
      8 C           5.6355    2.7875   37.6623 C.ar    1  UNL1        0.0401
      9 C           5.2446    2.4988   36.2432 C.ar    1  UNL1        0.0038
     10 C           4.0433    1.6483   35.9544 C.ar    1  UNL1        0.0090
     11 C           3.2329    1.0866   37.0847 C.ar    1  UNL1        0.0405
     12 C           3.6238    1.3753   38.5038 C.ar    1  UNL1        0.1724
     13 C           6.5142    3.2058   40.5061 C.3     1  UNL1        0.2526
     14 O           5.2160    2.5145   40.2116 O.3     1  UNL1       -0.4684
     15 O           2.8133    0.8135   39.6341 O.3     1  UNL1       -0.4684
     16 C           1.3752    0.4470   39.4161 C.3     1  UNL1        0.2526
     17 N           1.3983    1.6004   31.3846 N.2     1  UNL1       -0.2366
     18 C           1.7446    2.4183   30.1758 C.2     1  UNL1        0.0994
     19 C           0.7063    2.6811   29.1256 C.ar    1  UNL1        0.0192
     20 C           0.4259    4.0869   28.6835 C.ar    1  UNL1        0.0015
     21 C          -0.6124    4.3498   27.6333 C.ar    1  UNL1        0.0000
     22 C          -1.3703    3.2071   27.0253 C.ar    1  UNL1        0.0000
     23 C          -1.0899    1.8014   27.4674 C.ar    1  UNL1        0.0000
     24 C          -0.0516    1.5384   28.5176 C.ar    1  UNL1        0.0015
     25 C          -2.4086    3.4699   25.9751 C.ar    1  UNL1        0.0000
     26 C          -3.8226    3.7688   26.3767 C.ar    1  UNL1        0.0000
     27 C          -4.8609    4.0317   25.3266 C.ar    1  UNL1        0.0000
     28 C          -4.4852    3.9957   23.8749 C.ar    1  UNL1        0.0000
     29 C          -3.0712    3.6969   23.4733 C.ar    1  UNL1        0.0000
     30 C          -2.0329    3.4340   24.5234 C.ar    1  UNL1        0.0000
     31 C           4.0707   -0.2371   31.0223 C.1     1  UNL1        0.1022
     32 N           4.4765   -0.9672   29.7764 N.1     1  UNL1       -0.1908
@<TRIPOS>BOND
     1    13    14    1
     2    14     7    1
     3     7     8   ar
     4     8     9   ar
     5     9    10   ar
     6    10     1    1
     7     1     2   ar
     8     2     3   ar
     9     3    17    1
    10    17    18    2
    11    18    19    1
    12    19    20   ar
    13    20    21   ar
    14    21    22   ar
    15    22    25    1
    16    25    26   ar
    17    26    27   ar
    18    27    28   ar
    19    28    29   ar
    20    29    30   ar
    21    22    23   ar
    22    23    24   ar
    23     3     4   ar
    24     4    31    1
    25    31    32    3
    26     4     5   ar
    27     5     6    1
    28    10    11   ar
    29    11    12   ar
    30    12    15    1
    31    15    16    1
    32    12     7   ar
    33     5     1   ar
    34    24    19   ar
    35    30    25   ar
@<TRIPOS>MOLECULE
*****
 32 35 0 0 0
SMALL
GASTEIGER

@<TRIPOS>ATOM
      1 C           7.2159   -4.4200   22.8638 C.ar    1  UNL1        0.0277
      2 S           6.0584   -3.4786   23.0183 S.2     1  UNL1       -0.0677
      3 C           5.9241   -2.6963   21.7455 C.ar    1  UNL1        0.1200
      4 C           6.9986   -3.1541   20.8044 C.ar    1  UNL1        0.0887
      5 C           7.7970   -4.2195   21.4956 C.ar    1  UNL1       -0.0042
      6 C           8.9705   -4.9551   20.9196 C.3     1  UNL1        0.0323
      7 C           8.6868   -7.3342   25.9612 C.ar    1  UNL1        0.1724
      8 C           8.8781   -7.6293   24.5031 C.ar    1  UNL1        0.0401
      9 C           8.3878   -6.6580   23.4706 C.ar    1  UNL1        0.0038
     10 C           7.7062   -5.3914   23.8963 C.ar    1  UNL1        0.0090
     11 C           7.5149   -5.0962   25.3544 C.ar    1  UNL1        0.0405
     12 C           8.0053   -6.0676   26.3869 C.ar    1  UNL1        0.1724
     13 C           8.2256   -9.2859   27.6129 C.3     1  UNL1        0.2526
     14 O           9.1772   -8.3056   26.9937 O.3     1  UNL1       -0.4684
     15 O           7.8140   -5.7724   27.8451 O.3     1  UNL1       -0.4684
     16 C           6.4572   -5.3964   28.3625 C.3     1  UNL1        0.2526
     17 N           4.8958   -1.6413   21.4634 N.2     1  UNL1       -0.2366
     18 C           4.0378   -1.7392   20.2369 C.2     1  UNL1        0.0994
     19 C           3.0095   -0.6842   19.9548 C.ar    1  UNL1        0.0192
     20 C           1.6156   -0.8337   20.4887 C.ar    1  UNL1        0.0015
     21 C           0.5873    0.2213   20.2066 C.ar    1  UNL1        0.0000
     22 C           0.9528    1.4257   19.3907 C.ar    1  UNL1        0.0000
     23 C           2.3466    1.5752   18.8569 C.ar    1  UNL1        0.0000
     24 C           3.3750    0.5202   19.1389 C.ar    1  UNL1        0.0015
     25 C          -0.0755    2.4807   19.1086 C.ar    1  UNL1        0.0000
     26 C          -0.1206    3.1435   17.7637 C.ar    1  UNL1        0.0000
     27 C          -1.1489    4.1985   17.4816 C.ar    1  UNL1        0.0000
     28 C          -2.1320    4.5907   18.5443 C.ar    1  UNL1        0.0000
     29 C          -2.0869    3.9279   19.8892 C.ar    1  UNL1        0.0000
     30 C          -1.0587    2.8730   20.1714 C.ar    1  UNL1        0.0000
     31 C           7.2336   -2.6374   19.4160 C.1     1  UNL1        0.1022
     32 N           7.4686   -2.1207   18.0275 N.1     1  UNL1       -0.1908
@<TRIPOS>BOND
     1    13    14    1
     2    14     7    1
     3     7     8   ar
     4     8     9   ar
     5     9    10   ar
     6    10     1    1
     7     1     2   ar
     8     2     3   ar
     9     3    17    1
    10    17    18    2
    11    18    19    1
    12    19    20   ar
    13    20    21   ar
    14    21    22   ar
    15    22    25    1
    16    25    26   ar
    17    26    27   ar
    18    27    28   ar
    19    28    29   ar
    20    29    30   ar
    21    22    23   ar
    22    23    24   ar
    23     3     4   ar
    24     4    31    1
    25    31    32    3
    26     4     5   ar
    27     5     6    1
    28    10    11   ar
    29    11    12   ar
    30    12    15    1
    31    15    16    1
    32    12     7   ar
    33     5     1   ar
    34    24    19   ar
    35    30    25   ar
@<TRIPOS>MOLECULE
*****
 32 35 0 0 0
SMALL
GASTEIGER

@<TRIPOS>ATOM
      1 C           5.9873   -2.0845   31.1431 C.ar    1  UNL1        0.0277
      2 S           5.5256   -1.3817   29.9010 S.2     1  UNL1       -0.0677
      3 C           5.7944   -2.2820   28.7317 C.ar    1  UNL1        0.1200
      4 C           6.4223   -3.5413   29.2512 C.ar    1  UNL1        0.0887
      5 C           6.5415   -3.4193   30.7414 C.ar    1  UNL1       -0.0042
      6 C           7.1144   -4.4509   31.6675 C.3     1  UNL1        0.0323
      7 C           5.7515   -0.4720   35.3376 C.ar    1  UNL1        0.1724
      8 C           4.5856   -1.2121   34.7520 C.ar    1  UNL1        0.0401
      9 C           4.6643   -1.7496   33.3538 C.ar    1  UNL1        0.0038
     10 C           5.9087   -1.5470   32.5413 C.ar    1  UNL1        0.0090
     11 C           7.0745   -0.8069   33.1269 C.ar    1  UNL1        0.0405
     12 C           6.9959   -0.2694   34.5251 C.ar    1  UNL1        0.1724
     13 C           5.2495    1.4851   36.9709 C.3     1  UNL1        0.2526
     14 O           5.6728    0.0655   36.7358 O.3     1  UNL1       -0.4684
     15 O           8.1618    0.4708   35.1107 O.3     1  UNL1       -0.4684
     16 C           8.4024    1.9044   34.7410 C.3     1  UNL1        0.2526
     17 N           5.4889   -1.9766   27.2953 N.2     1  UNL1       -0.2366
     18 C           4.1027   -1.5676   26.8939 C.2     1  UNL1        0.0994
     19 C           3.7973   -1.2622   25.4574 C.ar    1  UNL1        0.0192
     20 C           2.8567   -0.1459   25.1116 C.ar    1  UNL1        0.0015
     21 C           2.5512    0.1595   23.6752 C.ar    1  UNL1        0.0000
     22 C           3.1863   -0.6513   22.5845 C.ar    1  UNL1        0.0000
     23 C           4.1268   -1.7674   22.9304 C.ar    1  UNL1        0.0000
     24 C           4.4323   -2.0729   24.3669 C.ar    1  UNL1        0.0015
     25 C           2.8808   -0.3459   21.1481 C.ar    1  UNL1        0.0000
     26 C           3.9848   -0.3342   20.1327 C.ar    1  UNL1        0.0000
     27 C           3.6794   -0.0288   18.6961 C.ar    1  UNL1        0.0000
     28 C           2.2700    0.2649   18.2751 C.ar    1  UNL1        0.0000
     29 C           1.1660    0.2533   19.2906 C.ar    1  UNL1        0.0000
     30 C           1.4714   -0.0521   20.7271 C.ar    1  UNL1        0.0000
     31 C           6.8550   -4.7164   28.4254 C.1     1  UNL1        0.1022
     32 N           7.2877   -5.8915   27.5996 N.1     1  UNL1       -0.1908
@<TRIPOS>BOND
     1    13    14    1
     2    14     7    1
     3     7     8   ar
     4     8     9   ar
     5     9    10   ar
     6    10     1    1
     7     1     2   ar
     8     2     3   ar
     9     3    17    1
    10    17    18    2
    11    18    19    1
    12    19    20   ar
    13    20    21   ar
    14    21    22   ar
    15    22    25    1
    16    25    26   ar
    17    26    27   ar
    18    27    28   ar
    19    28    29   ar
    20    29    30   ar
    21    22    23   ar
    22    23    24   ar
    23     3     4   ar
    24     4    31    1
    25    31    32    3
    26     4     5   ar
    27     5     6    1
    28    10    11   ar
    29    11    12   ar
    30    12    15    1
    31    15    16    1
    32    12     7   ar
    33     5     1   ar
    34    24    19   ar
    35    30    25   ar
@<TRIPOS>MOLECULE
*****
 32 35 0 0 0
SMALL
GASTEIGER

@<TRIPOS>ATOM
      1 C           7.2773   -4.3107   24.2260 C.ar    1  UNL1        0.0277
      2 S           7.0598   -3.4209   25.4138 S.2     1  UNL1       -0.0677
      3 C           7.4215   -4.1959   26.6460 C.ar    1  UNL1        0.1200
      4 C           7.8626   -5.5647   26.2198 C.ar    1  UNL1        0.0887
      5 C           7.7734   -5.6357   24.7242 C.ar    1  UNL1       -0.0042
      6 C           8.1197   -6.8232   23.8757 C.3     1  UNL1        0.0323
      7 C           6.5662   -3.2002   19.9235 C.ar    1  UNL1        0.1724
      8 C           7.9652   -3.2603   20.4612 C.ar    1  UNL1        0.0401
      9 C           8.2022   -3.6305   21.8953 C.ar    1  UNL1        0.0038
     10 C           7.0402   -3.9405   22.7918 C.ar    1  UNL1        0.0090
     11 C           5.6412   -3.8804   22.2541 C.ar    1  UNL1        0.0405
     12 C           5.4042   -3.5102   20.8200 C.ar    1  UNL1        0.1724
     13 C           5.9571   -1.4221   18.1298 C.3     1  UNL1        0.2526
     14 O           6.3291   -2.8300   18.4894 O.3     1  UNL1       -0.4684
     15 O           4.0051   -3.4501   20.2823 O.3     1  UNL1       -0.4684
     16 C           3.4960   -4.5449   19.3923 C.3     1  UNL1        0.2526
     17 N           7.3540   -3.6907   28.0568 N.2     1  UNL1       -0.2366
     18 C           6.2459   -2.7685   28.4709 C.2     1  UNL1        0.0994
     19 C           6.1784   -2.2633   29.8817 C.ar    1  UNL1        0.0192
     20 C           5.7402   -0.8547   30.1537 C.ar    1  UNL1        0.0015
     21 C           5.6727   -0.3495   31.5645 C.ar    1  UNL1        0.0000
     22 C           6.0433   -1.2529   32.7032 C.ar    1  UNL1        0.0000
     23 C           6.4815   -2.6614   32.4311 C.ar    1  UNL1        0.0000
     24 C           6.5490   -3.1667   31.0203 C.ar    1  UNL1        0.0015
     25 C           5.9758   -0.7477   34.1139 C.ar    1  UNL1        0.0000
     26 C           4.6738   -0.7736   34.8583 C.ar    1  UNL1        0.0000
     27 C           4.6063   -0.2684   36.2691 C.ar    1  UNL1        0.0000
     28 C           5.8407    0.2626   36.9355 C.ar    1  UNL1        0.0000
     29 C           7.1428    0.2884   36.1910 C.ar    1  UNL1        0.0000
     30 C           7.2103   -0.2167   34.7803 C.ar    1  UNL1        0.0000
     31 C           8.3136   -6.6688   27.1295 C.1     1  UNL1        0.1022
     32 N           8.7646   -7.7729   28.0392 N.1     1  UNL1       -0.1908
@<TRIPOS>BOND
     1    13    14    1
     2    14     7    1
     3     7     8   ar
     4     8     9   ar
     5     9    10   ar
     6    10     1    1
     7     1     2   ar
     8     2     3   ar
     9     3    17    1
    10    17    18    2
    11    18    19    1
    12    19    20   ar
    13    20    21   ar
    14    21    22   ar
    15    22    25    1
    16    25    26   ar
    17    26    27   ar
    18    27    28   ar
    19    28    29   ar
    20    29    30   ar
    21    22    23   ar
    22    23    24   ar
    23     3     4   ar
    24     4    31    1
    25    31    32    3
    26     4     5   ar
    27     5     6    1
    28    10    11   ar
    29    11    12   ar
    30    12    15    1
    31    15    16    1
    32    12     7   ar
    33     5     1   ar
    34    24    19   ar
    35    30    25   ar
@<TRIPOS>MOLECULE
*****
 32 35 0 0 0
SMALL
GASTEIGER

@<TRIPOS>ATOM
      1 C           1.6865    0.3714   20.3998 C.ar    1  UNL1        0.0277
      2 S           0.3797    0.6849   21.0660 S.2     1  UNL1       -0.0677
      3 C          -0.2289    1.8616   20.3623 C.ar    1  UNL1        0.1200
      4 C           0.7019    2.2752   19.2611 C.ar    1  UNL1        0.0887
      5 C           1.8857    1.3543   19.2844 C.ar    1  UNL1       -0.0042
      6 C           3.0621    1.4070   18.3552 C.3     1  UNL1        0.0323
      7 C           4.5133   -2.9369   21.5464 C.ar    1  UNL1        0.1724
      8 C           3.9515   -2.0310   22.6017 C.ar    1  UNL1        0.0401
      9 C           3.0093   -0.9283   22.2195 C.ar    1  UNL1        0.0038
     10 C           2.6288   -0.7314   20.7820 C.ar    1  UNL1        0.0090
     11 C           3.1906   -1.6372   19.7267 C.ar    1  UNL1        0.0405
     12 C           4.1329   -2.7400   20.1089 C.ar    1  UNL1        0.1724
     13 C           6.9352   -3.8498   21.7720 C.3     1  UNL1        0.2526
     14 O           5.4556   -4.0396   21.9286 O.3     1  UNL1       -0.4684
     15 O           4.6947   -3.6459   19.0535 O.3     1  UNL1       -0.4684
     16 C           4.1691   -5.0430   18.9069 C.3     1  UNL1        0.2526
     17 N          -1.5383    2.5105   20.7004 N.2     1  UNL1       -0.2366
     18 C          -1.6769    3.3057   21.9647 C.2     1  UNL1        0.0994
     19 C          -2.9863    3.9546   22.3027 C.ar    1  UNL1        0.0192
     20 C          -3.0138    5.3611   22.8239 C.ar    1  UNL1        0.0015
     21 C          -4.3232    6.0100   23.1619 C.ar    1  UNL1        0.0000
     22 C          -5.6050    5.2527   22.9789 C.ar    1  UNL1        0.0000
     23 C          -5.5774    3.8464   22.4578 C.ar    1  UNL1        0.0000
     24 C          -4.2680    3.1974   22.1197 C.ar    1  UNL1        0.0015
     25 C          -6.9144    5.9017   23.3170 C.ar    1  UNL1        0.0000
     26 C          -7.4103    7.0591   22.5019 C.ar    1  UNL1        0.0000
     27 C          -8.7198    7.7082   22.8399 C.ar    1  UNL1        0.0000
     28 C          -9.5332    7.1997   23.9930 C.ar    1  UNL1        0.0000
     29 C          -9.0372    6.0422   24.8081 C.ar    1  UNL1        0.0000
     30 C          -7.7279    5.3932   24.4701 C.ar    1  UNL1        0.0000
     31 C           0.4867    3.4105   18.3047 C.1     1  UNL1        0.1022
     32 N           0.2715    4.5458   17.3483 N.1     1  UNL1       -0.1908
@<TRIPOS>BOND
     1    13    14    1
     2    14     7    1
     3     7     8   ar
     4     8     9   ar
     5     9    10   ar
     6    10     1    1
     7     1     2   ar
     8     2     3   ar
     9     3    17    1
    10    17    18    2
    11    18    19    1
    12    19    20   ar
    13    20    21   ar
    14    21    22   ar
    15    22    25    1
    16    25    26   ar
    17    26    27   ar
    18    27    28   ar
    19    28    29   ar
    20    29    30   ar
    21    22    23   ar
    22    23    24   ar
    23     3     4   ar
    24     4    31    1
    25    31    32    3
    26     4     5   ar
    27     5     6    1
    28    10    11   ar
    29    11    12   ar
    30    12    15    1
    31    15    16    1
    32    12     7   ar
    33     5     1   ar
    34    24    19   ar
    35    30    25   ar
