@<TRIPOS>MOLECULE
*****
 32 35 0 0 0
SMALL
GASTEIGER

@<TRIPOS>ATOM
      1 C          -8.2007  -15.1990   27.0133 C.3     1  UNL1        0.0315
      2 C          -7.6729  -15.6196   25.6737 C.3     1  UNL1        0.1544
      3 C          -6.2406  -15.9209   25.3455 C.2     1  UNL1        0.2544
      4 O          -5.0848  -15.8548   26.2992 O.2     1  UNL1       -0.2723
      5 N          -6.1672  -16.3002   23.8961 N.am    1  UNL1       -0.1910
      6 C          -7.5541  -16.2331   23.3285 C.2     1  UNL1        0.3174
      7 O          -7.9422  -16.5339   21.9112 O.2     1  UNL1       -0.2516
      8 N          -8.4846  -15.8125   24.4272 N.am    1  UNL1       -0.2526
      9 C          -4.9250  -16.6798   23.1459 C.ar    1  UNL1        0.0623
     10 C          -4.7124  -18.1015   22.7175 C.ar    1  UNL1        0.0167
     11 C          -3.4702  -18.4812   21.9674 C.ar    1  UNL1        0.0199
     12 C          -2.4405  -17.4390   21.6455 C.ar    1  UNL1        0.1143
     13 C          -2.6530  -16.0172   22.0738 C.ar    1  UNL1        0.0199
     14 C          -3.8952  -15.6376   22.8240 C.ar    1  UNL1        0.0167
     15 S          -1.1982  -17.8186   20.8953 S.O2    1  UNL1        0.0920
     16 O          -1.4959  -19.2689   21.1362 O.2     1  UNL1       -0.1612
     17 O          -0.9006  -16.3684   20.6544 O.2     1  UNL1       -0.1612
     18 C           0.0439  -18.1982   20.1451 C.3     1  UNL1        0.5262
     19 F           0.5644  -16.8000   20.2996 F       1  UNL1       -0.1500
     20 F          -0.4766  -19.5965   19.9907 F       1  UNL1       -0.1500
     21 F           1.2861  -18.5779   19.3949 F       1  UNL1       -0.1500
     22 C          -9.9667  -15.6188   24.3014 C.3     1  UNL1        0.1222
     23 C         -10.7488  -16.4351   23.3154 C.ar    1  UNL1        0.0007
     24 C         -11.5891  -15.7534   22.2766 C.ar    1  UNL1        0.0181
     25 C         -12.3711  -16.5697   21.2907 C.ar    1  UNL1        0.0986
     26 N         -12.3129  -18.0676   21.3436 N.ar    1  UNL1       -0.2439
     27 C         -11.4726  -18.7493   22.3824 C.ar    1  UNL1        0.0811
     28 C         -11.4143  -20.2472   22.4353 C.ar    1  UNL1        0.0191
     29 C         -10.5740  -20.9289   23.4742 C.ar    1  UNL1        0.0015
     30 C          -9.7920  -20.1126   24.4601 C.ar    1  UNL1        0.0001
     31 C          -9.8502  -18.6147   24.4072 C.ar    1  UNL1        0.0012
     32 C         -10.6905  -17.9331   23.3684 C.ar    1  UNL1        0.0153
@<TRIPOS>BOND
     1     2     1    1
     2     2     3    1
     3     3     4    2
     4     3     5   am
     5     5     9    1
     6     9    10   ar
     7    10    11   ar
     8    11    12   ar
     9    12    15    1
    10    15    16    2
    11    15    17    2
    12    15    18    1
    13    18    19    1
    14    18    20    1
    15    18    21    1
    16    12    13   ar
    17    13    14   ar
    18     5     6   am
    19     6     7    2
    20     6     8   am
    21     8    22    1
    22    22    23    1
    23    23    24   ar
    24    24    25   ar
    25    25    26   ar
    26    26    27   ar
    27    27    28   ar
    28    28    29   ar
    29    29    30   ar
    30    30    31   ar
    31    31    32   ar
    32     8     2    1
    33    32    23   ar
    34    14     9   ar
    35    32    27   ar
@<TRIPOS>MOLECULE
*****
 32 35 0 0 0
SMALL
GASTEIGER

@<TRIPOS>ATOM
      1 C           8.6453   -0.1313   31.4061 C.3     1  UNL1        0.0315
      2 C           7.2953   -0.1968   32.0567 C.3     1  UNL1        0.1544
      3 C           6.9087    0.4523   33.3525 C.2     1  UNL1        0.2544
      4 O           7.8041    1.2809   34.2252 O.2     1  UNL1       -0.2723
      5 N           5.4693    0.1273   33.6223 N.am    1  UNL1       -0.1910
      6 C           4.9665   -0.7226   32.4933 C.2     1  UNL1        0.3174
      7 O           3.5788   -1.2751   32.3560 O.2     1  UNL1       -0.2516
      8 N           6.0950   -0.9229   31.5256 N.am    1  UNL1       -0.2526
      9 C           4.6727    0.5739   34.8123 C.ar    1  UNL1        0.0623
     10 C           4.9134   -0.0524   36.1539 C.ar    1  UNL1        0.0167
     11 C           4.1169    0.3941   37.3439 C.ar    1  UNL1        0.0199
     12 C           3.0795    1.4670   37.1923 C.ar    1  UNL1        0.1143
     13 C           2.8388    2.0933   35.8507 C.ar    1  UNL1        0.0199
     14 C           3.6354    1.6467   34.6607 C.ar    1  UNL1        0.0167
     15 S           2.2829    1.9136   38.3822 S.O2    1  UNL1        0.0920
     16 O           3.0533    0.9662   39.2535 O.2     1  UNL1       -0.1612
     17 O           1.5126    2.8609   37.5111 O.2     1  UNL1       -0.1612
     18 C           1.4864    2.3601   39.5721 C.3     1  UNL1        0.5262
     19 F           2.5366    3.3822   39.8916 F       1  UNL1       -0.1500
     20 F           0.4361    1.3380   39.2526 F       1  UNL1       -0.1500
     21 F           0.6897    2.8066   40.7621 F       1  UNL1       -0.1500
     22 C           6.0339   -1.7110   30.2508 C.3     1  UNL1        0.1222
     23 C           6.4129   -3.1623   30.2474 C.ar    1  UNL1        0.0007
     24 C           6.5835   -3.8960   31.5445 C.ar    1  UNL1        0.0181
     25 C           6.9625   -5.3473   31.5410 C.ar    1  UNL1        0.0986
     26 N           7.1708   -6.0650   30.2405 N.ar    1  UNL1       -0.2439
     27 C           7.0001   -5.3313   28.9432 C.ar    1  UNL1        0.0811
     28 C           7.2084   -6.0490   27.6427 C.ar    1  UNL1        0.0191
     29 C           7.0378   -5.3153   26.3456 C.ar    1  UNL1        0.0015
     30 C           6.6588   -3.8639   26.3490 C.ar    1  UNL1        0.0001
     31 C           6.4505   -3.1463   27.6496 C.ar    1  UNL1        0.0012
     32 C           6.6212   -3.8800   28.9467 C.ar    1  UNL1        0.0153
@<TRIPOS>BOND
     1     2     1    1
     2     2     3    1
     3     3     4    2
     4     3     5   am
     5     5     9    1
     6     9    10   ar
     7    10    11   ar
     8    11    12   ar
     9    12    15    1
    10    15    16    2
    11    15    17    2
    12    15    18    1
    13    18    19    1
    14    18    20    1
    15    18    21    1
    16    12    13   ar
    17    13    14   ar
    18     5     6   am
    19     6     7    2
    20     6     8   am
    21     8    22    1
    22    22    23    1
    23    23    24   ar
    24    24    25   ar
    25    25    26   ar
    26    26    27   ar
    27    27    28   ar
    28    28    29   ar
    29    29    30   ar
    30    30    31   ar
    31    31    32   ar
    32     8     2    1
    33    32    23   ar
    34    14     9   ar
    35    32    27   ar
@<TRIPOS>MOLECULE
*****
 32 35 0 0 0
SMALL
GASTEIGER

@<TRIPOS>ATOM
      1 C           8.5608   -2.7968   19.5459 C.3     1  UNL1        0.0315
      2 C           7.6683   -3.1194   20.7076 C.3     1  UNL1        0.1544
      3 C           8.1090   -3.3327   22.1254 C.2     1  UNL1        0.2544
      4 O           9.5196   -3.2608   22.6305 O.2     1  UNL1       -0.2723
      5 N           6.8914   -3.6304   22.9494 N.am    1  UNL1       -0.1910
      6 C           5.6983   -3.6011   22.0409 C.2     1  UNL1        0.3174
      7 O           4.2750   -3.8448   22.4467 O.2     1  UNL1       -0.2516
      8 N           6.1784   -3.2853   20.6553 N.am    1  UNL1       -0.2526
      9 C           6.8707   -3.9085   24.4233 C.ar    1  UNL1        0.0623
     10 C           7.2618   -5.2626   24.9365 C.ar    1  UNL1        0.0167
     11 C           7.2411   -5.5409   26.4104 C.ar    1  UNL1        0.0199
     12 C           6.8293   -4.4649   27.3710 C.ar    1  UNL1        0.1143
     13 C           6.4383   -3.1107   26.8577 C.ar    1  UNL1        0.0199
     14 C           6.4590   -2.8326   25.3839 C.ar    1  UNL1        0.0167
     15 S           6.8086   -4.7430   28.8449 S.O2    1  UNL1        0.0920
     16 O           7.2255   -6.1600   28.5833 O.2     1  UNL1       -0.1612
     17 O           6.3918   -3.3261   29.1064 O.2     1  UNL1       -0.1612
     18 C           6.7879   -5.0212   30.3186 C.3     1  UNL1        0.5262
     19 F           6.2383   -3.6484   30.5700 F       1  UNL1       -0.1500
     20 F           7.3376   -6.3940   30.0672 F       1  UNL1       -0.1500
     21 F           6.7672   -5.2994   31.7924 F       1  UNL1       -0.1500
     22 C           5.3194   -3.1577   19.4323 C.3     1  UNL1        0.1222
     23 C           5.0844   -1.8096   18.8181 C.ar    1  UNL1        0.0007
     24 C           6.1268   -1.1982   17.9295 C.ar    1  UNL1        0.0181
     25 C           5.8918    0.1500   17.3153 C.ar    1  UNL1        0.0986
     26 N           4.6143    0.8867   17.5897 N.ar    1  UNL1       -0.2439
     27 C           3.5719    0.2754   18.4783 C.ar    1  UNL1        0.0811
     28 C           2.2944    1.0121   18.7526 C.ar    1  UNL1        0.0191
     29 C           1.2520    0.4008   19.6412 C.ar    1  UNL1        0.0015
     30 C           1.4871   -0.9474   20.2554 C.ar    1  UNL1        0.0001
     31 C           2.7645   -1.6842   19.9810 C.ar    1  UNL1        0.0012
     32 C           3.8069   -1.0728   19.0925 C.ar    1  UNL1        0.0153
@<TRIPOS>BOND
     1     2     1    1
     2     2     3    1
     3     3     4    2
     4     3     5   am
     5     5     9    1
     6     9    10   ar
     7    10    11   ar
     8    11    12   ar
     9    12    15    1
    10    15    16    2
    11    15    17    2
    12    15    18    1
    13    18    19    1
    14    18    20    1
    15    18    21    1
    16    12    13   ar
    17    13    14   ar
    18     5     6   am
    19     6     7    2
    20     6     8   am
    21     8    22    1
    22    22    23    1
    23    23    24   ar
    24    24    25   ar
    25    25    26   ar
    26    26    27   ar
    27    27    28   ar
    28    28    29   ar
    29    29    30   ar
    30    30    31   ar
    31    31    32   ar
    32     8     2    1
    33    32    23   ar
    34    14     9   ar
    35    32    27   ar
@<TRIPOS>MOLECULE
*****
 32 35 0 0 0
SMALL
GASTEIGER

@<TRIPOS>ATOM
      1 C           2.9335    3.6053   18.3478 C.3     1  UNL1        0.0315
      2 C           1.7788    3.0306   19.1134 C.3     1  UNL1        0.1544
      3 C           0.5490    3.7738   19.5439 C.2     1  UNL1        0.2544
      4 O           0.2581    5.2222   19.2844 O.2     1  UNL1       -0.2723
      5 N          -0.3388    2.8142   20.2795 N.am    1  UNL1       -0.1910
      6 C           0.3423    1.4780   20.3036 C.2     1  UNL1        0.3174
      7 O          -0.1916    0.2276   20.9372 O.2     1  UNL1       -0.2516
      8 N           1.6510    1.6117   19.5830 N.am    1  UNL1       -0.2526
      9 C          -1.6733    3.1346   20.8847 C.ar    1  UNL1        0.0623
     10 C          -1.7908    3.3661   22.3621 C.ar    1  UNL1        0.0167
     11 C          -3.1253    3.6866   22.9674 C.ar    1  UNL1        0.0199
     12 C          -4.3425    3.7755   22.0951 C.ar    1  UNL1        0.1143
     13 C          -4.2250    3.5440   20.6178 C.ar    1  UNL1        0.0199
     14 C          -2.8905    3.2236   20.0126 C.ar    1  UNL1        0.0167
     15 S          -5.6771    4.0959   22.7003 S.O2    1  UNL1        0.0920
     16 O          -6.2071    4.4521   21.3430 O.2     1  UNL1       -0.1612
     17 O          -5.1471    3.7398   24.0576 O.2     1  UNL1       -0.1612
     18 C          -7.0116    4.4163   23.3055 C.3     1  UNL1        0.5262
     19 F          -7.5488    4.7483   21.9450 F       1  UNL1       -0.1500
     20 F          -6.4742    4.0844   24.6661 F       1  UNL1       -0.1500
     21 F          -8.3461    4.7368   23.9108 F       1  UNL1       -0.1500
     22 C           2.6556    0.5184   19.3693 C.3     1  UNL1        0.1222
     23 C           3.2754   -0.1714   20.5483 C.ar    1  UNL1        0.0007
     24 C           3.5876    0.6053   21.7929 C.ar    1  UNL1        0.0181
     25 C           4.2074   -0.0846   22.9719 C.ar    1  UNL1        0.0986
     26 N           4.5150   -1.5512   22.9061 N.ar    1  UNL1       -0.2439
     27 C           4.2029   -2.3280   21.6614 C.ar    1  UNL1        0.0811
     28 C           4.5105   -3.7946   21.5957 C.ar    1  UNL1        0.0191
     29 C           4.1983   -4.5714   20.3511 C.ar    1  UNL1        0.0015
     30 C           3.5785   -3.8815   19.1722 C.ar    1  UNL1        0.0001
     31 C           3.2709   -2.4149   19.2379 C.ar    1  UNL1        0.0012
     32 C           3.5830   -1.6381   20.4825 C.ar    1  UNL1        0.0153
@<TRIPOS>BOND
     1     2     1    1
     2     2     3    1
     3     3     4    2
     4     3     5   am
     5     5     9    1
     6     9    10   ar
     7    10    11   ar
     8    11    12   ar
     9    12    15    1
    10    15    16    2
    11    15    17    2
    12    15    18    1
    13    18    19    1
    14    18    20    1
    15    18    21    1
    16    12    13   ar
    17    13    14   ar
    18     5     6   am
    19     6     7    2
    20     6     8   am
    21     8    22    1
    22    22    23    1
    23    23    24   ar
    24    24    25   ar
    25    25    26   ar
    26    26    27   ar
    27    27    28   ar
    28    28    29   ar
    29    29    30   ar
    30    30    31   ar
    31    31    32   ar
    32     8     2    1
    33    32    23   ar
    34    14     9   ar
    35    32    27   ar
@<TRIPOS>MOLECULE
*****
 32 35 0 0 0
SMALL
GASTEIGER

@<TRIPOS>ATOM
      1 C           3.1916    3.9164   18.2829 C.3     1  UNL1        0.0315
      2 C           2.1824    3.3896   19.2596 C.3     1  UNL1        0.1544
      3 C           0.8026    3.9344   19.4816 C.2     1  UNL1        0.2544
      4 O           0.1897    5.1014   18.7658 O.2     1  UNL1       -0.2723
      5 N           0.1432    3.1071   20.5451 N.am    1  UNL1       -0.1910
      6 C           1.1155    2.0511   20.9803 C.2     1  UNL1        0.3174
      7 O           0.8705    1.0043   22.0263 O.2     1  UNL1       -0.2516
      8 N           2.3758    2.2257   20.1859 N.am    1  UNL1       -0.2526
      9 C          -1.2449    3.3016   21.0794 C.ar    1  UNL1        0.0623
     10 C          -2.4248    3.1915   20.1599 C.ar    1  UNL1        0.0167
     11 C          -3.8129    3.3861   20.6941 C.ar    1  UNL1        0.0199
     12 C          -4.0209    3.6908   22.1481 C.ar    1  UNL1        0.1143
     13 C          -2.8410    3.8009   23.0677 C.ar    1  UNL1        0.0199
     14 C          -1.4529    3.6063   22.5333 C.ar    1  UNL1        0.0167
     15 S          -5.4090    3.8853   22.6825 S.O2    1  UNL1        0.0920
     16 O          -4.9930    3.2717   23.9865 O.2     1  UNL1       -0.1612
     17 O          -5.8249    4.4990   21.3786 O.2     1  UNL1       -0.1612
     18 C          -6.7969    4.0799   23.2168 C.3     1  UNL1        0.5262
     19 F          -6.2817    3.9142   24.6157 F       1  UNL1       -0.1500
     20 F          -7.3122    4.2456   21.8179 F       1  UNL1       -0.1500
     21 F          -8.1850    4.2745   23.7511 F       1  UNL1       -0.1500
     22 C           3.6124    1.3842   20.2980 C.3     1  UNL1        0.1222
     23 C           3.8125    0.2184   19.3756 C.ar    1  UNL1        0.0007
     24 C           3.7858    0.4242   17.8901 C.ar    1  UNL1        0.0181
     25 C           3.9858   -0.7416   16.9676 C.ar    1  UNL1        0.0986
     26 N           4.2126   -2.1132   17.5307 N.ar    1  UNL1       -0.2439
     27 C           4.2393   -2.3191   19.0163 C.ar    1  UNL1        0.0811
     28 C           4.4661   -3.6907   19.5794 C.ar    1  UNL1        0.0191
     29 C           4.4928   -3.8966   21.0650 C.ar    1  UNL1        0.0015
     30 C           4.2927   -2.7308   21.9874 C.ar    1  UNL1        0.0001
     31 C           4.0660   -1.3591   21.4243 C.ar    1  UNL1        0.0012
     32 C           4.0393   -1.1533   19.9388 C.ar    1  UNL1        0.0153
@<TRIPOS>BOND
     1     2     1    1
     2     2     3    1
     3     3     4    2
     4     3     5   am
     5     5     9    1
     6     9    10   ar
     7    10    11   ar
     8    11    12   ar
     9    12    15    1
    10    15    16    2
    11    15    17    2
    12    15    18    1
    13    18    19    1
    14    18    20    1
    15    18    21    1
    16    12    13   ar
    17    13    14   ar
    18     5     6   am
    19     6     7    2
    20     6     8   am
    21     8    22    1
    22    22    23    1
    23    23    24   ar
    24    24    25   ar
    25    25    26   ar
    26    26    27   ar
    27    27    28   ar
    28    28    29   ar
    29    29    30   ar
    30    30    31   ar
    31    31    32   ar
    32     8     2    1
    33    32    23   ar
    34    14     9   ar
    35    32    27   ar
@<TRIPOS>MOLECULE
*****
 32 35 0 0 0
SMALL
GASTEIGER

@<TRIPOS>ATOM
      1 C           1.6167    5.2137   23.7714 C.3     1  UNL1        0.0315
      2 C           1.3469    4.0331   22.8864 C.3     1  UNL1        0.1544
      3 C           2.2796    2.8844   22.6401 C.2     1  UNL1        0.2544
      4 O           3.6457    2.7146   23.2357 O.2     1  UNL1       -0.2723
      5 N           1.6061    1.9352   21.6937 N.am    1  UNL1       -0.1910
      6 C           0.2573    2.4974   21.3551 C.2     1  UNL1        0.3174
      7 O          -0.7538    1.8726   20.4400 O.2     1  UNL1       -0.2516
      8 N           0.0971    3.7939   22.0922 N.am    1  UNL1       -0.2526
      9 C           2.1806    0.6497   21.1767 C.ar    1  UNL1        0.0623
     10 C           2.2178    0.3847   19.7008 C.ar    1  UNL1        0.0167
     11 C           2.7923   -0.9008   19.1837 C.ar    1  UNL1        0.0199
     12 C           3.3297   -1.9214   20.1428 C.ar    1  UNL1        0.1143
     13 C           3.2926   -1.6565   21.6187 C.ar    1  UNL1        0.0199
     14 C           2.7180   -0.3709   22.1357 C.ar    1  UNL1        0.0167
     15 S           3.9043   -3.2070   19.6258 S.O2    1  UNL1        0.0920
     16 O           3.8622   -2.6638   18.2282 O.2     1  UNL1       -0.1612
     17 O           3.9463   -3.7502   21.0233 O.2     1  UNL1       -0.1612
     18 C           4.4788   -4.4925   19.1088 C.3     1  UNL1        0.5262
     19 F           3.5716   -5.2645   20.0204 F       1  UNL1       -0.1500
     20 F           5.3860   -3.7205   18.1973 F       1  UNL1       -0.1500
     21 F           5.0534   -5.7780   18.5918 F       1  UNL1       -0.1500
     22 C          -1.1024    4.6933   22.0436 C.3     1  UNL1        0.1222
     23 C          -2.4555    4.1593   22.4094 C.ar    1  UNL1        0.0007
     24 C          -3.3548    3.6027   21.3458 C.ar    1  UNL1        0.0181
     25 C          -4.7080    3.0687   21.7116 C.ar    1  UNL1        0.0986
     26 N          -5.1619    3.0914   23.1410 N.ar    1  UNL1       -0.2439
     27 C          -4.2626    3.6480   24.2048 C.ar    1  UNL1        0.0811
     28 C          -4.7164    3.6707   25.6343 C.ar    1  UNL1        0.0191
     29 C          -3.8171    4.2273   26.6979 C.ar    1  UNL1        0.0015
     30 C          -2.4640    4.7612   26.3321 C.ar    1  UNL1        0.0001
     31 C          -2.0101    4.7386   24.9026 C.ar    1  UNL1        0.0012
     32 C          -2.9094    4.1820   23.8390 C.ar    1  UNL1        0.0153
@<TRIPOS>BOND
     1     2     1    1
     2     2     3    1
     3     3     4    2
     4     3     5   am
     5     5     9    1
     6     9    10   ar
     7    10    11   ar
     8    11    12   ar
     9    12    15    1
    10    15    16    2
    11    15    17    2
    12    15    18    1
    13    18    19    1
    14    18    20    1
    15    18    21    1
    16    12    13   ar
    17    13    14   ar
    18     5     6   am
    19     6     7    2
    20     6     8   am
    21     8    22    1
    22    22    23    1
    23    23    24   ar
    24    24    25   ar
    25    25    26   ar
    26    26    27   ar
    27    27    28   ar
    28    28    29   ar
    29    29    30   ar
    30    30    31   ar
    31    31    32   ar
    32     8     2    1
    33    32    23   ar
    34    14     9   ar
    35    32    27   ar
@<TRIPOS>MOLECULE
*****
 32 35 0 0 0
SMALL
GASTEIGER

@<TRIPOS>ATOM
      1 C           2.7322    3.5523   18.4192 C.3     1  UNL1        0.0315
      2 C           2.4024    2.6180   19.5454 C.3     1  UNL1        0.1544
      3 C           2.0722    3.0162   20.9533 C.2     1  UNL1        0.2544
      4 O           2.0138    4.4186   21.4823 O.2     1  UNL1       -0.2723
      5 N           1.8107    1.7657   21.7395 N.am    1  UNL1       -0.1910
      6 C           1.9793    0.5947   20.8173 C.2     1  UNL1        0.3174
      7 O           1.8117   -0.8495   21.1864 O.2     1  UNL1       -0.2516
      8 N           2.3450    1.1214   19.4613 N.am    1  UNL1       -0.2526
      9 C           1.4449    1.6981   23.1926 C.ar    1  UNL1        0.0623
     10 C           2.4122    1.1217   24.1836 C.ar    1  UNL1        0.0167
     11 C           2.0464    1.0541   25.6367 C.ar    1  UNL1        0.0199
     12 C           0.7131    1.5628   26.0989 C.ar    1  UNL1        0.1143
     13 C          -0.2543    2.1392   25.1079 C.ar    1  UNL1        0.0199
     14 C           0.1116    2.2068   23.6548 C.ar    1  UNL1        0.0167
     15 S           0.3472    1.4952   27.5520 S.O2    1  UNL1        0.0920
     16 O           1.7714    1.1731   27.8956 O.2     1  UNL1       -0.1612
     17 O          -1.0768    1.8174   27.2085 O.2     1  UNL1       -0.1612
     18 C          -0.0186    1.4276   29.0051 C.3     1  UNL1        0.5262
     19 F           0.5869    2.7829   29.2206 F       1  UNL1       -0.1500
     20 F          -0.6242    0.0723   28.7895 F       1  UNL1       -0.1500
     21 F          -0.3846    1.3599   30.4582 F       1  UNL1       -0.1500
     22 C           2.6073    0.2965   18.2363 C.3     1  UNL1        0.1222
     23 C           3.9658   -0.2975   18.0088 C.ar    1  UNL1        0.0007
     24 C           5.0668    0.5457   17.4372 C.ar    1  UNL1        0.0181
     25 C           6.4252   -0.0482   17.2096 C.ar    1  UNL1        0.0986
     26 N           6.6827   -1.4853   17.5536 N.ar    1  UNL1       -0.2439
     27 C           5.5816   -2.3286   18.1252 C.ar    1  UNL1        0.0811
     28 C           5.8391   -3.7657   18.4693 C.ar    1  UNL1        0.0191
     29 C           4.7381   -4.6089   19.0408 C.ar    1  UNL1        0.0015
     30 C           3.3796   -4.0149   19.2684 C.ar    1  UNL1        0.0001
     31 C           3.1221   -2.5778   18.9244 C.ar    1  UNL1        0.0012
     32 C           4.2232   -1.7347   18.3528 C.ar    1  UNL1        0.0153
@<TRIPOS>BOND
     1     2     1    1
     2     2     3    1
     3     3     4    2
     4     3     5   am
     5     5     9    1
     6     9    10   ar
     7    10    11   ar
     8    11    12   ar
     9    12    15    1
    10    15    16    2
    11    15    17    2
    12    15    18    1
    13    18    19    1
    14    18    20    1
    15    18    21    1
    16    12    13   ar
    17    13    14   ar
    18     5     6   am
    19     6     7    2
    20     6     8   am
    21     8    22    1
    22    22    23    1
    23    23    24   ar
    24    24    25   ar
    25    25    26   ar
    26    26    27   ar
    27    27    28   ar
    28    28    29   ar
    29    29    30   ar
    30    30    31   ar
    31    31    32   ar
    32     8     2    1
    33    32    23   ar
    34    14     9   ar
    35    32    27   ar
@<TRIPOS>MOLECULE
*****
 32 35 0 0 0
SMALL
GASTEIGER

@<TRIPOS>ATOM
      1 C          -1.5121    3.5135   25.8421 C.3     1  UNL1        0.0315
      2 C          -1.0322    3.1195   24.4766 C.3     1  UNL1        0.1544
      3 C          -0.0954    1.9908   24.1631 C.2     1  UNL1        0.2544
      4 O           0.5260    1.0579   25.1599 O.2     1  UNL1       -0.2723
      5 N           0.1110    1.9588   22.6776 N.am    1  UNL1       -0.1910
      6 C          -0.6983    3.0677   22.0732 C.2     1  UNL1        0.3174
      7 O          -0.7857    3.4007   20.6133 O.2     1  UNL1       -0.2516
      8 N          -1.4049    3.7851   23.1850 N.am    1  UNL1       -0.2526
      9 C           0.9749    0.9882   21.9282 C.ar    1  UNL1        0.0623
     10 C           2.4064    0.7922   22.3312 C.ar    1  UNL1        0.0167
     11 C           3.2705   -0.1784   21.5819 C.ar    1  UNL1        0.0199
     12 C           2.7029   -0.9529   20.4294 C.ar    1  UNL1        0.1143
     13 C           1.2714   -0.7568   20.0264 C.ar    1  UNL1        0.0199
     14 C           0.4074    0.2137   20.7758 C.ar    1  UNL1        0.0167
     15 S           3.5669   -1.9234   19.6800 S.O2    1  UNL1        0.0920
     16 O           3.2862   -1.1876   18.4034 O.2     1  UNL1       -0.1612
     17 O           3.8475   -2.6592   20.9566 O.2     1  UNL1       -0.1612
     18 C           4.4308   -2.8940   18.9307 C.3     1  UNL1        0.5262
     19 F           5.5889   -1.9470   19.0394 F       1  UNL1       -0.1500
     20 F           3.2726   -3.8409   18.8219 F       1  UNL1       -0.1500
     21 F           5.2947   -3.8646   18.1813 F       1  UNL1       -0.1500
     22 C          -2.3228    4.9615   23.0321 C.3     1  UNL1        0.1222
     23 C          -3.7789    4.7442   22.7446 C.ar    1  UNL1        0.0007
     24 C          -4.2034    4.1387   21.4395 C.ar    1  UNL1        0.0181
     25 C          -5.6595    3.9215   21.1520 C.ar    1  UNL1        0.0986
     26 N          -6.6910    4.3096   22.1694 N.ar    1  UNL1       -0.2439
     27 C          -6.2665    4.9151   23.4746 C.ar    1  UNL1        0.0811
     28 C          -7.2980    5.3033   24.4920 C.ar    1  UNL1        0.0191
     29 C          -6.8734    5.9087   25.7970 C.ar    1  UNL1        0.0015
     30 C          -5.4174    6.1260   26.0846 C.ar    1  UNL1        0.0001
     31 C          -4.3859    5.7378   25.0671 C.ar    1  UNL1        0.0012
     32 C          -4.8104    5.1324   23.7621 C.ar    1  UNL1        0.0153
@<TRIPOS>BOND
     1     2     1    1
     2     2     3    1
     3     3     4    2
     4     3     5   am
     5     5     9    1
     6     9    10   ar
     7    10    11   ar
     8    11    12   ar
     9    12    15    1
    10    15    16    2
    11    15    17    2
    12    15    18    1
    13    18    19    1
    14    18    20    1
    15    18    21    1
    16    12    13   ar
    17    13    14   ar
    18     5     6   am
    19     6     7    2
    20     6     8   am
    21     8    22    1
    22    22    23    1
    23    23    24   ar
    24    24    25   ar
    25    25    26   ar
    26    26    27   ar
    27    27    28   ar
    28    28    29   ar
    29    29    30   ar
    30    30    31   ar
    31    31    32   ar
    32     8     2    1
    33    32    23   ar
    34    14     9   ar
    35    32    27   ar
@<TRIPOS>MOLECULE
*****
 32 35 0 0 0
SMALL
GASTEIGER

@<TRIPOS>ATOM
      1 C          -1.6229    3.6223   25.4923 C.3     1  UNL1        0.0315
      2 C          -1.1007    3.1544   24.1662 C.3     1  UNL1        0.1544
      3 C          -0.1485    2.0167   23.9454 C.2     1  UNL1        0.2544
      4 O           0.4488    1.1472   25.0117 O.2     1  UNL1       -0.2723
      5 N           0.1016    1.9013   22.4708 N.am    1  UNL1       -0.1910
      6 C          -0.6961    2.9676   21.7805 C.2     1  UNL1        0.3174
      7 O          -0.7425    3.2158   20.3019 O.2     1  UNL1       -0.2516
      8 N          -1.4392    3.7421   22.8283 N.am    1  UNL1       -0.2526
      9 C           0.9929    0.8960   21.8038 C.ar    1  UNL1        0.0623
     10 C           2.3949    0.6927   22.2968 C.ar    1  UNL1        0.0167
     11 C           3.2863   -0.3125   21.6299 C.ar    1  UNL1        0.0199
     12 C           2.7756   -1.1147   20.4697 C.ar    1  UNL1        0.1143
     13 C           1.3736   -0.9115   19.9767 C.ar    1  UNL1        0.0199
     14 C           0.4823    0.0938   20.6437 C.ar    1  UNL1        0.0167
     15 S           3.6669   -2.1200   19.8027 S.O2    1  UNL1        0.0920
     16 O           3.4073   -1.4699   18.4760 O.2     1  UNL1       -0.1612
     17 O           3.9264   -2.7701   21.1293 O.2     1  UNL1       -0.1612
     18 C           4.5582   -3.1253   19.1357 C.3     1  UNL1        0.5262
     19 F           5.7535   -2.2773   19.4549 F       1  UNL1       -0.1500
     20 F           3.3628   -3.9733   18.8165 F       1  UNL1       -0.1500
     21 F           5.4494   -4.1307   18.4687 F       1  UNL1       -0.1500
     22 C          -2.3592    4.9008   22.5815 C.3     1  UNL1        0.1222
     23 C          -3.8389    4.6758   22.4826 C.ar    1  UNL1        0.0007
     24 C          -4.6868    4.7087   23.7194 C.ar    1  UNL1        0.0181
     25 C          -6.1666    4.4837   23.6205 C.ar    1  UNL1        0.0986
     26 N          -6.7983    4.2258   22.2848 N.ar    1  UNL1       -0.2439
     27 C          -5.9504    4.1928   21.0478 C.ar    1  UNL1        0.0811
     28 C          -6.5822    3.9348   19.7121 C.ar    1  UNL1        0.0191
     29 C          -5.7342    3.9019   18.4753 C.ar    1  UNL1        0.0015
     30 C          -4.2545    4.1269   18.5741 C.ar    1  UNL1        0.0001
     31 C          -3.6227    4.3849   19.9099 C.ar    1  UNL1        0.0012
     32 C          -4.4707    4.4178   21.1467 C.ar    1  UNL1        0.0153
@<TRIPOS>BOND
     1     2     1    1
     2     2     3    1
     3     3     4    2
     4     3     5   am
     5     5     9    1
     6     9    10   ar
     7    10    11   ar
     8    11    12   ar
     9    12    15    1
    10    15    16    2
    11    15    17    2
    12    15    18    1
    13    18    19    1
    14    18    20    1
    15    18    21    1
    16    12    13   ar
    17    13    14   ar
    18     5     6   am
    19     6     7    2
    20     6     8   am
    21     8    22    1
    22    22    23    1
    23    23    24   ar
    24    24    25   ar
    25    25    26   ar
    26    26    27   ar
    27    27    28   ar
    28    28    29   ar
    29    29    30   ar
    30    30    31   ar
    31    31    32   ar
    32     8     2    1
    33    32    23   ar
    34    14     9   ar
    35    32    27   ar
