@<TRIPOS>MOLECULE
*****
 45 48 0 0 0
SMALL
GASTEIGER

@<TRIPOS>ATOM
      1 N           2.7850    0.8986   29.4138 N.am    1  UNL1       -0.2724
      2 C           3.6499    0.2916   30.4785 C.2     1  UNL1        0.2491
      3 O           5.1419    0.2946   30.3249 O.2     1  UNL1       -0.2727
      4 C           1.2928    0.8955   29.5675 C.3     1  UNL1        0.1111
      5 C           0.5138    2.1585   29.3488 C.3     1  UNL1        0.0939
      6 N          -0.0527    2.4652   27.9942 N.3     1  UNL1       -0.2712
      7 C          -0.1924    1.3051   25.6736 C.3     1  UNL1        0.0188
      8 C          -0.5642    1.3539   27.1260 C.3     1  UNL1        0.0722
      9 C          -0.1078    3.8830   27.5076 C.3     1  UNL1        0.0722
     10 C           1.1382    4.7180   27.4878 C.3     1  UNL1        0.0188
     11 C           3.4122    1.5086   28.1954 C.3     1  UNL1        0.1202
     12 C           3.5583    0.6984   26.9415 C.ar    1  UNL1       -0.0023
     13 C           3.8916   -0.7616   27.0266 C.ar    1  UNL1       -0.0026
     14 C           4.0376   -1.5718   25.7727 C.ar    1  UNL1       -0.0003
     15 C           3.8504   -0.9219   24.4338 C.ar    1  UNL1       -0.0000
     16 C           3.5171    0.5380   24.3487 C.ar    1  UNL1       -0.0003
     17 C           3.3710    1.3482   25.6026 C.ar    1  UNL1       -0.0026
     18 C           3.9964   -1.7322   23.1799 C.ar    1  UNL1       -0.0000
     19 C           3.4379   -1.2188   21.8859 C.ar    1  UNL1       -0.0001
     20 C           3.5840   -2.0291   20.6319 C.ar    1  UNL1        0.0039
     21 C           4.2886   -3.3527   20.6721 C.ar    1  UNL1        0.0714
     22 C           4.8471   -3.8660   21.9662 C.ar    1  UNL1        0.0039
     23 C           4.7010   -3.0558   23.2200 C.ar    1  UNL1       -0.0001
     24 C           4.4346   -4.1629   19.4183 C.3     1  UNL1        0.4186
     25 F           4.5807   -4.9732   18.1645 F       1  UNL1       -0.1659
     26 F           5.9247   -4.0066   19.4909 F       1  UNL1       -0.1659
     27 F           2.9446   -4.3192   19.3457 F       1  UNL1       -0.1659
     28 C           3.0225   -0.3185   31.6969 C.3     1  UNL1        0.1931
     29 N           3.6103   -0.0597   33.0524 N.ar    1  UNL1       -0.3027
     30 C           3.2926    1.2149   33.7768 C.ar    1  UNL1        0.0445
     31 C           2.3872    2.2306   33.1456 C.3     1  UNL1        0.0502
     32 C           3.8804    1.4736   35.1324 C.ar    1  UNL1        0.0753
     33 C           4.7859    0.4578   35.7635 C.ar    1  UNL1        0.2821
     34 O           5.3737    0.7166   37.1191 O.2     1  UNL1       -0.2651
     35 N           5.1036   -0.8166   35.0392 N.ar    1  UNL1       -0.1844
     36 C           4.5158   -1.0754   33.6836 C.ar    1  UNL1        0.1748
     37 S           4.8334   -2.3499   32.9593 S.3     1  UNL1       -0.0724
     38 C           6.2355   -2.6229   32.5013 C.3     1  UNL1        0.0913
     39 C           6.4778   -3.5032   31.3112 C.ar    1  UNL1       -0.0108
     40 C           6.2974   -2.9576   29.9257 C.ar    1  UNL1       -0.0011
     41 C           6.5397   -3.8379   28.7355 C.ar    1  UNL1        0.0293
     42 C           6.9624   -5.2638   28.9310 C.ar    1  UNL1        0.1401
     43 F           7.2047   -6.1440   27.7409 F       1  UNL1       -0.2042
     44 C           7.1429   -5.8093   30.3166 C.ar    1  UNL1        0.0293
     45 C           6.9006   -4.9290   31.5067 C.ar    1  UNL1       -0.0011
@<TRIPOS>BOND
     1     7     8    1
     2     8     6    1
     3     6     9    1
     4     9    10    1
     5     6     5    1
     6     5     4    1
     7     4     1    1
     8     1    11    1
     9    11    12    1
    10    12    13   ar
    11    13    14   ar
    12    14    15   ar
    13    15    18    1
    14    18    19   ar
    15    19    20   ar
    16    20    21   ar
    17    21    24    1
    18    24    25    1
    19    24    26    1
    20    24    27    1
    21    21    22   ar
    22    22    23   ar
    23    15    16   ar
    24    16    17   ar
    25     1     2   am
    26     2     3    2
    27     2    28    1
    28    28    29    1
    29    29    30   ar
    30    30    31    1
    31    30    32   ar
    32    32    33   ar
    33    33    34    2
    34    33    35   ar
    35    35    36   ar
    36    36    37    1
    37    37    38    1
    38    38    39    1
    39    39    40   ar
    40    40    41   ar
    41    41    42   ar
    42    42    43    1
    43    42    44   ar
    44    44    45   ar
    45    17    12   ar
    46    36    29   ar
    47    45    39   ar
    48    23    18   ar
@<TRIPOS>MOLECULE
*****
 45 48 0 0 0
SMALL
GASTEIGER

@<TRIPOS>ATOM
      1 N           0.9976    3.4528   26.1950 N.am    1  UNL1       -0.2724
      2 C           0.7623    4.7682   25.5135 C.2     1  UNL1        0.2491
      3 O           1.8866    5.4511   24.7927 O.2     1  UNL1       -0.2727
      4 C          -0.1268    2.7699   26.9158 C.3     1  UNL1        0.1111
      5 C           0.0387    2.3645   28.3505 C.3     1  UNL1        0.0939
      6 N           0.4882    0.9743   28.6899 N.3     1  UNL1       -0.2712
      7 C          -1.8095   -0.1321   29.1866 C.3     1  UNL1        0.0188
      8 C          -0.4588   -0.1788   28.5359 C.3     1  UNL1        0.0722
      9 C           1.8848    0.7371   29.1832 C.3     1  UNL1        0.0722
     10 C           2.2062   -0.5085   29.9548 C.3     1  UNL1        0.0188
     11 C           2.3571    2.8202   26.1555 C.3     1  UNL1        0.1202
     12 C           2.6532    1.7402   25.1575 C.ar    1  UNL1       -0.0023
     13 C           2.4747    2.0040   23.6918 C.ar    1  UNL1       -0.0026
     14 C           2.7708    0.9240   22.6939 C.ar    1  UNL1       -0.0003
     15 C           3.2454   -0.4198   23.1617 C.ar    1  UNL1       -0.0000
     16 C           3.4239   -0.6836   24.6275 C.ar    1  UNL1       -0.0003
     17 C           3.1278    0.3964   25.6254 C.ar    1  UNL1       -0.0026
     18 C           3.5415   -1.4998   22.1637 C.ar    1  UNL1       -0.0000
     19 C           4.2997   -2.7234   22.5855 C.ar    1  UNL1       -0.0001
     20 C           4.5958   -3.8034   21.5875 C.ar    1  UNL1        0.0039
     21 C           4.1337   -3.6598   20.1677 C.ar    1  UNL1        0.0714
     22 C           3.3755   -2.4361   19.7459 C.ar    1  UNL1        0.0039
     23 C           3.0794   -1.3562   20.7439 C.ar    1  UNL1       -0.0001
     24 C           4.4297   -4.7397   19.1697 C.3     1  UNL1        0.4186
     25 F           4.7258   -5.8197   18.1717 F       1  UNL1       -0.1659
     26 F           3.4457   -5.6417   19.8538 F       1  UNL1       -0.1659
     27 F           5.4138   -3.8378   18.4856 F       1  UNL1       -0.1659
     28 C          -0.5973    5.4007   25.5530 C.3     1  UNL1        0.1931
     29 N          -1.7446    4.7582   24.8313 N.ar    1  UNL1       -0.3027
     30 C          -3.0359    4.5045   25.5512 C.ar    1  UNL1        0.0445
     31 C          -3.1799    4.8933   26.9927 C.3     1  UNL1        0.0502
     32 C          -4.1832    3.8619   24.8295 C.ar    1  UNL1        0.0753
     33 C          -4.0392    3.4731   23.3879 C.ar    1  UNL1        0.2821
     34 O          -5.1865    2.8305   22.6662 O.2     1  UNL1       -0.2651
     35 N          -2.7479    3.7268   22.6681 N.ar    1  UNL1       -0.1844
     36 C          -1.6006    4.3693   23.3898 C.ar    1  UNL1        0.1748
     37 S          -0.3093    4.6230   22.6699 S.3     1  UNL1       -0.0724
     38 C          -0.2872    4.6939   21.1717 C.3     1  UNL1        0.0913
     39 C           0.2763    3.5546   20.3752 C.ar    1  UNL1       -0.0108
     40 C          -0.1995    2.1548   20.6285 C.ar    1  UNL1       -0.0011
     41 C           0.3640    1.0155   19.8319 C.ar    1  UNL1        0.0293
     42 C           1.4033    1.2760   18.7822 C.ar    1  UNL1        0.1401
     43 F           1.9668    0.1367   17.9857 F       1  UNL1       -0.2042
     44 C           1.8791    2.6758   18.5290 C.ar    1  UNL1        0.0293
     45 C           1.3156    3.8151   19.3255 C.ar    1  UNL1       -0.0011
@<TRIPOS>BOND
     1     7     8    1
     2     8     6    1
     3     6     9    1
     4     9    10    1
     5     6     5    1
     6     5     4    1
     7     4     1    1
     8     1    11    1
     9    11    12    1
    10    12    13   ar
    11    13    14   ar
    12    14    15   ar
    13    15    18    1
    14    18    19   ar
    15    19    20   ar
    16    20    21   ar
    17    21    24    1
    18    24    25    1
    19    24    26    1
    20    24    27    1
    21    21    22   ar
    22    22    23   ar
    23    15    16   ar
    24    16    17   ar
    25     1     2   am
    26     2     3    2
    27     2    28    1
    28    28    29    1
    29    29    30   ar
    30    30    31    1
    31    30    32   ar
    32    32    33   ar
    33    33    34    2
    34    33    35   ar
    35    35    36   ar
    36    36    37    1
    37    37    38    1
    38    38    39    1
    39    39    40   ar
    40    40    41   ar
    41    41    42   ar
    42    42    43    1
    43    42    44   ar
    44    44    45   ar
    45    17    12   ar
    46    36    29   ar
    47    45    39   ar
    48    23    18   ar
@<TRIPOS>MOLECULE
*****
 45 48 0 0 0
SMALL
GASTEIGER

@<TRIPOS>ATOM
      1 N           2.6762    1.1426   29.1785 N.am    1  UNL1       -0.2724
      2 C           3.3031    1.1469   30.5412 C.2     1  UNL1        0.2491
      3 O           4.6999    1.6626   30.7225 O.2     1  UNL1       -0.2727
      4 C           1.2793    0.6269   28.9972 C.3     1  UNL1        0.1111
      5 C           0.1237    1.5829   28.9761 C.3     1  UNL1        0.0939
      6 N           0.1785    2.8067   28.1106 N.3     1  UNL1       -0.2712
      7 C          -1.2554    2.6674   25.9486 C.3     1  UNL1        0.0188
      8 C           0.0863    2.6754   26.6192 C.3     1  UNL1        0.0722
      9 C           0.3257    4.1620   28.7365 C.3     1  UNL1        0.0722
     10 C           1.0731    4.3144   30.0281 C.3     1  UNL1        0.0188
     11 C           3.4460    1.6540   27.9971 C.3     1  UNL1        0.1202
     12 C           3.5834    0.8062   26.7673 C.ar    1  UNL1       -0.0023
     13 C           3.3761    1.4127   25.4112 C.ar    1  UNL1       -0.0026
     14 C           3.5135    0.5648   24.1815 C.ar    1  UNL1       -0.0003
     15 C           3.8582   -0.8895   24.3079 C.ar    1  UNL1       -0.0000
     16 C           4.0656   -1.4961   25.6640 C.ar    1  UNL1       -0.0003
     17 C           3.9282   -0.6482   26.8937 C.ar    1  UNL1       -0.0026
     18 C           3.9956   -1.7374   23.0781 C.ar    1  UNL1       -0.0000
     19 C           4.6891   -3.0652   23.1562 C.ar    1  UNL1       -0.0001
     20 C           4.8265   -3.9130   21.9264 C.ar    1  UNL1        0.0039
     21 C           4.2704   -3.4330   20.6185 C.ar    1  UNL1        0.0714
     22 C           3.5769   -2.1052   20.5405 C.ar    1  UNL1        0.0039
     23 C           3.4396   -1.2574   21.7703 C.ar    1  UNL1       -0.0001
     24 C           4.4078   -4.2808   19.3888 C.3     1  UNL1        0.4186
     25 F           4.5452   -5.1286   18.1590 F       1  UNL1       -0.1659
     26 F           2.9272   -4.5212   19.3891 F       1  UNL1       -0.1659
     27 F           5.8884   -4.0404   19.3884 F       1  UNL1       -0.1659
     28 C           2.5332    0.6354   31.7226 C.3     1  UNL1        0.1931
     29 N           3.1229    0.7268   33.0988 N.ar    1  UNL1       -0.3027
     30 C           2.7581    1.8718   33.9966 C.ar    1  UNL1        0.0445
     31 C           1.8036    2.9253   33.5182 C.3     1  UNL1        0.0502
     32 C           3.3479    1.9632   35.3727 C.ar    1  UNL1        0.0753
     33 C           4.3024    0.9096   35.8511 C.ar    1  UNL1        0.2821
     34 O           4.8922    1.0010   37.2273 O.2     1  UNL1       -0.2651
     35 N           4.6672   -0.2353   34.9533 N.ar    1  UNL1       -0.1844
     36 C           4.0774   -0.3267   33.5772 C.ar    1  UNL1        0.1748
     37 S           4.4422   -1.4716   32.6794 S.3     1  UNL1       -0.0724
     38 C           5.8650   -1.6583   32.2424 C.3     1  UNL1        0.0913
     39 C           6.2553   -2.8765   31.4591 C.ar    1  UNL1       -0.0108
     40 C           6.6125   -4.1456   32.1745 C.ar    1  UNL1       -0.0011
     41 C           7.0028   -5.3638   31.3912 C.ar    1  UNL1        0.0293
     42 C           7.0360   -5.3130   29.8924 C.ar    1  UNL1        0.1401
     43 F           7.4263   -6.5311   29.1091 F       1  UNL1       -0.2042
     44 C           6.6788   -4.0438   29.1770 C.ar    1  UNL1        0.0293
     45 C           6.2885   -2.8256   29.9603 C.ar    1  UNL1       -0.0011
@<TRIPOS>BOND
     1     7     8    1
     2     8     6    1
     3     6     9    1
     4     9    10    1
     5     6     5    1
     6     5     4    1
     7     4     1    1
     8     1    11    1
     9    11    12    1
    10    12    13   ar
    11    13    14   ar
    12    14    15   ar
    13    15    18    1
    14    18    19   ar
    15    19    20   ar
    16    20    21   ar
    17    21    24    1
    18    24    25    1
    19    24    26    1
    20    24    27    1
    21    21    22   ar
    22    22    23   ar
    23    15    16   ar
    24    16    17   ar
    25     1     2   am
    26     2     3    2
    27     2    28    1
    28    28    29    1
    29    29    30   ar
    30    30    31    1
    31    30    32   ar
    32    32    33   ar
    33    33    34    2
    34    33    35   ar
    35    35    36   ar
    36    36    37    1
    37    37    38    1
    38    38    39    1
    39    39    40   ar
    40    40    41   ar
    41    41    42   ar
    42    42    43    1
    43    42    44   ar
    44    44    45   ar
    45    17    12   ar
    46    36    29   ar
    47    45    39   ar
    48    23    18   ar
@<TRIPOS>MOLECULE
*****
 45 48 0 0 0
SMALL
GASTEIGER

@<TRIPOS>ATOM
      1 N           0.6043    3.8325   25.9574 N.am    1  UNL1       -0.2724
      2 C          -0.8882    3.7268   26.0635 C.2     1  UNL1        0.2491
      3 O          -1.5160    2.4664   26.5804 O.2     1  UNL1       -0.2727
      4 C           1.2321    5.0930   25.4405 C.3     1  UNL1        0.1111
      5 C           1.7928    5.1360   24.0500 C.3     1  UNL1        0.0939
      6 N           3.2183    4.7395   23.8036 N.3     1  UNL1       -0.2712
      7 C           2.9566    3.2576   21.6856 C.3     1  UNL1        0.0188
      8 C           3.6624    4.3568   22.4228 C.3     1  UNL1        0.0722
      9 C           4.1997    4.7255   24.9379 C.3     1  UNL1        0.0722
     10 C           4.8857    5.9937   25.3517 C.3     1  UNL1        0.0188
     11 C           1.4690    2.6778   26.3682 C.3     1  UNL1        0.1202
     12 C           1.9066    1.6684   25.3485 C.ar    1  UNL1       -0.0023
     13 C           0.9828    1.2815   24.2318 C.ar    1  UNL1       -0.0026
     14 C           1.4204    0.2722   23.2122 C.ar    1  UNL1       -0.0003
     15 C           2.7817   -0.3502   23.3092 C.ar    1  UNL1       -0.0000
     16 C           3.7055    0.0367   24.4258 C.ar    1  UNL1       -0.0003
     17 C           3.2679    1.0460   25.4455 C.ar    1  UNL1       -0.0026
     18 C           3.2193   -1.3596   22.2894 C.ar    1  UNL1       -0.0000
     19 C           4.1265   -2.4851   22.6895 C.ar    1  UNL1       -0.0001
     20 C           4.5641   -3.4945   21.6698 C.ar    1  UNL1        0.0039
     21 C           4.0944   -3.3783   20.2500 C.ar    1  UNL1        0.0714
     22 C           3.1871   -2.2527   19.8499 C.ar    1  UNL1        0.0039
     23 C           2.7496   -1.2434   20.8696 C.ar    1  UNL1       -0.0001
     24 C           4.5319   -4.3876   19.2302 C.3     1  UNL1        0.4186
     25 F           4.9694   -5.3969   18.2105 F       1  UNL1       -0.1659
     26 F           3.0986   -4.6468   18.8719 F       1  UNL1       -0.1659
     27 F           5.9651   -4.1283   19.5886 F       1  UNL1       -0.1659
     28 C          -1.7529    4.8816   25.6527 C.3     1  UNL1        0.1931
     29 N          -3.0285    4.6341   24.9034 N.ar    1  UNL1       -0.3027
     30 C          -4.3365    4.6074   25.6374 C.ar    1  UNL1        0.0445
     31 C          -4.3688    4.8283   27.1206 C.3     1  UNL1        0.0502
     32 C          -5.6121    4.3598   24.8880 C.ar    1  UNL1        0.0753
     33 C          -5.5798    4.1389   23.4047 C.ar    1  UNL1        0.2821
     34 O          -6.8554    3.8913   22.6553 O.2     1  UNL1       -0.2651
     35 N          -4.2719    4.1656   22.6708 N.ar    1  UNL1       -0.1844
     36 C          -2.9963    4.4131   23.4201 C.ar    1  UNL1        0.1748
     37 S          -1.6884    4.4398   22.6862 S.3     1  UNL1       -0.0724
     38 C          -1.6693    4.5725   21.1921 C.3     1  UNL1        0.0913
     39 C          -0.8590    3.6191   20.3648 C.ar    1  UNL1       -0.0108
     40 C          -0.5988    2.2283   20.8627 C.ar    1  UNL1       -0.0011
     41 C           0.2115    1.2748   20.0354 C.ar    1  UNL1        0.0293
     42 C           0.7617    1.7123   18.7102 C.ar    1  UNL1        0.1401
     43 F           1.5719    0.7589   17.8829 F       1  UNL1       -0.2042
     44 C           0.5015    3.1032   18.2124 C.ar    1  UNL1        0.0293
     45 C          -0.3088    4.0566   19.0397 C.ar    1  UNL1       -0.0011
@<TRIPOS>BOND
     1     7     8    1
     2     8     6    1
     3     6     9    1
     4     9    10    1
     5     6     5    1
     6     5     4    1
     7     4     1    1
     8     1    11    1
     9    11    12    1
    10    12    13   ar
    11    13    14   ar
    12    14    15   ar
    13    15    18    1
    14    18    19   ar
    15    19    20   ar
    16    20    21   ar
    17    21    24    1
    18    24    25    1
    19    24    26    1
    20    24    27    1
    21    21    22   ar
    22    22    23   ar
    23    15    16   ar
    24    16    17   ar
    25     1     2   am
    26     2     3    2
    27     2    28    1
    28    28    29    1
    29    29    30   ar
    30    30    31    1
    31    30    32   ar
    32    32    33   ar
    33    33    34    2
    34    33    35   ar
    35    35    36   ar
    36    36    37    1
    37    37    38    1
    38    38    39    1
    39    39    40   ar
    40    40    41   ar
    41    41    42   ar
    42    42    43    1
    43    42    44   ar
    44    44    45   ar
    45    17    12   ar
    46    36    29   ar
    47    45    39   ar
    48    23    18   ar
@<TRIPOS>MOLECULE
*****
 45 48 0 0 0
SMALL
GASTEIGER

@<TRIPOS>ATOM
      1 N           0.7287    3.6621   26.3314 N.am    1  UNL1       -0.2724
      2 C           1.1703    3.7972   27.7586 C.2     1  UNL1        0.2491
      3 O           2.6099    4.0750   28.0752 O.2     1  UNL1       -0.2727
      4 C          -0.7110    3.3843   26.0149 C.3     1  UNL1        0.1111
      5 C          -1.2872    3.8190   24.7000 C.3     1  UNL1        0.0939
      6 N          -2.7617    4.0621   24.5710 N.3     1  UNL1       -0.2712
      7 C          -4.0953    4.0231   26.8004 C.3     1  UNL1        0.0188
      8 C          -3.4998    4.7886   25.6561 C.3     1  UNL1        0.0722
      9 C          -3.4981    3.5787   23.3570 C.3     1  UNL1        0.0722
     10 C          -4.9910    3.4363   23.3926 C.3     1  UNL1        0.0188
     11 C           1.7268    3.8049   25.2209 C.3     1  UNL1        0.1202
     12 C           2.1098    2.6103   24.3984 C.ar    1  UNL1       -0.0023
     13 C           3.1783    2.7311   23.3526 C.ar    1  UNL1       -0.0026
     14 C           3.5611    1.5365   22.5302 C.ar    1  UNL1       -0.0003
     15 C           2.8755    0.2212   22.7536 C.ar    1  UNL1       -0.0000
     16 C           1.8070    0.1005   23.7994 C.ar    1  UNL1       -0.0003
     17 C           1.4241    1.2950   24.6218 C.ar    1  UNL1       -0.0026
     18 C           3.2585   -0.9734   21.9311 C.ar    1  UNL1       -0.0000
     19 C           4.0744   -2.0740   22.5417 C.ar    1  UNL1       -0.0001
     20 C           4.4573   -3.2686   21.7193 C.ar    1  UNL1        0.0039
     21 C           4.0243   -3.3625   20.2862 C.ar    1  UNL1        0.0714
     22 C           3.2084   -2.2618   19.6756 C.ar    1  UNL1        0.0039
     23 C           2.8255   -1.0673   20.4980 C.ar    1  UNL1       -0.0001
     24 C           4.4072   -4.5570   19.4637 C.3     1  UNL1        0.4186
     25 F           4.7901   -5.7515   18.6412 F       1  UNL1       -0.1659
     26 F           5.8455   -4.3533   19.8374 F       1  UNL1       -0.1659
     27 F           2.9689   -4.7607   19.0900 F       1  UNL1       -0.1659
     28 C           0.1721    3.6544   28.8692 C.3     1  UNL1        0.1931
     29 N           0.6319    3.2816   30.2475 N.ar    1  UNL1       -0.3027
     30 C           0.6592    4.3152   31.3342 C.ar    1  UNL1        0.0445
     31 C           0.2268    5.7216   31.0426 C.3     1  UNL1        0.0502
     32 C           1.1190    3.9424   32.7125 C.ar    1  UNL1        0.0753
     33 C           1.5515    2.5360   33.0040 C.ar    1  UNL1        0.2821
     34 O           2.0113    2.1632   34.3823 O.2     1  UNL1       -0.2651
     35 N           1.5242    1.5024   31.9173 N.ar    1  UNL1       -0.1844
     36 C           1.0644    1.8752   30.5390 C.ar    1  UNL1        0.1748
     37 S           1.0370    0.8416   29.4524 S.3     1  UNL1       -0.0724
     38 C           2.1518   -0.1555   29.3374 C.3     1  UNL1        0.0913
     39 C           3.0746   -0.1160   28.1556 C.ar    1  UNL1       -0.0108
     40 C           3.7800    1.1584   27.7972 C.ar    1  UNL1       -0.0011
     41 C           4.7028    1.1980   26.6153 C.ar    1  UNL1        0.0293
     42 C           4.9202   -0.0368   25.7918 C.ar    1  UNL1        0.1401
     43 F           5.8430    0.0028   24.6099 F       1  UNL1       -0.2042
     44 C           4.2147   -1.3111   26.1502 C.ar    1  UNL1        0.0293
     45 C           3.2920   -1.3507   27.3321 C.ar    1  UNL1       -0.0011
@<TRIPOS>BOND
     1     7     8    1
     2     8     6    1
     3     6     9    1
     4     9    10    1
     5     6     5    1
     6     5     4    1
     7     4     1    1
     8     1    11    1
     9    11    12    1
    10    12    13   ar
    11    13    14   ar
    12    14    15   ar
    13    15    18    1
    14    18    19   ar
    15    19    20   ar
    16    20    21   ar
    17    21    24    1
    18    24    25    1
    19    24    26    1
    20    24    27    1
    21    21    22   ar
    22    22    23   ar
    23    15    16   ar
    24    16    17   ar
    25     1     2   am
    26     2     3    2
    27     2    28    1
    28    28    29    1
    29    29    30   ar
    30    30    31    1
    31    30    32   ar
    32    32    33   ar
    33    33    34    2
    34    33    35   ar
    35    35    36   ar
    36    36    37    1
    37    37    38    1
    38    38    39    1
    39    39    40   ar
    40    40    41   ar
    41    41    42   ar
    42    42    43    1
    43    42    44   ar
    44    44    45   ar
    45    17    12   ar
    46    36    29   ar
    47    45    39   ar
    48    23    18   ar
@<TRIPOS>MOLECULE
*****
 45 48 0 0 0
SMALL
GASTEIGER

@<TRIPOS>ATOM
      1 N           3.8977    0.9660   29.3778 N.am    1  UNL1       -0.2724
      2 C           5.3478    1.1112   29.7329 C.2     1  UNL1        0.2491
      3 O           6.2902    1.7822   28.7782 O.2     1  UNL1       -0.2727
      4 C           2.9552    0.2950   30.3326 C.3     1  UNL1        0.1111
      5 C           1.5707   -0.0714   29.8868 C.3     1  UNL1        0.0939
      6 N           0.4442    0.9036   30.0608 N.3     1  UNL1       -0.2712
      7 C          -1.1710   -0.6527   28.7496 C.3     1  UNL1        0.0188
      8 C          -0.8506    0.6912   29.3338 C.3     1  UNL1        0.0722
      9 C           0.6124    2.0910   30.9617 C.3     1  UNL1        0.0722
     10 C           0.9196    3.4381   30.3777 C.3     1  UNL1        0.0188
     11 C           3.3900    1.4917   28.0679 C.3     1  UNL1        0.1202
     12 C           3.5347    0.6682   26.8225 C.ar    1  UNL1       -0.0023
     13 C           3.2093    1.2662   25.4859 C.ar    1  UNL1       -0.0026
     14 C           3.3540    0.4428   24.2406 C.ar    1  UNL1       -0.0003
     15 C           3.8242   -0.9787   24.3318 C.ar    1  UNL1       -0.0000
     16 C           4.1497   -1.5767   25.6683 C.ar    1  UNL1       -0.0003
     17 C           4.0050   -0.7533   26.9137 C.ar    1  UNL1       -0.0026
     18 C           3.9689   -1.8022   23.0863 C.ar    1  UNL1       -0.0000
     19 C           4.7105   -3.1052   23.1308 C.ar    1  UNL1       -0.0001
     20 C           4.8553   -3.9287   21.8853 C.ar    1  UNL1        0.0039
     21 C           4.2583   -3.4490   20.5955 C.ar    1  UNL1        0.0714
     22 C           3.5167   -2.1459   20.5511 C.ar    1  UNL1        0.0039
     23 C           3.3720   -1.3225   21.7965 C.ar    1  UNL1       -0.0001
     24 C           4.4030   -4.2724   19.3501 C.3     1  UNL1        0.4186
     25 F           4.5477   -5.0958   18.1047 F       1  UNL1       -0.1659
     26 F           2.9420   -4.0931   19.0618 F       1  UNL1       -0.1659
     27 F           5.8641   -4.4518   19.6384 F       1  UNL1       -0.1659
     28 C           5.8554    0.5855   31.0429 C.3     1  UNL1        0.1931
     29 N           6.1037   -0.8837   31.2159 N.ar    1  UNL1       -0.3027
     30 C           6.9820   -1.6153   30.2445 C.ar    1  UNL1        0.0445
     31 C           7.6118   -0.8778   29.1003 C.3     1  UNL1        0.0502
     32 C           7.2303   -3.0845   30.4174 C.ar    1  UNL1        0.0753
     33 C           6.6004   -3.8220   31.5617 C.ar    1  UNL1        0.2821
     34 O           6.8487   -5.2911   31.7347 O.2     1  UNL1       -0.2651
     35 N           5.7222   -3.0903   32.5330 N.ar    1  UNL1       -0.1844
     36 C           5.4739   -1.6212   32.3601 C.ar    1  UNL1        0.1748
     37 S           4.5957   -0.8895   33.3314 S.3     1  UNL1       -0.0724
     38 C           5.1707   -0.3631   34.6130 C.3     1  UNL1        0.0913
     39 C           4.3520    0.5399   35.4872 C.ar    1  UNL1       -0.0108
     40 C           3.5331    1.6369   34.8740 C.ar    1  UNL1       -0.0011
     41 C           2.7144    2.5400   35.7482 C.ar    1  UNL1        0.0293
     42 C           2.7146    2.3461   37.2356 C.ar    1  UNL1        0.1401
     43 F           1.8959    3.2491   38.1098 F       1  UNL1       -0.2042
     44 C           3.5335    1.2490   37.8488 C.ar    1  UNL1        0.0293
     45 C           4.3522    0.3460   36.9746 C.ar    1  UNL1       -0.0011
@<TRIPOS>BOND
     1     7     8    1
     2     8     6    1
     3     6     9    1
     4     9    10    1
     5     6     5    1
     6     5     4    1
     7     4     1    1
     8     1    11    1
     9    11    12    1
    10    12    13   ar
    11    13    14   ar
    12    14    15   ar
    13    15    18    1
    14    18    19   ar
    15    19    20   ar
    16    20    21   ar
    17    21    24    1
    18    24    25    1
    19    24    26    1
    20    24    27    1
    21    21    22   ar
    22    22    23   ar
    23    15    16   ar
    24    16    17   ar
    25     1     2   am
    26     2     3    2
    27     2    28    1
    28    28    29    1
    29    29    30   ar
    30    30    31    1
    31    30    32   ar
    32    32    33   ar
    33    33    34    2
    34    33    35   ar
    35    35    36   ar
    36    36    37    1
    37    37    38    1
    38    38    39    1
    39    39    40   ar
    40    40    41   ar
    41    41    42   ar
    42    42    43    1
    43    42    44   ar
    44    44    45   ar
    45    17    12   ar
    46    36    29   ar
    47    45    39   ar
    48    23    18   ar
@<TRIPOS>MOLECULE
*****
 45 48 0 0 0
SMALL
GASTEIGER

@<TRIPOS>ATOM
      1 N           0.0216    1.8180   26.2406 N.am    1  UNL1       -0.2724
      2 C          -0.8613    2.8773   25.6504 C.2     1  UNL1        0.2491
      3 O          -2.2192    3.1327   26.2341 O.2     1  UNL1       -0.2727
      4 C           1.3797    1.5626   25.6569 C.3     1  UNL1        0.1111
      5 C           2.5944    2.1766   26.2872 C.3     1  UNL1        0.0939
      6 N           3.8022    1.3321   26.5667 N.3     1  UNL1       -0.2712
      7 C           3.9642   -1.2558   26.4033 C.3     1  UNL1        0.0188
      8 C           4.0559    0.0948   25.7574 C.3     1  UNL1        0.0722
      9 C           4.7563    1.7249   27.6554 C.3     1  UNL1        0.0722
     10 C           4.2878    2.5913   28.7867 C.3     1  UNL1        0.0188
     11 C          -0.4534    1.0140   27.4144 C.3     1  UNL1        0.1202
     12 C           0.4362    0.8324   28.6085 C.ar    1  UNL1       -0.0023
     13 C           1.3047   -0.3856   28.7183 C.ar    1  UNL1       -0.0026
     14 C           2.1942   -0.5672   29.9124 C.ar    1  UNL1       -0.0003
     15 C           2.2152    0.4692   30.9965 C.ar    1  UNL1       -0.0000
     16 C           1.3467    1.6872   30.8866 C.ar    1  UNL1       -0.0003
     17 C           0.4572    1.8688   29.6926 C.ar    1  UNL1       -0.0026
     18 C           3.1048    0.2876   32.1906 C.ar    1  UNL1       -0.0000
     19 C           3.8689   -0.9908   32.3691 C.ar    1  UNL1       -0.0001
     20 C           4.7585   -1.1724   33.5631 C.ar    1  UNL1        0.0039
     21 C           4.8839   -0.0756   34.5787 C.ar    1  UNL1        0.0714
     22 C           4.1198    1.2028   34.4001 C.ar    1  UNL1        0.0039
     23 C           3.2302    1.3844   33.2061 C.ar    1  UNL1       -0.0001
     24 C           5.7734   -0.2572   35.7727 C.3     1  UNL1        0.4186
     25 F           6.6630   -0.4388   36.9667 F       1  UNL1       -0.1659
     26 F           4.5709   -0.5278   36.6274 F       1  UNL1       -0.1659
     27 F           6.9760    0.0134   34.9180 F       1  UNL1       -0.1659
     28 C          -0.3861    3.6813   24.4765 C.3     1  UNL1        0.1931
     29 N          -1.1519    3.6505   23.1871 N.ar    1  UNL1       -0.3027
     30 C          -2.3805    4.4956   23.0241 C.ar    1  UNL1        0.0445
     31 C          -2.8432    5.3715   24.1505 C.3     1  UNL1        0.0502
     32 C          -3.1463    4.4648   21.7347 C.ar    1  UNL1        0.0753
     33 C          -2.6835    3.5889   20.6083 C.ar    1  UNL1        0.2821
     34 O          -3.4494    3.5581   19.3189 O.2     1  UNL1       -0.2651
     35 N          -1.4550    2.7439   20.7713 N.ar    1  UNL1       -0.1844
     36 C          -0.6892    2.7747   22.0608 C.ar    1  UNL1        0.1748
     37 S           0.5393    1.9297   22.2238 S.3     1  UNL1       -0.0724
     38 C           0.5787    0.5447   21.6488 C.3     1  UNL1        0.0913
     39 C           1.4828    0.2385   20.4918 C.ar    1  UNL1       -0.0108
     40 C           1.5992    1.2086   19.3537 C.ar    1  UNL1       -0.0011
     41 C           2.5033    0.9023   18.1966 C.ar    1  UNL1        0.0293
     42 C           3.2911   -0.3740   18.1777 C.ar    1  UNL1        0.1401
     43 F           4.1952   -0.6803   17.0207 F       1  UNL1       -0.2042
     44 C           3.1747   -1.3442   19.3159 C.ar    1  UNL1        0.0293
     45 C           2.2706   -1.0379   20.4729 C.ar    1  UNL1       -0.0011
@<TRIPOS>BOND
     1     7     8    1
     2     8     6    1
     3     6     9    1
     4     9    10    1
     5     6     5    1
     6     5     4    1
     7     4     1    1
     8     1    11    1
     9    11    12    1
    10    12    13   ar
    11    13    14   ar
    12    14    15   ar
    13    15    18    1
    14    18    19   ar
    15    19    20   ar
    16    20    21   ar
    17    21    24    1
    18    24    25    1
    19    24    26    1
    20    24    27    1
    21    21    22   ar
    22    22    23   ar
    23    15    16   ar
    24    16    17   ar
    25     1     2   am
    26     2     3    2
    27     2    28    1
    28    28    29    1
    29    29    30   ar
    30    30    31    1
    31    30    32   ar
    32    32    33   ar
    33    33    34    2
    34    33    35   ar
    35    35    36   ar
    36    36    37    1
    37    37    38    1
    38    38    39    1
    39    39    40   ar
    40    40    41   ar
    41    41    42   ar
    42    42    43    1
    43    42    44   ar
    44    44    45   ar
    45    17    12   ar
    46    36    29   ar
    47    45    39   ar
    48    23    18   ar
@<TRIPOS>MOLECULE
*****
 45 48 0 0 0
SMALL
GASTEIGER

@<TRIPOS>ATOM
      1 N           2.8128    1.8335   29.7166 N.am    1  UNL1       -0.2724
      2 C           3.9500    1.4057   30.5963 C.2     1  UNL1        0.2491
      3 O           5.3654    1.5900   30.1351 O.2     1  UNL1       -0.2727
      4 C           1.3974    1.6492   30.1779 C.3     1  UNL1        0.1111
      5 C           0.2622    2.1419   29.3303 C.3     1  UNL1        0.0939
      6 N          -0.2426    1.3048   28.1926 N.3     1  UNL1       -0.2712
      7 C          -1.3793    3.1519   26.7620 C.3     1  UNL1        0.0188
      8 C          -0.5073    1.9352   26.8574 C.3     1  UNL1        0.0722
      9 C          -0.4827   -0.1626   28.3900 C.3     1  UNL1        0.0722
     10 C          -1.7145   -0.6313   29.1064 C.3     1  UNL1        0.0188
     11 C           3.0910    2.4457   28.3758 C.3     1  UNL1        0.1202
     12 C           3.2370    1.5696   27.1670 C.ar    1  UNL1       -0.0023
     13 C           3.3934    0.0867   27.3300 C.ar    1  UNL1       -0.0026
     14 C           3.5393   -0.7894   26.1212 C.ar    1  UNL1       -0.0003
     15 C           3.5288   -0.1826   24.7495 C.ar    1  UNL1       -0.0000
     16 C           3.3724    1.3003   24.5865 C.ar    1  UNL1       -0.0003
     17 C           3.2265    2.1764   25.7953 C.ar    1  UNL1       -0.0026
     18 C           3.6748   -1.0587   23.5407 C.ar    1  UNL1       -0.0000
     19 C           3.0092   -0.6758   22.2521 C.ar    1  UNL1       -0.0001
     20 C           3.1551   -1.5520   21.0433 C.ar    1  UNL1        0.0039
     21 C           3.9666   -2.8110   21.1231 C.ar    1  UNL1        0.0714
     22 C           4.6322   -3.1938   22.4118 C.ar    1  UNL1        0.0039
     23 C           4.4863   -2.3177   23.6205 C.ar    1  UNL1       -0.0001
     24 C           4.1126   -3.6871   19.9144 C.3     1  UNL1        0.4186
     25 F           4.2586   -4.5632   18.7057 F       1  UNL1       -0.1659
     26 F           2.8688   -3.0868   19.3291 F       1  UNL1       -0.1659
     27 F           5.3563   -4.2874   20.4997 F       1  UNL1       -0.1659
     28 C           3.6718    0.7935   31.9372 C.3     1  UNL1        0.1931
     29 N           4.8057    0.4744   32.8658 N.ar    1  UNL1       -0.3027
     30 C           5.6337   -0.7564   32.6432 C.ar    1  UNL1        0.0445
     31 C           5.3278   -1.6681   31.4920 C.3     1  UNL1        0.0502
     32 C           6.7677   -1.0755   33.5718 C.ar    1  UNL1        0.0753
     33 C           7.0736   -0.1638   34.7231 C.ar    1  UNL1        0.2821
     34 O           8.2075   -0.4829   35.6517 O.2     1  UNL1       -0.2651
     35 N           6.2455    1.0669   34.9456 N.ar    1  UNL1       -0.1844
     36 C           5.1116    1.3860   34.0170 C.ar    1  UNL1        0.1748
     37 S           4.2836    2.6168   34.2395 S.3     1  UNL1       -0.0724
     38 C           4.3011    3.3014   35.5742 C.3     1  UNL1        0.0913
     39 C           3.3864    2.8357   36.6680 C.ar    1  UNL1       -0.0108
     40 C           3.6556    1.5371   37.3686 C.ar    1  UNL1       -0.0011
     41 C           2.7409    1.0713   38.4625 C.ar    1  UNL1        0.0293
     42 C           1.5571    1.9044   38.8557 C.ar    1  UNL1        0.1401
     43 F           0.6424    1.4387   39.9495 F       1  UNL1       -0.2042
     44 C           1.2879    3.2031   38.1550 C.ar    1  UNL1        0.0293
     45 C           2.2026    3.6687   37.0612 C.ar    1  UNL1       -0.0011
@<TRIPOS>BOND
     1     7     8    1
     2     8     6    1
     3     6     9    1
     4     9    10    1
     5     6     5    1
     6     5     4    1
     7     4     1    1
     8     1    11    1
     9    11    12    1
    10    12    13   ar
    11    13    14   ar
    12    14    15   ar
    13    15    18    1
    14    18    19   ar
    15    19    20   ar
    16    20    21   ar
    17    21    24    1
    18    24    25    1
    19    24    26    1
    20    24    27    1
    21    21    22   ar
    22    22    23   ar
    23    15    16   ar
    24    16    17   ar
    25     1     2   am
    26     2     3    2
    27     2    28    1
    28    28    29    1
    29    29    30   ar
    30    30    31    1
    31    30    32   ar
    32    32    33   ar
    33    33    34    2
    34    33    35   ar
    35    35    36   ar
    36    36    37    1
    37    37    38    1
    38    38    39    1
    39    39    40   ar
    40    40    41   ar
    41    41    42   ar
    42    42    43    1
    43    42    44   ar
    44    44    45   ar
    45    17    12   ar
    46    36    29   ar
    47    45    39   ar
    48    23    18   ar
@<TRIPOS>MOLECULE
*****
 45 48 0 0 0
SMALL
GASTEIGER

@<TRIPOS>ATOM
      1 N          -0.3890    2.5826   24.5420 N.am    1  UNL1       -0.2724
      2 C           0.7859    1.8032   24.0301 C.2     1  UNL1        0.2491
      3 O           1.1757    0.5139   24.6901 O.2     1  UNL1       -0.2727
      4 C          -0.7788    3.8720   23.8820 C.3     1  UNL1        0.1111
      5 C          -2.0242    3.9416   23.0489 C.3     1  UNL1        0.0939
      6 N          -3.3694    3.9687   23.7120 N.3     1  UNL1       -0.2712
      7 C          -4.9716    3.3926   21.7495 C.3     1  UNL1        0.0188
      8 C          -4.4979    3.1540   23.1526 C.3     1  UNL1        0.0722
      9 C          -3.5862    4.8105   24.9344 C.3     1  UNL1        0.0722
     10 C          -4.1413    4.1912   26.1828 C.3     1  UNL1        0.0188
     11 C          -1.1741    2.0727   25.7140 C.3     1  UNL1        0.1202
     12 C          -0.5999    2.1609   27.0970 C.ar    1  UNL1       -0.0023
     13 C           0.0955    3.4132   27.5419 C.ar    1  UNL1       -0.0026
     14 C           0.6697    3.5013   28.9248 C.ar    1  UNL1       -0.0003
     15 C           0.5484    2.3371   29.8628 C.ar    1  UNL1       -0.0000
     16 C          -0.1471    1.0848   29.4179 C.ar    1  UNL1       -0.0003
     17 C          -0.7213    0.9967   28.0350 C.ar    1  UNL1       -0.0026
     18 C           1.1226    2.4253   31.2458 C.ar    1  UNL1       -0.0000
     19 C           0.7307    3.5562   32.1499 C.ar    1  UNL1       -0.0001
     20 C           1.3049    3.6444   33.5329 C.ar    1  UNL1        0.0039
     21 C           2.2710    2.6016   34.0117 C.ar    1  UNL1        0.0714
     22 C           2.6628    1.4706   33.1076 C.ar    1  UNL1        0.0039
     23 C           2.0886    1.3825   31.7247 C.ar    1  UNL1       -0.0001
     24 C           2.8452    2.6897   35.3946 C.3     1  UNL1        0.4186
     25 F           3.4194    2.7779   36.7775 F       1  UNL1       -0.1659
     26 F           1.7216    3.5955   35.8034 F       1  UNL1       -0.1659
     27 F           3.9687    1.7839   34.9859 F       1  UNL1       -0.1659
     28 C           1.5710    2.3132   22.8580 C.3     1  UNL1        0.1931
     29 N           2.3591    1.3587   22.0108 N.ar    1  UNL1       -0.3027
     30 C           1.6692    0.5497   20.9526 C.ar    1  UNL1        0.0445
     31 C           0.1913    0.6952   20.7418 C.3     1  UNL1        0.0502
     32 C           2.4574   -0.4048   20.1054 C.ar    1  UNL1        0.0753
     33 C           3.9354   -0.5503   20.3163 C.ar    1  UNL1        0.2821
     34 O           4.7235   -1.5047   19.4691 O.2     1  UNL1       -0.2651
     35 N           4.6252    0.2588   21.3744 N.ar    1  UNL1       -0.1844
     36 C           3.8371    1.2132   22.2216 C.ar    1  UNL1        0.1748
     37 S           4.5269    2.0222   23.2797 S.3     1  UNL1       -0.0724
     38 C           5.2865    1.3333   24.3745 C.3     1  UNL1        0.0913
     39 C           4.5523    0.7555   25.5480 C.ar    1  UNL1       -0.0108
     40 C           4.4617   -0.7321   25.7173 C.ar    1  UNL1       -0.0011
     41 C           3.7275   -1.3101   26.8908 C.ar    1  UNL1        0.0293
     42 C           3.0839   -0.4003   27.8949 C.ar    1  UNL1        0.1401
     43 F           2.3498   -0.9781   29.0683 F       1  UNL1       -0.2042
     44 C           3.1746    1.0874   27.7255 C.ar    1  UNL1        0.0293
     45 C           3.9088    1.6653   26.5520 C.ar    1  UNL1       -0.0011
@<TRIPOS>BOND
     1     7     8    1
     2     8     6    1
     3     6     9    1
     4     9    10    1
     5     6     5    1
     6     5     4    1
     7     4     1    1
     8     1    11    1
     9    11    12    1
    10    12    13   ar
    11    13    14   ar
    12    14    15   ar
    13    15    18    1
    14    18    19   ar
    15    19    20   ar
    16    20    21   ar
    17    21    24    1
    18    24    25    1
    19    24    26    1
    20    24    27    1
    21    21    22   ar
    22    22    23   ar
    23    15    16   ar
    24    16    17   ar
    25     1     2   am
    26     2     3    2
    27     2    28    1
    28    28    29    1
    29    29    30   ar
    30    30    31    1
    31    30    32   ar
    32    32    33   ar
    33    33    34    2
    34    33    35   ar
    35    35    36   ar
    36    36    37    1
    37    37    38    1
    38    38    39    1
    39    39    40   ar
    40    40    41   ar
    41    41    42   ar
    42    42    43    1
    43    42    44   ar
    44    44    45   ar
    45    17    12   ar
    46    36    29   ar
    47    45    39   ar
    48    23    18   ar
