@<TRIPOS>MOLECULE
*****
 43 48 0 0 0
SMALL
GASTEIGER

@<TRIPOS>ATOM
      1 N           3.4051   -0.6566   19.6412 N.3     1  UNL1       -0.2688
      2 C           3.8722    0.6960   20.0911 C.3     1  UNL1        0.0741
      3 C           2.9872    1.5467   20.9530 C.3     1  UNL1        0.0372
      4 C           1.6349    1.0449   21.3650 C.3     1  UNL1        0.0799
      5 C           1.1678   -0.3076   20.9151 C.3     1  UNL1        0.0372
      6 C           2.0529   -1.1583   20.0532 C.3     1  UNL1        0.0741
      7 N           0.7498    1.8957   22.2269 N.am    1  UNL1       -0.2618
      8 C          -0.5640    2.4948   21.8208 C.2     1  UNL1        0.3074
      9 O          -1.2234    2.3485   20.4815 O.2     1  UNL1       -0.2523
     10 N          -1.1026    3.2661   22.9891 N.am    1  UNL1       -0.2635
     11 C          -0.1217    3.1436   24.1173 C.3     1  UNL1        0.1192
     12 C           1.0231    2.2966   23.6462 C.3     1  UNL1        0.1191
     13 C           2.2295    1.9172   24.4529 C.ar    1  UNL1       -0.0017
     14 C           3.2876    2.9393   24.7459 C.ar    1  UNL1       -0.0026
     15 C           4.4940    2.5599   25.5526 C.ar    1  UNL1        0.0006
     16 C           4.6423    1.1584   26.0662 C.ar    1  UNL1        0.0114
     17 C           3.5842    0.1364   25.7732 C.ar    1  UNL1        0.0574
     18 CL          3.7326   -1.2651   26.2870 Cl      1  UNL1       -0.0823
     19 C           2.3779    0.5157   24.9666 C.ar    1  UNL1        0.0088
     20 C          -2.3952    4.0264   23.0232 C.3     1  UNL1        0.0819
     21 C          -2.6107    5.1813   22.0907 C.3     1  UNL1        0.0520
     22 C          -3.9033    5.9416   22.1248 C.3     1  UNL1        0.1439
     23 O          -4.9803    5.5469   23.0914 O.3     1  UNL1       -0.3537
     24 C          -4.7647    4.3920   24.0239 C.3     1  UNL1        0.1439
     25 C          -3.4721    3.6317   23.9898 C.3     1  UNL1        0.0520
     26 C           4.2901   -1.5073   18.7793 C.3     1  UNL1        0.1003
     27 C           3.7833   -4.4201   19.2886 C.3     1  UNL1        0.0519
     28 C           5.1030   -3.8121   19.6611 C.ar    1  UNL1        0.0598
     29 N           6.1693   -4.6604   20.2882 N.ar    1  UNL1       -0.2160
     30 C           7.4890   -4.0524   20.6607 C.ar    1  UNL1        0.2293
     31 C           7.7424   -2.5961   20.4061 C.ar    1  UNL1        0.0578
     32 C           6.6761   -1.7478   19.7790 C.ar    1  UNL1        0.0031
     33 C           5.3564   -2.3558   19.4064 C.ar    1  UNL1        0.0077
     34 O           8.5553   -4.9008   21.2879 O.3     1  UNL1       -0.4361
     35 C           8.3288   -5.5132   22.6383 C.ar    1  UNL1        0.1472
     36 C           7.6336   -4.7280   23.7109 C.ar    1  UNL1        0.0376
     37 C           7.4072   -5.3403   25.0613 C.ar    1  UNL1        0.0043
     38 C           7.8759   -6.7379   25.3392 C.ar    1  UNL1        0.0142
     39 C           8.5710   -7.5230   24.2668 C.ar    1  UNL1        0.0043
     40 C           8.7975   -6.9107   22.9163 C.ar    1  UNL1        0.0376
     41 C           7.6494   -7.3502   26.6897 C.2     1  UNL1        0.0729
     42 O           7.5273   -6.4728   27.9001 O.co2   1  UNL1       -0.5446
     43 O           7.5451   -8.8401   26.8297 O.co2   1  UNL1       -0.5446
@<TRIPOS>UNITY_ATOM_ATTR
42 1
charge -1
@<TRIPOS>BOND
     1    27    28    1
     2    28    29   ar
     3    29    30   ar
     4    30    34    1
     5    34    35    1
     6    35    36   ar
     7    36    37   ar
     8    37    38   ar
     9    38    41    1
    10    41    42   ar
    11    41    43   ar
    12    38    39   ar
    13    39    40   ar
    14    30    31   ar
    15    31    32   ar
    16    32    33   ar
    17    33    26    1
    18    26     1    1
    19     1     2    1
    20     2     3    1
    21     3     4    1
    22     4     7    1
    23     7     8   am
    24     8     9    2
    25     8    10   am
    26    10    20    1
    27    20    21    1
    28    21    22    1
    29    22    23    1
    30    23    24    1
    31    24    25    1
    32    10    11    1
    33    11    12    1
    34    12    13    1
    35    13    14   ar
    36    14    15   ar
    37    15    16   ar
    38    16    17   ar
    39    17    18    1
    40    17    19   ar
    41     4     5    1
    42     5     6    1
    43    33    28   ar
    44     6     1    1
    45    40    35   ar
    46    12     7    1
    47    19    13   ar
    48    25    20    1
@<TRIPOS>MOLECULE
*****
 43 48 0 0 0
SMALL
GASTEIGER

@<TRIPOS>ATOM
      1 N           1.6489    0.9625   28.9424 N.3     1  UNL1       -0.2688
      2 C           1.8478   -0.3963   29.5460 C.3     1  UNL1        0.0741
      3 C           2.5535   -0.5363   30.8622 C.3     1  UNL1        0.0372
      4 C           3.0603    0.6825   31.5748 C.3     1  UNL1        0.0799
      5 C           2.8614    2.0412   30.9712 C.3     1  UNL1        0.0372
      6 C           2.1557    2.1812   29.6550 C.3     1  UNL1        0.0741
      7 N           3.7660    0.5426   32.8910 N.am    1  UNL1       -0.2618
      8 C           3.3664    1.1978   34.1798 C.2     1  UNL1        0.3074
      9 O           2.1909    2.1081   34.3786 O.2     1  UNL1       -0.2523
     10 N           4.3487    0.7830   35.2348 N.am    1  UNL1       -0.2635
     11 C           5.3554   -0.1286   34.5981 C.3     1  UNL1        0.1192
     12 C           4.9953   -0.2772   33.1495 C.3     1  UNL1        0.1191
     13 C           5.7347   -1.1010   32.1373 C.ar    1  UNL1       -0.0017
     14 C           6.2585   -0.4595   30.8865 C.ar    1  UNL1       -0.0026
     15 C           6.9979   -1.2833   29.8742 C.ar    1  UNL1        0.0006
     16 C           7.2136   -2.7484   30.1126 C.ar    1  UNL1        0.0114
     17 C           6.6898   -3.3898   31.3633 C.ar    1  UNL1        0.0574
     18 CL          6.9055   -4.8550   31.6017 Cl      1  UNL1       -0.0823
     19 C           5.9504   -2.5661   32.3756 C.ar    1  UNL1        0.0088
     20 C           4.3278    1.2056   36.6739 C.3     1  UNL1        0.0819
     21 C           5.5471    1.8234   37.2918 C.3     1  UNL1        0.0520
     22 C           5.5263    2.2460   38.7309 C.3     1  UNL1        0.1439
     23 O           4.2862    2.0509   39.5520 O.3     1  UNL1       -0.3537
     24 C           3.0670    1.4331   38.9340 C.3     1  UNL1        0.1439
     25 C           3.0879    1.0105   37.4950 C.3     1  UNL1        0.0520
     26 C           0.9432    1.1024   27.6262 C.3     1  UNL1        0.1003
     27 C          -0.2939    1.9148   25.0167 C.3     1  UNL1        0.0519
     28 C           1.0813    1.3162   25.0406 C.ar    1  UNL1        0.0598
     29 N           1.8379    1.1238   23.7598 N.ar    1  UNL1       -0.2160
     30 C           3.2130    0.5252   23.7838 C.ar    1  UNL1        0.2293
     31 C           3.8316    0.1190   25.0885 C.ar    1  UNL1        0.0578
     32 C           3.0750    0.3114   26.3693 C.ar    1  UNL1        0.0031
     33 C           1.6998    0.9100   26.3453 C.ar    1  UNL1        0.0077
     34 O           3.9697    0.3327   22.5029 O.3     1  UNL1       -0.4361
     35 C           3.9558   -1.0011   21.8168 C.ar    1  UNL1        0.1472
     36 C           4.6577   -2.1718   22.4388 C.ar    1  UNL1        0.0376
     37 C           4.6438   -3.5056   21.7527 C.ar    1  UNL1        0.0043
     38 C           3.9281   -3.6687   20.4445 C.ar    1  UNL1        0.0142
     39 C           3.2263   -2.4980   19.8226 C.ar    1  UNL1        0.0043
     40 C           3.2401   -1.1642   20.5087 C.ar    1  UNL1        0.0376
     41 C           3.9142   -5.0025   19.7584 C.2     1  UNL1        0.0729
     42 O           4.6544   -5.1895   18.4673 O.co2   1  UNL1       -0.5446
     43 O           3.1601   -6.1494   20.3635 O.co2   1  UNL1       -0.5446
@<TRIPOS>UNITY_ATOM_ATTR
42 1
charge -1
@<TRIPOS>BOND
     1    27    28    1
     2    28    29   ar
     3    29    30   ar
     4    30    34    1
     5    34    35    1
     6    35    36   ar
     7    36    37   ar
     8    37    38   ar
     9    38    41    1
    10    41    42   ar
    11    41    43   ar
    12    38    39   ar
    13    39    40   ar
    14    30    31   ar
    15    31    32   ar
    16    32    33   ar
    17    33    26    1
    18    26     1    1
    19     1     2    1
    20     2     3    1
    21     3     4    1
    22     4     7    1
    23     7     8   am
    24     8     9    2
    25     8    10   am
    26    10    20    1
    27    20    21    1
    28    21    22    1
    29    22    23    1
    30    23    24    1
    31    24    25    1
    32    10    11    1
    33    11    12    1
    34    12    13    1
    35    13    14   ar
    36    14    15   ar
    37    15    16   ar
    38    16    17   ar
    39    17    18    1
    40    17    19   ar
    41     4     5    1
    42     5     6    1
    43    33    28   ar
    44     6     1    1
    45    40    35   ar
    46    12     7    1
    47    19    13   ar
    48    25    20    1
@<TRIPOS>MOLECULE
*****
 43 48 0 0 0
SMALL
GASTEIGER

@<TRIPOS>ATOM
      1 N           3.0550    0.6219   28.6152 N.3     1  UNL1       -0.2688
      2 C           2.4248   -0.3842   29.5322 C.3     1  UNL1        0.0741
      3 C           2.9052   -0.5134   30.9473 C.3     1  UNL1        0.0372
      4 C           4.0156    0.3635   31.4454 C.3     1  UNL1        0.0799
      5 C           4.6457    1.3695   30.5284 C.3     1  UNL1        0.0372
      6 C           4.1654    1.4987   29.1133 C.3     1  UNL1        0.0741
      7 N           4.4960    0.2343   32.8606 N.am    1  UNL1       -0.2618
      8 C           3.9415    0.9613   34.0497 C.2     1  UNL1        0.3074
      9 O           2.8094    1.9452   34.0325 O.2     1  UNL1       -0.2523
     10 N           4.7180    0.5318   35.2591 N.am    1  UNL1       -0.2635
     11 C           5.7523   -0.4608   34.8174 C.3     1  UNL1        0.1192
     12 C           5.6151   -0.6446   33.3350 C.3     1  UNL1        0.1191
     13 C           6.4503   -1.5486   32.4777 C.ar    1  UNL1       -0.0017
     14 C           7.5115   -0.9700   31.5893 C.ar    1  UNL1       -0.0026
     15 C           8.3468   -1.8741   30.7319 C.ar    1  UNL1        0.0006
     16 C           8.1210   -3.3567   30.7630 C.ar    1  UNL1        0.0114
     17 C           7.0598   -3.9352   31.6514 C.ar    1  UNL1        0.0574
     18 CL          6.8340   -5.4178   31.6824 Cl      1  UNL1       -0.0823
     19 C           6.2246   -3.0312   32.5087 C.ar    1  UNL1        0.0088
     20 C           4.4986    1.0107   36.6635 C.3     1  UNL1        0.0819
     21 C           5.6098    1.6921   37.4057 C.3     1  UNL1        0.0520
     22 C           5.3905    2.1710   38.8101 C.3     1  UNL1        0.1439
     23 O           4.0599    1.9685   39.4724 O.3     1  UNL1       -0.3537
     24 C           2.9487    1.2870   38.7302 C.3     1  UNL1        0.1439
     25 C           3.1681    0.8081   37.3258 C.3     1  UNL1        0.0520
     26 C           2.5747    0.7511   27.2000 C.3     1  UNL1        0.1003
     27 C           1.5262    0.9234   24.3945 C.3     1  UNL1        0.0519
     28 C           2.6176   -0.0498   24.7288 C.ar    1  UNL1        0.0598
     29 N           3.1848   -0.9368   23.6604 N.ar    1  UNL1       -0.2160
     30 C           4.2762   -1.9099   23.9948 C.ar    1  UNL1        0.2293
     31 C           4.8004   -1.9961   25.3975 C.ar    1  UNL1        0.0578
     32 C           4.2333   -1.1091   26.4659 C.ar    1  UNL1        0.0031
     33 C           3.1418   -0.1360   26.1316 C.ar    1  UNL1        0.0077
     34 O           4.8434   -2.7970   22.9263 O.3     1  UNL1       -0.4361
     35 C           4.9229   -2.3087   21.5102 C.ar    1  UNL1        0.1472
     36 C           5.8501   -1.1841   21.1556 C.ar    1  UNL1        0.0376
     37 C           5.9296   -0.6958   19.7395 C.ar    1  UNL1        0.0043
     38 C           5.0818   -1.3321   18.6781 C.ar    1  UNL1        0.0142
     39 C           4.1547   -2.4567   19.0328 C.ar    1  UNL1        0.0043
     40 C           4.0752   -2.9449   20.4488 C.ar    1  UNL1        0.0376
     41 C           5.1613   -0.8439   17.2620 C.2     1  UNL1        0.0729
     42 O           6.4398   -0.2568   16.7417 O.co2   1  UNL1       -0.5446
     43 O           3.9621   -0.9427   16.3662 O.co2   1  UNL1       -0.5446
@<TRIPOS>UNITY_ATOM_ATTR
42 1
charge -1
@<TRIPOS>BOND
     1    27    28    1
     2    28    29   ar
     3    29    30   ar
     4    30    34    1
     5    34    35    1
     6    35    36   ar
     7    36    37   ar
     8    37    38   ar
     9    38    41    1
    10    41    42   ar
    11    41    43   ar
    12    38    39   ar
    13    39    40   ar
    14    30    31   ar
    15    31    32   ar
    16    32    33   ar
    17    33    26    1
    18    26     1    1
    19     1     2    1
    20     2     3    1
    21     3     4    1
    22     4     7    1
    23     7     8   am
    24     8     9    2
    25     8    10   am
    26    10    20    1
    27    20    21    1
    28    21    22    1
    29    22    23    1
    30    23    24    1
    31    24    25    1
    32    10    11    1
    33    11    12    1
    34    12    13    1
    35    13    14   ar
    36    14    15   ar
    37    15    16   ar
    38    16    17   ar
    39    17    18    1
    40    17    19   ar
    41     4     5    1
    42     5     6    1
    43    33    28   ar
    44     6     1    1
    45    40    35   ar
    46    12     7    1
    47    19    13   ar
    48    25    20    1
@<TRIPOS>MOLECULE
*****
 43 48 0 0 0
SMALL
GASTEIGER

@<TRIPOS>ATOM
      1 N           0.9390    2.2254   26.0874 N.3     1  UNL1       -0.2688
      2 C           2.2360    2.7689   25.5654 C.3     1  UNL1        0.0741
      3 C           2.6789    2.4416   24.1701 C.3     1  UNL1        0.0372
      4 C           1.8248    1.5708   23.2970 C.3     1  UNL1        0.0799
      5 C           0.5279    1.0274   23.8191 C.3     1  UNL1        0.0372
      6 C           0.0850    1.3547   25.2143 C.3     1  UNL1        0.0741
      7 N           2.2678    1.2435   21.9017 N.am    1  UNL1       -0.2618
      8 C           3.3230    0.2472   21.5225 C.2     1  UNL1        0.3074
      9 O           4.1206   -0.5968   22.4720 O.2     1  UNL1       -0.2523
     10 N           3.4406    0.2429   20.0271 N.am    1  UNL1       -0.2635
     11 C           2.4580    1.2366   19.4821 C.3     1  UNL1        0.1192
     12 C           1.7332    1.8550   20.6407 C.3     1  UNL1        0.1191
     13 C           0.6618    2.9012   20.5534 C.ar    1  UNL1       -0.0017
     14 C           1.0332    4.3543   20.5229 C.ar    1  UNL1       -0.0026
     15 C          -0.0382    5.4005   20.4357 C.ar    1  UNL1        0.0006
     16 C          -1.4808    4.9938   20.3790 C.ar    1  UNL1        0.0114
     17 C          -1.8521    3.5408   20.4095 C.ar    1  UNL1        0.0574
     18 CL         -3.2949    3.1341   20.3527 Cl      1  UNL1       -0.0823
     19 C          -0.7809    2.4946   20.4967 C.ar    1  UNL1        0.0088
     20 C           4.3765   -0.6060   19.2188 C.3     1  UNL1        0.0819
     21 C           5.5989    0.0053   18.6006 C.3     1  UNL1        0.0520
     22 C           6.5348   -0.8436   17.7922 C.3     1  UNL1        0.1439
     23 O           6.2482   -2.3037   17.6020 O.3     1  UNL1       -0.3537
     24 C           5.0258   -2.9149   18.2202 C.3     1  UNL1        0.1439
     25 C           4.0900   -2.0659   19.0286 C.3     1  UNL1        0.0520
     26 C           0.4961    2.5527   27.4827 C.3     1  UNL1        0.1003
     27 C          -0.4729   -0.0859   28.5310 C.3     1  UNL1        0.0519
     28 C           0.6953    0.5956   29.1798 C.ar    1  UNL1        0.0598
     29 N           1.3790   -0.0422   30.3527 N.ar    1  UNL1       -0.2160
     30 C           2.5471    0.6393   31.0015 C.ar    1  UNL1        0.2293
     31 C           3.0316    1.9585   30.4774 C.ar    1  UNL1        0.0578
     32 C           2.3480    2.5963   29.3045 C.ar    1  UNL1        0.0031
     33 C           1.1798    1.9149   28.6557 C.ar    1  UNL1        0.0077
     34 O           3.2308    0.0014   32.1745 O.3     1  UNL1       -0.4361
     35 C           4.2410   -1.0852   31.9538 C.ar    1  UNL1        0.1472
     36 C           5.0203   -1.1360   30.6731 C.ar    1  UNL1        0.0376
     37 C           6.0306   -2.2226   30.4525 C.ar    1  UNL1        0.0043
     38 C           6.2614   -3.2585   31.5126 C.ar    1  UNL1        0.0142
     39 C           5.4821   -3.2077   32.7932 C.ar    1  UNL1        0.0043
     40 C           4.4719   -2.1211   33.0138 C.ar    1  UNL1        0.0376
     41 C           7.2717   -4.3452   31.2919 C.2     1  UNL1        0.0729
     42 O           8.7288   -4.0722   31.5203 O.co2   1  UNL1       -0.5446
     43 O           6.8247   -5.7049   30.8429 O.co2   1  UNL1       -0.5446
@<TRIPOS>UNITY_ATOM_ATTR
42 1
charge -1
@<TRIPOS>BOND
     1    27    28    1
     2    28    29   ar
     3    29    30   ar
     4    30    34    1
     5    34    35    1
     6    35    36   ar
     7    36    37   ar
     8    37    38   ar
     9    38    41    1
    10    41    42   ar
    11    41    43   ar
    12    38    39   ar
    13    39    40   ar
    14    30    31   ar
    15    31    32   ar
    16    32    33   ar
    17    33    26    1
    18    26     1    1
    19     1     2    1
    20     2     3    1
    21     3     4    1
    22     4     7    1
    23     7     8   am
    24     8     9    2
    25     8    10   am
    26    10    20    1
    27    20    21    1
    28    21    22    1
    29    22    23    1
    30    23    24    1
    31    24    25    1
    32    10    11    1
    33    11    12    1
    34    12    13    1
    35    13    14   ar
    36    14    15   ar
    37    15    16   ar
    38    16    17   ar
    39    17    18    1
    40    17    19   ar
    41     4     5    1
    42     5     6    1
    43    33    28   ar
    44     6     1    1
    45    40    35   ar
    46    12     7    1
    47    19    13   ar
    48    25    20    1
@<TRIPOS>MOLECULE
*****
 43 48 0 0 0
SMALL
GASTEIGER

@<TRIPOS>ATOM
      1 N           2.2805    0.7219   29.2220 N.3     1  UNL1       -0.2688
      2 C           2.4805    2.0422   29.9054 C.3     1  UNL1        0.0741
      3 C           2.9378    2.0859   31.3334 C.3     1  UNL1        0.0372
      4 C           3.1950    0.8093   32.0779 C.3     1  UNL1        0.0799
      5 C           2.9950   -0.5108   31.3946 C.3     1  UNL1        0.0372
      6 C           2.5377   -0.5546   29.9666 C.3     1  UNL1        0.0741
      7 N           3.6522    0.8531   33.5059 N.am    1  UNL1       -0.2618
      8 C           3.0529    1.6881   34.5984 C.2     1  UNL1        0.3074
      9 O           1.8911    2.6260   34.4548 O.2     1  UNL1       -0.2523
     10 N           3.8193    1.4205   35.8598 N.am    1  UNL1       -0.2635
     11 C           4.8923    0.4201   35.5468 C.3     1  UNL1        0.1192
     12 C           4.7890    0.0694   34.0921 C.3     1  UNL1        0.1191
     13 C           5.6682   -0.8955   33.3532 C.ar    1  UNL1       -0.0017
     14 C           5.2586   -2.3324   33.2196 C.ar    1  UNL1       -0.0026
     15 C           6.1378   -3.2973   32.4807 C.ar    1  UNL1        0.0006
     16 C           7.4266   -2.8255   31.8755 C.ar    1  UNL1        0.0114
     17 C           7.8362   -1.3887   32.0091 C.ar    1  UNL1        0.0574
     18 CL          9.1251   -0.9169   31.4038 Cl      1  UNL1       -0.0823
     19 C           6.9570   -0.4238   32.7479 C.ar    1  UNL1        0.0088
     20 C           3.5585    2.0439   37.1989 C.3     1  UNL1        0.0819
     21 C           4.6405    2.8218   37.8875 C.3     1  UNL1        0.0520
     22 C           4.3797    3.4452   39.2267 C.3     1  UNL1        0.1439
     23 O           3.0370    3.2907   39.8772 O.3     1  UNL1       -0.3537
     24 C           1.9550    2.5128   39.1886 C.3     1  UNL1        0.1439
     25 C           2.2158    1.8894   37.8494 C.3     1  UNL1        0.0520
     26 C           1.8233    0.6782   27.7941 C.3     1  UNL1        0.1003
     27 C          -0.9853   -0.0203   28.5840 C.3     1  UNL1        0.0519
     28 C          -0.7229    1.1920   27.7404 C.ar    1  UNL1        0.0598
     29 N          -1.8648    2.0550   27.2918 N.ar    1  UNL1       -0.2160
     30 C          -1.6024    3.2672   26.4483 C.ar    1  UNL1        0.2293
     31 C          -0.1981    3.6165   26.0533 C.ar    1  UNL1        0.0578
     32 C           0.9437    2.7535   26.5019 C.ar    1  UNL1        0.0031
     33 C           0.6813    1.5412   27.3455 C.ar    1  UNL1        0.0077
     34 O          -2.7443    4.1303   25.9996 O.3     1  UNL1       -0.4361
     35 C          -3.2553    4.0266   24.5932 C.ar    1  UNL1        0.1472
     36 C          -2.5232    4.7107   23.4769 C.ar    1  UNL1        0.0376
     37 C          -3.0341    4.6070   22.0704 C.ar    1  UNL1        0.0043
     38 C          -4.2773    3.8193   21.7802 C.ar    1  UNL1        0.0142
     39 C          -5.0093    3.1352   22.8965 C.ar    1  UNL1        0.0043
     40 C          -4.4984    3.2389   24.3030 C.ar    1  UNL1        0.0376
     41 C          -4.7882    3.7156   20.3738 C.2     1  UNL1        0.0729
     42 O          -6.2592    3.8230   20.1004 O.co2   1  UNL1       -0.5446
     43 O          -3.8282    3.5045   19.2407 O.co2   1  UNL1       -0.5446
@<TRIPOS>UNITY_ATOM_ATTR
42 1
charge -1
@<TRIPOS>BOND
     1    27    28    1
     2    28    29   ar
     3    29    30   ar
     4    30    34    1
     5    34    35    1
     6    35    36   ar
     7    36    37   ar
     8    37    38   ar
     9    38    41    1
    10    41    42   ar
    11    41    43   ar
    12    38    39   ar
    13    39    40   ar
    14    30    31   ar
    15    31    32   ar
    16    32    33   ar
    17    33    26    1
    18    26     1    1
    19     1     2    1
    20     2     3    1
    21     3     4    1
    22     4     7    1
    23     7     8   am
    24     8     9    2
    25     8    10   am
    26    10    20    1
    27    20    21    1
    28    21    22    1
    29    22    23    1
    30    23    24    1
    31    24    25    1
    32    10    11    1
    33    11    12    1
    34    12    13    1
    35    13    14   ar
    36    14    15   ar
    37    15    16   ar
    38    16    17   ar
    39    17    18    1
    40    17    19   ar
    41     4     5    1
    42     5     6    1
    43    33    28   ar
    44     6     1    1
    45    40    35   ar
    46    12     7    1
    47    19    13   ar
    48    25    20    1
@<TRIPOS>MOLECULE
*****
 43 48 0 0 0
SMALL
GASTEIGER

@<TRIPOS>ATOM
      1 N           3.5157    1.7030   22.8159 N.3     1  UNL1       -0.2688
      2 C           5.0130    1.6109   22.8160 C.3     1  UNL1        0.0741
      3 C           5.6864    0.3459   23.2591 C.3     1  UNL1        0.0372
      4 C           4.8627   -0.8269   23.7021 C.3     1  UNL1        0.0799
      5 C           3.3656   -0.7346   23.7019 C.3     1  UNL1        0.0372
      6 C           2.6921    0.5303   23.2589 C.3     1  UNL1        0.0741
      7 N           5.5362   -2.0918   24.1452 N.am    1  UNL1       -0.2618
      8 C           5.9172   -2.4413   25.5532 C.2     1  UNL1        0.3074
      9 O           5.6916   -1.5871   26.7655 O.2     1  UNL1       -0.2523
     10 N           6.5634   -3.7948   25.5363 N.am    1  UNL1       -0.2635
     11 C           6.5818   -4.2820   24.1177 C.3     1  UNL1        0.1192
     12 C           5.9469   -3.2294   23.2580 C.3     1  UNL1        0.1191
     13 C           5.7563   -3.3018   21.7719 C.ar    1  UNL1       -0.0017
     14 C           6.7992   -2.7368   20.8535 C.ar    1  UNL1       -0.0026
     15 C           6.6085   -2.8093   19.3674 C.ar    1  UNL1        0.0006
     16 C           5.3751   -3.4466   18.7997 C.ar    1  UNL1        0.0114
     17 C           4.3323   -4.0116   19.7180 C.ar    1  UNL1        0.0574
     18 CL          3.0988   -4.6490   19.1502 Cl      1  UNL1       -0.0823
     19 C           4.5229   -3.9392   21.2040 C.ar    1  UNL1        0.0088
     20 C           7.0975   -4.5319   26.7286 C.3     1  UNL1        0.0819
     21 C           6.2515   -4.6820   27.9581 C.3     1  UNL1        0.0520
     22 C           6.7855   -5.4190   29.1504 C.3     1  UNL1        0.1439
     23 O           8.1655   -6.0058   29.1132 O.3     1  UNL1       -0.3537
     24 C           9.0114   -5.8557   27.8836 C.3     1  UNL1        0.1439
     25 C           8.4773   -5.1186   26.6913 C.3     1  UNL1        0.0520
     26 C           2.8423    2.9680   22.3728 C.3     1  UNL1        0.1003
     27 C           2.1768    2.1167   19.5742 C.3     1  UNL1        0.0519
     28 C           1.0805    2.5115   20.5187 C.ar    1  UNL1        0.0598
     29 N          -0.3486    2.4807   20.0639 N.ar    1  UNL1       -0.2160
     30 C          -1.4449    2.8755   21.0085 C.ar    1  UNL1        0.2293
     31 C          -1.1122    3.3012   22.4078 C.ar    1  UNL1        0.0578
     32 C           0.3168    3.3320   22.8625 C.ar    1  UNL1        0.0031
     33 C           1.4132    2.9372   21.9180 C.ar    1  UNL1        0.0077
     34 O          -2.8740    2.8447   20.5536 O.3     1  UNL1       -0.4361
     35 C          -3.9127    3.6378   21.2899 C.ar    1  UNL1        0.1472
     36 C          -4.1152    5.0891   20.9688 C.ar    1  UNL1        0.0376
     37 C          -5.1538    5.8822   21.7051 C.ar    1  UNL1        0.0043
     38 C          -5.9900    5.2241   22.7625 C.ar    1  UNL1        0.0142
     39 C          -5.7875    3.7730   23.0835 C.ar    1  UNL1        0.0043
     40 C          -4.7488    2.9798   22.3472 C.ar    1  UNL1        0.0376
     41 C          -7.0286    6.0173   23.4987 C.2     1  UNL1        0.0729
     42 O          -6.6607    6.7534   24.7528 O.co2   1  UNL1       -0.5446
     43 O          -8.4353    6.0743   22.9809 O.co2   1  UNL1       -0.5446
@<TRIPOS>UNITY_ATOM_ATTR
42 1
charge -1
@<TRIPOS>BOND
     1    27    28    1
     2    28    29   ar
     3    29    30   ar
     4    30    34    1
     5    34    35    1
     6    35    36   ar
     7    36    37   ar
     8    37    38   ar
     9    38    41    1
    10    41    42   ar
    11    41    43   ar
    12    38    39   ar
    13    39    40   ar
    14    30    31   ar
    15    31    32   ar
    16    32    33   ar
    17    33    26    1
    18    26     1    1
    19     1     2    1
    20     2     3    1
    21     3     4    1
    22     4     7    1
    23     7     8   am
    24     8     9    2
    25     8    10   am
    26    10    20    1
    27    20    21    1
    28    21    22    1
    29    22    23    1
    30    23    24    1
    31    24    25    1
    32    10    11    1
    33    11    12    1
    34    12    13    1
    35    13    14   ar
    36    14    15   ar
    37    15    16   ar
    38    16    17   ar
    39    17    18    1
    40    17    19   ar
    41     4     5    1
    42     5     6    1
    43    33    28   ar
    44     6     1    1
    45    40    35   ar
    46    12     7    1
    47    19    13   ar
    48    25    20    1
@<TRIPOS>MOLECULE
*****
 43 48 0 0 0
SMALL
GASTEIGER

@<TRIPOS>ATOM
      1 N           1.5298    2.0682   26.6636 N.3     1  UNL1       -0.2688
      2 C           2.8474    2.4574   26.0613 C.3     1  UNL1        0.0741
      3 C           3.1484    2.1168   24.6318 C.3     1  UNL1        0.0372
      4 C           2.1319    1.3869   23.8046 C.3     1  UNL1        0.0799
      5 C           0.8144    0.9978   24.4069 C.3     1  UNL1        0.0372
      6 C           0.5134    1.3384   25.8364 C.3     1  UNL1        0.0741
      7 N           2.4329    1.0463   22.3752 N.am    1  UNL1       -0.2618
      8 C           3.4203    0.0210   21.9022 C.2     1  UNL1        0.3074
      9 O           4.2801   -0.8437   22.7757 O.2     1  UNL1       -0.2523
     10 N           3.3971    0.0122   20.4024 N.am    1  UNL1       -0.2635
     11 C           2.3952    1.0321   19.9484 C.3     1  UNL1        0.1192
     12 C           1.7994    1.6712   21.1676 C.3     1  UNL1        0.1191
     13 C           0.7535    2.7464   21.1776 C.ar    1  UNL1       -0.0017
     14 C           1.1271    4.1527   21.5424 C.ar    1  UNL1       -0.0026
     15 C           0.0812    5.2280   21.5523 C.ar    1  UNL1        0.0006
     16 C          -1.3381    4.8970   21.1974 C.ar    1  UNL1        0.0114
     17 C          -1.7116    3.4908   20.8326 C.ar    1  UNL1        0.0574
     18 CL         -3.1310    3.1599   20.4777 Cl      1  UNL1       -0.0823
     19 C          -0.6659    2.4156   20.8227 C.ar    1  UNL1        0.0088
     20 C           4.2295   -0.8629   19.5129 C.3     1  UNL1        0.0819
     21 C           5.3441   -0.2669   18.7052 C.3     1  UNL1        0.0520
     22 C           6.1766   -1.1420   17.8156 C.3     1  UNL1        0.1439
     23 O           5.8943   -2.6129   17.7338 O.3     1  UNL1       -0.3537
     24 C           4.7797   -3.2088   18.5415 C.3     1  UNL1        0.1439
     25 C           3.9472   -2.3337   19.4310 C.3     1  UNL1        0.0520
     26 C           1.2288    2.4088   28.0930 C.3     1  UNL1        0.1003
     27 C           0.1625   -0.2117   29.0910 C.3     1  UNL1        0.0519
     28 C           1.4014    0.3747   29.7001 C.ar    1  UNL1        0.0598
     29 N           2.1073   -0.3491   30.8082 N.ar    1  UNL1       -0.2160
     30 C           3.3462    0.2374   31.4173 C.ar    1  UNL1        0.2293
     31 C           3.8794    1.5476   30.9184 C.ar    1  UNL1        0.0578
     32 C           3.1736    2.2714   29.8103 C.ar    1  UNL1        0.0031
     33 C           1.9346    1.6850   29.2012 C.ar    1  UNL1        0.0077
     34 O           4.0520   -0.4865   32.5255 O.3     1  UNL1       -0.4361
     35 C           4.0371    0.0744   33.9166 C.ar    1  UNL1        0.1472
     36 C           4.7574   -0.6405   35.0213 C.ar    1  UNL1        0.0376
     37 C           4.7425   -0.0796   36.4124 C.ar    1  UNL1        0.0043
     38 C           4.0073    1.1962   36.6988 C.ar    1  UNL1        0.0142
     39 C           3.2872    1.9110   35.5941 C.ar    1  UNL1        0.0043
     40 C           3.3021    1.3501   34.2030 C.ar    1  UNL1        0.0376
     41 C           3.9924    1.7571   38.0899 C.2     1  UNL1        0.0729
     42 O           3.4540    0.9361   39.2239 O.co2   1  UNL1       -0.5446
     43 O           4.5160    3.1391   38.3470 O.co2   1  UNL1       -0.5446
@<TRIPOS>UNITY_ATOM_ATTR
42 1
charge -1
@<TRIPOS>BOND
     1    27    28    1
     2    28    29   ar
     3    29    30   ar
     4    30    34    1
     5    34    35    1
     6    35    36   ar
     7    36    37   ar
     8    37    38   ar
     9    38    41    1
    10    41    42   ar
    11    41    43   ar
    12    38    39   ar
    13    39    40   ar
    14    30    31   ar
    15    31    32   ar
    16    32    33   ar
    17    33    26    1
    18    26     1    1
    19     1     2    1
    20     2     3    1
    21     3     4    1
    22     4     7    1
    23     7     8   am
    24     8     9    2
    25     8    10   am
    26    10    20    1
    27    20    21    1
    28    21    22    1
    29    22    23    1
    30    23    24    1
    31    24    25    1
    32    10    11    1
    33    11    12    1
    34    12    13    1
    35    13    14   ar
    36    14    15   ar
    37    15    16   ar
    38    16    17   ar
    39    17    18    1
    40    17    19   ar
    41     4     5    1
    42     5     6    1
    43    33    28   ar
    44     6     1    1
    45    40    35   ar
    46    12     7    1
    47    19    13   ar
    48    25    20    1
@<TRIPOS>MOLECULE
*****
 43 48 0 0 0
SMALL
GASTEIGER

@<TRIPOS>ATOM
      1 N           6.2410   -1.5472   24.7689 N.3     1  UNL1       -0.2688
      2 C           6.5419   -0.4943   23.7438 C.3     1  UNL1        0.0741
      3 C           5.4304    0.1001   22.9305 C.3     1  UNL1        0.0372
      4 C           4.0180   -0.3585   23.1424 C.3     1  UNL1        0.0799
      5 C           3.7171   -1.4114   24.1675 C.3     1  UNL1        0.0372
      6 C           4.8286   -2.0058   24.9807 C.3     1  UNL1        0.0741
      7 N           2.9065    0.2358   22.3291 N.am    1  UNL1       -0.2618
      8 C           1.8467    1.1697   22.8338 C.2     1  UNL1        0.3074
      9 O           1.7124    1.6732   24.2404 O.2     1  UNL1       -0.2523
     10 N           0.9449    1.5117   21.6850 N.am    1  UNL1       -0.2635
     11 C           1.4473    0.7891   20.4703 C.3     1  UNL1        0.1192
     12 C           2.6597    0.0006   20.8684 C.3     1  UNL1        0.1191
     13 C           3.4810   -0.8703   19.9645 C.ar    1  UNL1       -0.0017
     14 C           4.5364   -0.2597   19.0906 C.ar    1  UNL1       -0.0026
     15 C           5.3576   -1.1306   18.1866 C.ar    1  UNL1        0.0006
     16 C           5.1236   -2.6119   18.1565 C.ar    1  UNL1        0.0114
     17 C           4.0682   -3.2223   19.0303 C.ar    1  UNL1        0.0574
     18 CL          3.8342   -4.7037   19.0001 Cl      1  UNL1       -0.0823
     19 C           3.2470   -2.3516   19.9342 C.ar    1  UNL1        0.0088
     20 C          -0.2496    2.4172   21.7411 C.3     1  UNL1        0.0819
     21 C          -1.0670    2.6576   20.5065 C.3     1  UNL1        0.0520
     22 C          -2.2615    3.5632   20.5626 C.3     1  UNL1        0.1439
     23 O          -2.6386    4.2282   21.8531 O.3     1  UNL1       -0.3537
     24 C          -1.8212    3.9877   23.0876 C.3     1  UNL1        0.1439
     25 C          -0.6267    3.0822   23.0316 C.3     1  UNL1        0.0520
     26 C           7.3524   -2.1415   25.5822 C.3     1  UNL1        0.1003
     27 C           7.0144   -5.0461   26.2527 C.3     1  UNL1        0.0519
     28 C           6.9339   -4.0119   27.3362 C.ar    1  UNL1        0.0598
     29 N           6.6843   -4.4300   28.7549 N.ar    1  UNL1       -0.2160
     30 C           6.6038   -3.3959   29.8385 C.ar    1  UNL1        0.2293
     31 C           6.7728   -1.9436   29.5033 C.ar    1  UNL1        0.0578
     32 C           7.0223   -1.5255   28.0845 C.ar    1  UNL1        0.0031
     33 C           7.1029   -2.5597   27.0010 C.ar    1  UNL1        0.0077
     34 O           6.3542   -3.8140   31.2573 O.3     1  UNL1       -0.4361
     35 C           6.1056   -2.7770   32.3121 C.ar    1  UNL1        0.1472
     36 C           4.7471   -2.6526   32.9361 C.ar    1  UNL1        0.0376
     37 C           4.4985   -1.6155   33.9910 C.ar    1  UNL1        0.0043
     38 C           5.6082   -0.7028   34.4218 C.ar    1  UNL1        0.0142
     39 C           6.9666   -0.8272   33.7978 C.ar    1  UNL1        0.0043
     40 C           7.2152   -1.8643   32.7429 C.ar    1  UNL1        0.0376
     41 C           5.3596    0.3343   35.4766 C.2     1  UNL1        0.0729
     42 O           4.3398    0.0848   36.5480 O.co2   1  UNL1       -0.5446
     43 O           6.1307    1.6208   35.4600 O.co2   1  UNL1       -0.5446
@<TRIPOS>UNITY_ATOM_ATTR
42 1
charge -1
@<TRIPOS>BOND
     1    27    28    1
     2    28    29   ar
     3    29    30   ar
     4    30    34    1
     5    34    35    1
     6    35    36   ar
     7    36    37   ar
     8    37    38   ar
     9    38    41    1
    10    41    42   ar
    11    41    43   ar
    12    38    39   ar
    13    39    40   ar
    14    30    31   ar
    15    31    32   ar
    16    32    33   ar
    17    33    26    1
    18    26     1    1
    19     1     2    1
    20     2     3    1
    21     3     4    1
    22     4     7    1
    23     7     8   am
    24     8     9    2
    25     8    10   am
    26    10    20    1
    27    20    21    1
    28    21    22    1
    29    22    23    1
    30    23    24    1
    31    24    25    1
    32    10    11    1
    33    11    12    1
    34    12    13    1
    35    13    14   ar
    36    14    15   ar
    37    15    16   ar
    38    16    17   ar
    39    17    18    1
    40    17    19   ar
    41     4     5    1
    42     5     6    1
    43    33    28   ar
    44     6     1    1
    45    40    35   ar
    46    12     7    1
    47    19    13   ar
    48    25    20    1
@<TRIPOS>MOLECULE
*****
 43 48 0 0 0
SMALL
GASTEIGER

@<TRIPOS>ATOM
      1 N          -0.0104    3.7432   20.5164 N.3     1  UNL1       -0.2688
      2 C           0.4469    4.4915   21.7334 C.3     1  UNL1        0.0741
      3 C          -0.4791    4.6615   22.9011 C.3     1  UNL1        0.0372
      4 C          -1.8623    4.0831   22.8519 C.3     1  UNL1        0.0799
      5 C          -2.3194    3.3348   21.6350 C.3     1  UNL1        0.0372
      6 C          -1.3935    3.1648   20.4672 C.3     1  UNL1        0.0741
      7 N          -2.7882    4.2531   24.0197 N.am    1  UNL1       -0.2618
      8 C          -4.1037    4.9736   24.0043 C.2     1  UNL1        0.3074
      9 O          -4.7243    5.6508   22.8183 O.2     1  UNL1       -0.2523
     10 N          -4.6898    4.8982   25.3830 N.am    1  UNL1       -0.2635
     11 C          -3.7365    4.1310   26.2506 C.3     1  UNL1        0.1192
     12 C          -2.5613    3.7323   25.4080 C.3     1  UNL1        0.1191
     13 C          -1.3685    2.9501   25.8722 C.ar    1  UNL1       -0.0017
     14 C          -0.7579    1.9121   24.9779 C.ar    1  UNL1       -0.0026
     15 C           0.4349    1.1300   25.4421 C.ar    1  UNL1        0.0006
     16 C           1.0170    1.3857   26.8007 C.ar    1  UNL1        0.0114
     17 C           0.4064    2.4237   27.6950 C.ar    1  UNL1        0.0574
     18 CL          0.9886    2.6794   29.0536 Cl      1  UNL1       -0.0823
     19 C          -0.7863    3.2058   27.2308 C.ar    1  UNL1        0.0088
     20 C          -5.9993    5.4867   25.8178 C.3     1  UNL1        0.0819
     21 C          -7.1476    5.5541   24.8551 C.3     1  UNL1        0.0520
     22 C          -8.4571    6.1426   25.2899 C.3     1  UNL1        0.1439
     23 O          -8.6181    6.6635   26.6873 O.3     1  UNL1       -0.3537
     24 C          -7.4697    6.5961   27.6499 C.3     1  UNL1        0.1439
     25 C          -6.1603    6.0076   27.2151 C.3     1  UNL1        0.0520
     26 C           0.9156    3.5732   19.3486 C.3     1  UNL1        0.1003
     27 C           3.7233    3.5584   18.2919 C.3     1  UNL1        0.0519
     28 C           3.0367    2.2645   18.6151 C.ar    1  UNL1        0.0598
     29 N           3.7540    0.9632   18.4099 N.ar    1  UNL1       -0.2160
     30 C           3.0674   -0.3307   18.7331 C.ar    1  UNL1        0.2293
     31 C           1.6636   -0.3233   19.2615 C.ar    1  UNL1        0.0578
     32 C           0.9464    0.9780   19.4666 C.ar    1  UNL1        0.0031
     33 C           1.6329    2.2718   19.1434 C.ar    1  UNL1        0.0077
     34 O           3.7848   -1.6321   18.5280 O.3     1  UNL1       -0.4361
     35 C           4.4859   -2.2915   19.6785 C.ar    1  UNL1        0.1472
     36 C           5.8029   -2.9759   19.4615 C.ar    1  UNL1        0.0376
     37 C           6.5040   -3.6353   20.6120 C.ar    1  UNL1        0.0043
     38 C           5.8880   -3.6103   21.9795 C.ar    1  UNL1        0.0142
     39 C           4.5710   -2.9260   22.1964 C.ar    1  UNL1        0.0043
     40 C           3.8699   -2.2666   21.0459 C.ar    1  UNL1        0.0376
     41 C           6.5891   -4.2698   23.1300 C.2     1  UNL1        0.0729
     42 O           7.5433   -5.3995   22.8788 O.co2   1  UNL1       -0.5446
     43 O           6.3359   -3.7994   24.5317 O.co2   1  UNL1       -0.5446
@<TRIPOS>UNITY_ATOM_ATTR
42 1
charge -1
@<TRIPOS>BOND
     1    27    28    1
     2    28    29   ar
     3    29    30   ar
     4    30    34    1
     5    34    35    1
     6    35    36   ar
     7    36    37   ar
     8    37    38   ar
     9    38    41    1
    10    41    42   ar
    11    41    43   ar
    12    38    39   ar
    13    39    40   ar
    14    30    31   ar
    15    31    32   ar
    16    32    33   ar
    17    33    26    1
    18    26     1    1
    19     1     2    1
    20     2     3    1
    21     3     4    1
    22     4     7    1
    23     7     8   am
    24     8     9    2
    25     8    10   am
    26    10    20    1
    27    20    21    1
    28    21    22    1
    29    22    23    1
    30    23    24    1
    31    24    25    1
    32    10    11    1
    33    11    12    1
    34    12    13    1
    35    13    14   ar
    36    14    15   ar
    37    15    16   ar
    38    16    17   ar
    39    17    18    1
    40    17    19   ar
    41     4     5    1
    42     5     6    1
    43    33    28   ar
    44     6     1    1
    45    40    35   ar
    46    12     7    1
    47    19    13   ar
    48    25    20    1
