@<TRIPOS>MOLECULE
*****
 32 35 0 0 0
SMALL
GASTEIGER

@<TRIPOS>ATOM
      1 C          -1.8300    4.1998   18.4518 C.2     1  UNL1        0.2534
      2 O          -1.8750    3.6845   17.0438 O.2     1  UNL1       -0.2695
      3 N          -0.5101    4.4917   19.1018 N.am    1  UNL1       -0.2965
      4 H          -0.4806    4.8299   20.0259 H       1  UNL1        0.1501
      5 C          -7.8613    4.4979   23.4676 C.3     1  UNL1        0.0537
      6 C          -7.0163    4.7291   22.2500 C.ar    1  UNL1        0.0771
      7 N          -7.5347    5.5785   21.1276 N.ar    1  UNL1       -0.1522
      8 N          -6.6897    5.8097   19.9100 N.ar    1  UNL1       -0.1416
      9 C          -5.3263    5.1916   19.8148 C.ar    1  UNL1        0.1333
     10 S          -4.2739    5.2416   18.7472 S.2     1  UNL1       -0.0604
     11 C          -3.1051    4.4231   19.2097 C.ar    1  UNL1        0.0971
     12 C          -3.4351    3.8673   20.5633 C.ar    1  UNL1        0.0538
     13 N          -2.5481    2.9905   21.3966 N.pl3   1  UNL1       -0.3564
     14 C          -4.8080    4.3423   20.9372 C.ar    1  UNL1        0.0363
     15 C          -5.6529    4.1110   22.1548 C.ar    1  UNL1       -0.0033
     16 C          -5.1345    3.2616   23.2772 C.3     1  UNL1        0.0324
     17 H          -1.6588    2.7311   21.0632 H       1  UNL1        0.1424
     18 H          -2.8552    2.6743   22.2769 H       1  UNL1        0.1424
     19 C           0.7648    4.2683   18.3438 C.3     1  UNL1        0.1166
     20 C           1.4602    2.9414   18.4203 C.ar    1  UNL1       -0.0026
     21 C           0.6574    1.6793   18.5326 C.ar    1  UNL1       -0.0026
     22 C           1.3528    0.3525   18.6090 C.ar    1  UNL1       -0.0002
     23 C           2.8510    0.2877   18.5731 C.ar    1  UNL1        0.0015
     24 C           3.6538    1.5498   18.4608 C.ar    1  UNL1       -0.0002
     25 C           2.9584    2.8766   18.3844 C.ar    1  UNL1       -0.0026
     26 C           3.5464   -1.0392   18.6496 C.ar    1  UNL1        0.0193
     27 C           3.1008   -2.0629   19.6514 C.ar    1  UNL1        0.0055
     28 C           3.7962   -3.3898   19.7278 C.ar    1  UNL1        0.0497
     29 C           4.9371   -3.6930   18.8024 C.ar    1  UNL1        0.2223
     30 F           5.6325   -5.0199   18.8788 F       1  UNL1       -0.1832
     31 N           5.3827   -2.6693   17.8006 N.ar    1  UNL1       -0.2165
     32 C           4.6873   -1.3425   17.7242 C.ar    1  UNL1        0.1012
@<TRIPOS>BOND
     1     5     6    1
     2     6     7   ar
     3     7     8   ar
     4     8     9   ar
     5     9    10   ar
     6    10    11   ar
     7    11     1    1
     8     1     2    2
     9     1     3   am
    10     3    19    1
    11    19    20    1
    12    20    21   ar
    13    21    22   ar
    14    22    23   ar
    15    23    26    1
    16    26    27   ar
    17    27    28   ar
    18    28    29   ar
    19    29    30    1
    20    29    31   ar
    21    31    32   ar
    22    23    24   ar
    23    24    25   ar
    24    11    12   ar
    25    12    13    1
    26    12    14   ar
    27    14    15   ar
    28    15    16    1
    29    15     6   ar
    30    14     9   ar
    31    25    20   ar
    32    32    26   ar
    33     3     4    1
    34    13    17    1
    35    13    18    1
@<TRIPOS>MOLECULE
*****
 32 35 0 0 0
SMALL
GASTEIGER

@<TRIPOS>ATOM
      1 C          -2.2921    3.2587   25.4275 C.2     1  UNL1        0.2534
      2 O          -1.9328    3.0498   26.8688 O.2     1  UNL1       -0.2695
      3 N          -1.2820    2.9784   24.3546 N.am    1  UNL1       -0.2965
      4 H          -1.5178    3.1155   23.4086 H       1  UNL1        0.1501
      5 C          -9.4353    6.4644   24.8609 C.3     1  UNL1        0.0537
      6 C          -8.1949    5.6942   24.5170 C.ar    1  UNL1        0.0771
      7 N          -8.0858    5.0011   23.1913 N.ar    1  UNL1       -0.1522
      8 N          -6.8454    4.2309   22.8474 N.ar    1  UNL1       -0.1416
      9 C          -5.7141    4.1539   23.8293 C.ar    1  UNL1        0.1333
     10 S          -4.3781    3.4745   23.7700 S.2     1  UNL1       -0.0604
     11 C          -3.6614    3.7478   25.0591 C.ar    1  UNL1        0.0971
     12 C          -4.5545    4.5961   25.9151 C.ar    1  UNL1        0.0538
     13 N          -4.2351    5.1042   27.2898 N.pl3   1  UNL1       -0.3564
     14 C          -5.8232    4.8471   25.1550 C.ar    1  UNL1        0.0363
     15 C          -7.0636    5.6172   25.4989 C.ar    1  UNL1       -0.0033
     16 C          -7.1726    6.3104   26.8247 C.3     1  UNL1        0.0324
     17 H          -3.3709    4.8848   27.7073 H       1  UNL1        0.1424
     18 H          -4.8897    5.6571   27.7747 H       1  UNL1        0.1424
     19 C           0.0873    2.4893   24.7230 C.3     1  UNL1        0.1166
     20 C           0.8352    1.5816   23.7919 C.ar    1  UNL1       -0.0026
     21 C           1.9499    0.7247   24.3143 C.ar    1  UNL1       -0.0026
     22 C           2.6978   -0.1829   23.3833 C.ar    1  UNL1       -0.0002
     23 C           2.3308   -0.2336   21.9297 C.ar    1  UNL1        0.0015
     24 C           1.2161    0.6233   21.4073 C.ar    1  UNL1       -0.0002
     25 C           0.4683    1.5309   22.3383 C.ar    1  UNL1       -0.0026
     26 C           3.0787   -1.1413   20.9986 C.ar    1  UNL1        0.0193
     27 C           3.9041   -2.2659   21.5497 C.ar    1  UNL1        0.0055
     28 C           4.6520   -3.1736   20.6186 C.ar    1  UNL1        0.0497
     29 C           4.5745   -2.9565   19.1364 C.ar    1  UNL1        0.2223
     30 F           5.3223   -3.8641   18.2054 F       1  UNL1       -0.1832
     31 N           3.7490   -1.8318   18.5854 N.ar    1  UNL1       -0.2165
     32 C           3.0012   -0.9242   19.5164 C.ar    1  UNL1        0.1012
@<TRIPOS>BOND
     1     5     6    1
     2     6     7   ar
     3     7     8   ar
     4     8     9   ar
     5     9    10   ar
     6    10    11   ar
     7    11     1    1
     8     1     2    2
     9     1     3   am
    10     3    19    1
    11    19    20    1
    12    20    21   ar
    13    21    22   ar
    14    22    23   ar
    15    23    26    1
    16    26    27   ar
    17    27    28   ar
    18    28    29   ar
    19    29    30    1
    20    29    31   ar
    21    31    32   ar
    22    23    24   ar
    23    24    25   ar
    24    11    12   ar
    25    12    13    1
    26    12    14   ar
    27    14    15   ar
    28    15    16    1
    29    15     6   ar
    30    14     9   ar
    31    25    20   ar
    32    32    26   ar
    33     3     4    1
    34    13    17    1
    35    13    18    1
@<TRIPOS>MOLECULE
*****
 32 35 0 0 0
SMALL
GASTEIGER

@<TRIPOS>ATOM
      1 C          -2.9480    3.2430   21.6956 C.2     1  UNL1        0.2534
      2 O          -3.8688    2.9336   20.5527 O.2     1  UNL1       -0.2695
      3 N          -1.4691    3.0452   21.5419 N.am    1  UNL1       -0.2965
      4 H          -0.8647    3.2483   22.2921 H       1  UNL1        0.1501
      5 C          -7.0784    6.2504   27.6554 C.3     1  UNL1        0.0537
      6 C          -5.9633    5.6101   26.8830 C.ar    1  UNL1        0.0771
      7 N          -4.6998    5.2078   27.5842 N.ar    1  UNL1       -0.1522
      8 N          -3.5847    4.5675   26.8118 N.ar    1  UNL1       -0.1416
      9 C          -3.7331    4.3294   25.3383 C.ar    1  UNL1        0.1333
     10 S          -2.8119    3.7228   24.3218 S.2     1  UNL1       -0.0604
     11 C          -3.5061    3.7501   22.9923 C.ar    1  UNL1        0.0971
     12 C          -4.8564    4.3736   23.1872 C.ar    1  UNL1        0.0538
     13 N          -5.8857    4.5995   22.1197 N.pl3   1  UNL1       -0.3564
     14 C          -4.9967    4.7317   24.6372 C.ar    1  UNL1        0.0363
     15 C          -6.1118    5.3720   25.4095 C.ar    1  UNL1       -0.0033
     16 C          -7.3754    5.7742   24.7083 C.3     1  UNL1        0.0324
     17 H          -5.6998    4.3288   21.1916 H       1  UNL1        0.1424
     18 H          -6.7471    5.0184   22.3472 H       1  UNL1        0.1424
     19 C          -0.9110    2.5381   20.2453 C.3     1  UNL1        0.1166
     20 C           0.1976    1.5276   20.2500 C.ar    1  UNL1       -0.0026
     21 C           0.8509    1.1250   18.9612 C.ar    1  UNL1       -0.0026
     22 C           1.9595    0.1146   18.9660 C.ar    1  UNL1       -0.0002
     23 C           2.4149   -0.4931   20.2595 C.ar    1  UNL1        0.0015
     24 C           1.7616   -0.0905   21.5483 C.ar    1  UNL1       -0.0002
     25 C           0.6530    0.9199   21.5436 C.ar    1  UNL1       -0.0026
     26 C           3.5235   -1.5036   20.2643 C.ar    1  UNL1        0.0193
     27 C           3.3281   -2.8345   19.6007 C.ar    1  UNL1        0.0055
     28 C           4.4368   -3.8449   19.6054 C.ar    1  UNL1        0.0497
     29 C           5.7409   -3.5243   20.2737 C.ar    1  UNL1        0.2223
     30 F           6.8495   -4.5347   20.2785 F       1  UNL1       -0.1832
     31 N           5.9362   -2.1933   20.9373 N.ar    1  UNL1       -0.2165
     32 C           4.8276   -1.1830   20.9326 C.ar    1  UNL1        0.1012
@<TRIPOS>BOND
     1     5     6    1
     2     6     7   ar
     3     7     8   ar
     4     8     9   ar
     5     9    10   ar
     6    10    11   ar
     7    11     1    1
     8     1     2    2
     9     1     3   am
    10     3    19    1
    11    19    20    1
    12    20    21   ar
    13    21    22   ar
    14    22    23   ar
    15    23    26    1
    16    26    27   ar
    17    27    28   ar
    18    28    29   ar
    19    29    30    1
    20    29    31   ar
    21    31    32   ar
    22    23    24   ar
    23    24    25   ar
    24    11    12   ar
    25    12    13    1
    26    12    14   ar
    27    14    15   ar
    28    15    16    1
    29    15     6   ar
    30    14     9   ar
    31    25    20   ar
    32    32    26   ar
    33     3     4    1
    34    13    17    1
    35    13    18    1
@<TRIPOS>MOLECULE
*****
 32 35 0 0 0
SMALL
GASTEIGER

@<TRIPOS>ATOM
      1 C           6.7449   -4.9038   30.2861 C.2     1  UNL1        0.2534
      2 O           6.8444   -6.0318   31.2698 O.2     1  UNL1       -0.2695
      3 N           6.3952   -3.5242   30.7598 N.am    1  UNL1       -0.2965
      4 H           6.3298   -2.7839   30.1141 H       1  UNL1        0.1501
      5 C           8.8882   -7.3752   23.1501 C.3     1  UNL1        0.0537
      6 C           8.2423   -6.5679   24.2369 C.ar    1  UNL1        0.0771
      7 N           7.3837   -5.3890   23.8860 N.ar    1  UNL1       -0.1522
      8 N           6.7379   -4.5817   24.9728 N.ar    1  UNL1       -0.1416
      9 C           6.9505   -4.9532   26.4104 C.ar    1  UNL1        0.1333
     10 S           6.4474   -4.3496   27.6881 S.2     1  UNL1       -0.0604
     11 C           6.9950   -5.1554   28.8286 C.ar    1  UNL1        0.0971
     12 C           7.8366   -6.2571   28.2558 C.ar    1  UNL1        0.0538
     13 N           8.5758   -7.3005   29.0398 N.pl3   1  UNL1       -0.3564
     14 C           7.8091   -6.1320   26.7612 C.ar    1  UNL1        0.0363
     15 C           8.4550   -6.9394   25.6745 C.ar    1  UNL1       -0.0033
     16 C           9.3135   -8.1183   26.0254 C.3     1  UNL1        0.0324
     17 H           8.5325   -7.2998   30.0234 H       1  UNL1        0.1424
     18 H           9.1044   -7.9860   28.5709 H       1  UNL1        0.1424
     19 C           6.1451   -3.2726   32.2172 C.3     1  UNL1        0.1166
     20 C           5.3782   -2.0574   32.6477 C.ar    1  UNL1       -0.0026
     21 C           4.2491   -1.5451   31.8036 C.ar    1  UNL1       -0.0026
     22 C           3.4823   -0.3300   32.2342 C.ar    1  UNL1       -0.0002
     23 C           3.8445    0.3728   33.5089 C.ar    1  UNL1        0.0015
     24 C           4.9736   -0.1395   34.3530 C.ar    1  UNL1       -0.0002
     25 C           5.7405   -1.3547   33.9225 C.ar    1  UNL1       -0.0026
     26 C           3.0777    1.5880   33.9394 C.ar    1  UNL1        0.0193
     27 C           3.2199    2.1075   35.3393 C.ar    1  UNL1        0.0055
     28 C           2.4530    3.3227   35.7699 C.ar    1  UNL1        0.0497
     29 C           1.5439    4.0183   34.8005 C.ar    1  UNL1        0.2223
     30 F           0.7770    5.2334   35.2310 F       1  UNL1       -0.1832
     31 N           1.4017    3.4986   33.4005 N.ar    1  UNL1       -0.2165
     32 C           2.1686    2.2835   32.9700 C.ar    1  UNL1        0.1012
@<TRIPOS>BOND
     1     5     6    1
     2     6     7   ar
     3     7     8   ar
     4     8     9   ar
     5     9    10   ar
     6    10    11   ar
     7    11     1    1
     8     1     2    2
     9     1     3   am
    10     3    19    1
    11    19    20    1
    12    20    21   ar
    13    21    22   ar
    14    22    23   ar
    15    23    26    1
    16    26    27   ar
    17    27    28   ar
    18    28    29   ar
    19    29    30    1
    20    29    31   ar
    21    31    32   ar
    22    23    24   ar
    23    24    25   ar
    24    11    12   ar
    25    12    13    1
    26    12    14   ar
    27    14    15   ar
    28    15    16    1
    29    15     6   ar
    30    14     9   ar
    31    25    20   ar
    32    32    26   ar
    33     3     4    1
    34    13    17    1
    35    13    18    1
@<TRIPOS>MOLECULE
*****
 32 35 0 0 0
SMALL
GASTEIGER

@<TRIPOS>ATOM
      1 C           7.2568   -4.2170   25.7892 C.2     1  UNL1        0.2534
      2 O           8.6614   -3.7662   26.0613 O.2     1  UNL1       -0.2695
      3 N           6.5037   -4.9933   26.8284 N.am    1  UNL1       -0.2965
      4 H           5.5819   -5.2892   26.6498 H       1  UNL1        0.1501
      5 C           2.9840   -1.5931   19.7491 C.3     1  UNL1        0.0537
      6 C           4.0115   -2.3509   20.5365 C.ar    1  UNL1        0.0771
      7 N           4.9382   -3.3027   19.8400 N.ar    1  UNL1       -0.1522
      8 N           5.9657   -4.0605   20.6274 N.ar    1  UNL1       -0.1416
      9 C           6.0665   -3.8665   22.1114 C.ar    1  UNL1        0.1333
     10 S           6.9723   -4.4702   23.1434 S.2     1  UNL1       -0.0604
     11 C           6.6054   -3.8915   24.4777 C.ar    1  UNL1        0.0971
     12 C           5.4728   -2.9301   24.2705 C.ar    1  UNL1        0.0538
     13 N           4.7927   -2.1255   25.3381 N.pl3   1  UNL1       -0.3564
     14 C           5.1397   -2.9147   22.8079 C.ar    1  UNL1        0.0363
     15 C           4.1122   -2.1569   22.0205 C.ar    1  UNL1       -0.0033
     16 C           3.1855   -1.2051   22.7171 C.3     1  UNL1        0.0324
     17 H           5.0844   -2.2045   26.2751 H       1  UNL1        0.1424
     18 H           4.0546   -1.5183   25.1019 H       1  UNL1        0.1424
     19 C           7.1551   -5.3188   28.1398 C.3     1  UNL1        0.1166
     20 C           6.8833   -4.4669   29.3442 C.ar    1  UNL1       -0.0026
     21 C           6.5439   -3.0156   29.1752 C.ar    1  UNL1       -0.0026
     22 C           6.2721   -2.1639   30.3795 C.ar    1  UNL1       -0.0002
     23 C           6.3397   -2.7633   31.7529 C.ar    1  UNL1        0.0015
     24 C           6.6792   -4.2146   31.9219 C.ar    1  UNL1       -0.0002
     25 C           6.9509   -5.0664   30.7175 C.ar    1  UNL1       -0.0026
     26 C           6.0679   -1.9114   32.9573 C.ar    1  UNL1        0.0193
     27 C           7.1373   -1.0057   33.4921 C.ar    1  UNL1        0.0055
     28 C           6.8654   -0.1538   34.6965 C.ar    1  UNL1        0.0497
     29 C           5.5242   -0.2077   35.3660 C.ar    1  UNL1        0.2223
     30 F           5.2524    0.6441   36.5703 F       1  UNL1       -0.1832
     31 N           4.4549   -1.1135   34.8311 N.ar    1  UNL1       -0.2165
     32 C           4.7267   -1.9654   33.6268 C.ar    1  UNL1        0.1012
@<TRIPOS>BOND
     1     5     6    1
     2     6     7   ar
     3     7     8   ar
     4     8     9   ar
     5     9    10   ar
     6    10    11   ar
     7    11     1    1
     8     1     2    2
     9     1     3   am
    10     3    19    1
    11    19    20    1
    12    20    21   ar
    13    21    22   ar
    14    22    23   ar
    15    23    26    1
    16    26    27   ar
    17    27    28   ar
    18    28    29   ar
    19    29    30    1
    20    29    31   ar
    21    31    32   ar
    22    23    24   ar
    23    24    25   ar
    24    11    12   ar
    25    12    13    1
    26    12    14   ar
    27    14    15   ar
    28    15    16    1
    29    15     6   ar
    30    14     9   ar
    31    25    20   ar
    32    32    26   ar
    33     3     4    1
    34    13    17    1
    35    13    18    1
@<TRIPOS>MOLECULE
*****
 32 35 0 0 0
SMALL
GASTEIGER

@<TRIPOS>ATOM
      1 C           6.8304   -4.7381   23.8718 C.2     1  UNL1        0.2534
      2 O           7.6503   -5.4164   22.8147 O.2     1  UNL1       -0.2695
      3 N           5.6455   -3.9049   23.4823 N.am    1  UNL1       -0.2965
      4 H           5.1073   -3.4597   24.1762 H       1  UNL1        0.1501
      5 C           9.1589   -6.9387   31.0383 C.3     1  UNL1        0.0537
      6 C           8.6160   -6.1021   29.9179 C.ar    1  UNL1        0.0771
      7 N           8.1622   -4.6972   30.1828 N.ar    1  UNL1       -0.1522
      8 N           7.6193   -3.8605   29.0624 N.ar    1  UNL1       -0.1416
      9 C           7.5301   -4.4289   27.6772 C.ar    1  UNL1        0.1333
     10 S           7.0428   -3.8474   26.3832 S.2     1  UNL1       -0.0604
     11 C           7.1954   -4.8930   25.3185 C.ar    1  UNL1        0.0971
     12 C           7.7770   -6.1207   25.9545 C.ar    1  UNL1        0.0538
     13 N           8.0957   -7.4090   25.2556 N.pl3   1  UNL1       -0.3564
     14 C           7.9838   -5.8338   27.4123 C.ar    1  UNL1        0.0363
     15 C           8.5268   -6.6704   28.5327 C.ar    1  UNL1       -0.0033
     16 C           8.9805   -8.0754   28.2677 C.3     1  UNL1        0.0324
     17 H           7.9233   -7.5013   24.2907 H       1  UNL1        0.1424
     18 H           8.4773   -8.1623   25.7617 H       1  UNL1        0.1424
     19 C           5.2805   -3.7500   22.0357 C.3     1  UNL1        0.1166
     20 C           4.3136   -2.6827   21.6162 C.ar    1  UNL1       -0.0026
     21 C           3.8333   -2.6217   20.1965 C.ar    1  UNL1       -0.0026
     22 C           2.8664   -1.5544   19.7771 C.ar    1  UNL1       -0.0002
     23 C           2.3798   -0.5481   20.7774 C.ar    1  UNL1        0.0015
     24 C           2.8601   -0.6091   22.1971 C.ar    1  UNL1       -0.0002
     25 C           3.8270   -1.6764   22.6165 C.ar    1  UNL1       -0.0026
     26 C           1.4129    0.5192   20.3579 C.ar    1  UNL1        0.0193
     27 C           1.4943    1.1054   18.9796 C.ar    1  UNL1        0.0055
     28 C           0.5274    2.1727   18.5601 C.ar    1  UNL1        0.0497
     29 C          -0.5210    2.6539   19.5190 C.ar    1  UNL1        0.2223
     30 F          -1.4879    3.7211   19.0996 F       1  UNL1       -0.1832
     31 N          -0.6024    2.0677   20.8974 N.ar    1  UNL1       -0.2165
     32 C           0.3645    1.0004   21.3168 C.ar    1  UNL1        0.1012
@<TRIPOS>BOND
     1     5     6    1
     2     6     7   ar
     3     7     8   ar
     4     8     9   ar
     5     9    10   ar
     6    10    11   ar
     7    11     1    1
     8     1     2    2
     9     1     3   am
    10     3    19    1
    11    19    20    1
    12    20    21   ar
    13    21    22   ar
    14    22    23   ar
    15    23    26    1
    16    26    27   ar
    17    27    28   ar
    18    28    29   ar
    19    29    30    1
    20    29    31   ar
    21    31    32   ar
    22    23    24   ar
    23    24    25   ar
    24    11    12   ar
    25    12    13    1
    26    12    14   ar
    27    14    15   ar
    28    15    16    1
    29    15     6   ar
    30    14     9   ar
    31    25    20   ar
    32    32    26   ar
    33     3     4    1
    34    13    17    1
    35    13    18    1
@<TRIPOS>MOLECULE
*****
 32 35 0 0 0
SMALL
GASTEIGER

@<TRIPOS>ATOM
      1 C           2.4047    1.0963   24.0525 C.2     1  UNL1        0.2534
      2 O           2.7091    2.4846   23.5729 O.2     1  UNL1       -0.2695
      3 N           1.5608    0.8936   25.2759 N.am    1  UNL1       -0.2965
      4 H           1.3610   -0.0176   25.5907 H       1  UNL1        0.1501
      5 C           4.7246   -4.3872   18.9366 C.3     1  UNL1        0.0537
      6 C           4.4833   -3.6639   20.2283 C.ar    1  UNL1        0.0771
      7 N           4.9353   -4.2707   21.5235 N.ar    1  UNL1       -0.1522
      8 N           4.6939   -3.5473   22.8152 N.ar    1  UNL1       -0.1416
      9 C           4.0007   -2.2172   22.8118 C.ar    1  UNL1        0.1333
     10 S           3.6271   -1.2771   23.9193 S.2     1  UNL1       -0.0604
     11 C           2.9443   -0.0893   23.3087 C.ar    1  UNL1        0.0971
     12 C           2.8958   -0.2952   21.8237 C.ar    1  UNL1        0.0538
     13 N           2.2992    0.6482   20.8217 N.pl3   1  UNL1       -0.3564
     14 C           3.5487   -1.6104   21.5166 C.ar    1  UNL1        0.0363
     15 C           3.7900   -2.3337   20.2249 C.ar    1  UNL1       -0.0033
     16 C           3.3380   -1.7269   18.9297 C.3     1  UNL1        0.0324
     17 H           1.8911    1.4922   21.1225 H       1  UNL1        0.1424
     18 H           2.3158    0.4235   19.8634 H       1  UNL1        0.1424
     19 C           1.0212    2.0792   26.0196 C.3     1  UNL1        0.1166
     20 C          -0.3634    2.5789   25.7312 C.ar    1  UNL1       -0.0026
     21 C          -0.7590    2.9230   24.3259 C.ar    1  UNL1       -0.0026
     22 C          -2.1436    3.4227   24.0375 C.ar    1  UNL1       -0.0002
     23 C          -3.1326    3.5783   25.1545 C.ar    1  UNL1        0.0015
     24 C          -2.7370    3.2342   26.5598 C.ar    1  UNL1       -0.0002
     25 C          -1.3524    2.7345   26.8482 C.ar    1  UNL1       -0.0026
     26 C          -4.5172    4.0780   24.8660 C.ar    1  UNL1        0.0193
     27 C          -5.1964    3.7061   23.5814 C.ar    1  UNL1        0.0055
     28 C          -6.5810    4.2058   23.2929 C.ar    1  UNL1        0.0497
     29 C          -7.2864    5.0775   24.2892 C.ar    1  UNL1        0.2223
     30 F          -8.6710    5.5772   24.0009 F       1  UNL1       -0.1832
     31 N          -6.6072    5.4494   25.5739 N.ar    1  UNL1       -0.2165
     32 C          -5.2227    4.9497   25.8623 C.ar    1  UNL1        0.1012
@<TRIPOS>BOND
     1     5     6    1
     2     6     7   ar
     3     7     8   ar
     4     8     9   ar
     5     9    10   ar
     6    10    11   ar
     7    11     1    1
     8     1     2    2
     9     1     3   am
    10     3    19    1
    11    19    20    1
    12    20    21   ar
    13    21    22   ar
    14    22    23   ar
    15    23    26    1
    16    26    27   ar
    17    27    28   ar
    18    28    29   ar
    19    29    30    1
    20    29    31   ar
    21    31    32   ar
    22    23    24   ar
    23    24    25   ar
    24    11    12   ar
    25    12    13    1
    26    12    14   ar
    27    14    15   ar
    28    15    16    1
    29    15     6   ar
    30    14     9   ar
    31    25    20   ar
    32    32    26   ar
    33     3     4    1
    34    13    17    1
    35    13    18    1
@<TRIPOS>MOLECULE
*****
 32 35 0 0 0
SMALL
GASTEIGER

@<TRIPOS>ATOM
      1 C           1.3629    1.5242   28.6126 C.2     1  UNL1        0.2534
      2 O           0.8082    2.9140   28.7169 O.2     1  UNL1       -0.2695
      3 N           1.2646    0.7726   27.3182 N.am    1  UNL1       -0.2965
      4 H           1.6287   -0.1395   27.2498 H       1  UNL1        0.1501
      5 C           4.6836   -0.4401   35.4491 C.3     1  UNL1        0.0537
      6 C           4.1349   -0.5444   34.0570 C.ar    1  UNL1        0.0771
      7 N           4.1682   -1.8583   33.3341 N.ar    1  UNL1       -0.1522
      8 N           3.6195   -1.9626   31.9420 N.ar    1  UNL1       -0.1416
      9 C           3.0373   -0.7530   31.2728 C.ar    1  UNL1        0.1333
     10 S           2.4266   -0.5521   29.9175 S.2     1  UNL1       -0.0604
     11 C           2.0158    0.8860   29.8028 C.ar    1  UNL1        0.0971
     12 C           2.3726    1.5739   31.0871 C.ar    1  UNL1        0.0538
     13 N           2.1391    3.0207   31.4068 N.pl3   1  UNL1       -0.3564
     14 C           3.0039    0.5609   31.9956 C.ar    1  UNL1        0.0363
     15 C           3.5527    0.6652   33.3877 C.ar    1  UNL1       -0.0033
     16 C           3.5193    1.9792   34.1106 C.3     1  UNL1        0.0324
     17 H           1.7154    3.6097   30.7414 H       1  UNL1        0.1424
     18 H           2.4096    3.3813   32.2821 H       1  UNL1        0.1424
     19 C           0.6117    1.4108   26.1282 C.3     1  UNL1        0.1166
     20 C           1.0709    1.0613   24.7435 C.ar    1  UNL1       -0.0026
     21 C           0.3335    1.5958   23.5516 C.ar    1  UNL1       -0.0026
     22 C           0.7927    1.2463   22.1671 C.ar    1  UNL1       -0.0002
     23 C           1.9892    0.3624   21.9744 C.ar    1  UNL1        0.0015
     24 C           2.7265   -0.1721   23.1663 C.ar    1  UNL1       -0.0002
     25 C           2.2673    0.1774   24.5509 C.ar    1  UNL1       -0.0026
     26 C           2.4483    0.0129   20.5898 C.ar    1  UNL1        0.0193
     27 C           3.1780   -1.2744   20.3442 C.ar    1  UNL1        0.0055
     28 C           3.6372   -1.6238   18.9595 C.ar    1  UNL1        0.0497
     29 C           3.3666   -0.6860   17.8206 C.ar    1  UNL1        0.2223
     30 F           3.8257   -1.0354   16.4360 F       1  UNL1       -0.1832
     31 N           2.6369    0.6014   18.0663 N.ar    1  UNL1       -0.2165
     32 C           2.1778    0.9508   19.4509 C.ar    1  UNL1        0.1012
@<TRIPOS>BOND
     1     5     6    1
     2     6     7   ar
     3     7     8   ar
     4     8     9   ar
     5     9    10   ar
     6    10    11   ar
     7    11     1    1
     8     1     2    2
     9     1     3   am
    10     3    19    1
    11    19    20    1
    12    20    21   ar
    13    21    22   ar
    14    22    23   ar
    15    23    26    1
    16    26    27   ar
    17    27    28   ar
    18    28    29   ar
    19    29    30    1
    20    29    31   ar
    21    31    32   ar
    22    23    24   ar
    23    24    25   ar
    24    11    12   ar
    25    12    13    1
    26    12    14   ar
    27    14    15   ar
    28    15    16    1
    29    15     6   ar
    30    14     9   ar
    31    25    20   ar
    32    32    26   ar
    33     3     4    1
    34    13    17    1
    35    13    18    1
@<TRIPOS>MOLECULE
*****
 32 35 0 0 0
SMALL
GASTEIGER

@<TRIPOS>ATOM
      1 C           2.8667    0.3221   25.1633 C.2     1  UNL1        0.2534
      2 O           2.7727    1.7721   24.7911 O.2     1  UNL1       -0.2695
      3 N           2.4308   -0.1326   26.5246 N.am    1  UNL1       -0.2965
      4 H           2.4925   -1.0843   26.7689 H       1  UNL1        0.1501
      5 C           4.7671   -4.1542   19.0009 C.3     1  UNL1        0.0537
      6 C           4.7191   -3.6106   20.3981 C.ar    1  UNL1        0.0771
      7 N           5.5410   -4.2474   21.4793 N.ar    1  UNL1       -0.1522
      8 N           5.4931   -3.7038   22.8765 N.ar    1  UNL1       -0.1416
      9 C           4.6232   -2.5234   23.1925 C.ar    1  UNL1        0.1333
     10 S           4.3731   -1.7736   24.4673 S.2     1  UNL1       -0.0604
     11 C           3.3967   -0.6733   24.1741 C.ar    1  UNL1        0.0971
     12 C           3.0432   -0.7432   22.7180 C.ar    1  UNL1        0.0538
     13 N           2.0977    0.1700   21.9954 N.pl3   1  UNL1       -0.3564
     14 C           3.8013   -1.8867   22.1114 C.ar    1  UNL1        0.0363
     15 C           3.8492   -2.4303   20.7142 C.ar    1  UNL1       -0.0033
     16 C           3.0272   -1.7934   19.6330 C.3     1  UNL1        0.0324
     17 H           1.6453    0.8959   22.4829 H       1  UNL1        0.1424
     18 H           1.9296    0.0435   21.0337 H       1  UNL1        0.1424
     19 C           1.9009    0.8627   27.5137 C.3     1  UNL1        0.1166
     20 C           2.3159    0.7836   28.9531 C.ar    1  UNL1       -0.0026
     21 C           2.4598    2.0384   29.7622 C.ar    1  UNL1       -0.0026
     22 C           2.8747    1.9592   31.2015 C.ar    1  UNL1       -0.0002
     23 C           3.1458    0.6253   31.8316 C.ar    1  UNL1        0.0015
     24 C           3.0019   -0.6295   31.0224 C.ar    1  UNL1       -0.0002
     25 C           2.5869   -0.5504   29.5832 C.ar    1  UNL1       -0.0026
     26 C           3.5607    0.5461   33.2709 C.ar    1  UNL1        0.0193
     27 C           4.2972   -0.6599   33.7739 C.ar    1  UNL1        0.0055
     28 C           4.7121   -0.7390   35.2133 C.ar    1  UNL1        0.0497
     29 C           4.3906    0.3879   36.1495 C.ar    1  UNL1        0.2223
     30 F           4.8055    0.3088   37.5888 F       1  UNL1       -0.1832
     31 N           3.6541    1.5940   35.6465 N.ar    1  UNL1       -0.2165
     32 C           3.2392    1.6731   34.2072 C.ar    1  UNL1        0.1012
@<TRIPOS>BOND
     1     5     6    1
     2     6     7   ar
     3     7     8   ar
     4     8     9   ar
     5     9    10   ar
     6    10    11   ar
     7    11     1    1
     8     1     2    2
     9     1     3   am
    10     3    19    1
    11    19    20    1
    12    20    21   ar
    13    21    22   ar
    14    22    23   ar
    15    23    26    1
    16    26    27   ar
    17    27    28   ar
    18    28    29   ar
    19    29    30    1
    20    29    31   ar
    21    31    32   ar
    22    23    24   ar
    23    24    25   ar
    24    11    12   ar
    25    12    13    1
    26    12    14   ar
    27    14    15   ar
    28    15    16    1
    29    15     6   ar
    30    14     9   ar
    31    25    20   ar
    32    32    26   ar
    33     3     4    1
    34    13    17    1
    35    13    18    1
