@<TRIPOS>MOLECULE
*****
 39 42 0 0 0
SMALL
GASTEIGER

@<TRIPOS>ATOM
      1 C           6.8670   -1.5916   23.9556 C.3     1  UNL1        0.1323
      2 C           7.2901   -3.0290   24.0259 C.ar    1  UNL1        0.1409
      3 N           7.3641   -3.7250   25.3526 N.ar    1  UNL1       -0.2305
      4 C           7.7872   -5.1624   25.4230 C.ar    1  UNL1        0.0881
      5 C           7.8611   -5.8584   26.7496 C.ar    1  UNL1        0.0307
      6 C           8.2842   -7.2957   26.8199 C.ar    1  UNL1        0.0592
      7 CL          8.3582   -7.9918   28.1467 Cl      1  UNL1       -0.0822
      8 C           8.6333   -8.0371   25.5636 C.ar    1  UNL1        0.0116
      9 C           8.5593   -7.3412   24.2369 C.ar    1  UNL1        0.0071
     10 C           8.1363   -5.9038   24.1666 C.ar    1  UNL1        0.0739
     11 C           8.0623   -5.2078   22.8398 C.ar    1  UNL1        0.2634
     12 O           8.4114   -5.9492   21.5835 O.2     1  UNL1       -0.2669
     13 N           7.6392   -3.7704   22.7695 N.ar    1  UNL1       -0.2785
     14 C           7.5652   -3.0744   21.4428 C.3     1  UNL1        0.1369
     15 C           6.3897   -3.3043   20.5398 C.ar    1  UNL1        0.0005
     16 C           6.4095   -2.7796   19.1347 C.ar    1  UNL1       -0.0024
     17 C           5.2340   -3.0095   18.2317 C.ar    1  UNL1       -0.0003
     18 C           4.0388   -3.7641   18.7338 C.ar    1  UNL1       -0.0000
     19 C           4.0191   -4.2888   20.1389 C.ar    1  UNL1       -0.0003
     20 C           5.1946   -4.0589   21.0419 C.ar    1  UNL1       -0.0024
     21 C           5.3061   -0.3682   22.2771 C.2     1  UNL1        0.2493
     22 O           6.5051    0.1482   21.5385 O.2     1  UNL1       -0.2699
     23 N           5.4870   -1.2381   23.4857 N.am    1  UNL1       -0.2708
     24 C          -0.2137    1.0456   20.3977 C.3     1  UNL1        0.0310
     25 C           1.1662    0.6922   20.8675 C.ar    1  UNL1       -0.0218
     26 C           1.8852    1.5928   21.8279 C.ar    1  UNL1       -0.0041
     27 C           3.2651    1.2393   22.2977 C.ar    1  UNL1        0.0042
     28 C           3.9261   -0.0148   21.8073 C.ar    1  UNL1        0.0536
     29 C           3.2072   -0.9153   20.8470 C.ar    1  UNL1        0.0042
     30 C           1.8272   -0.5618   20.3771 C.ar    1  UNL1       -0.0041
     31 C           4.2880   -1.7546   24.2243 C.3     1  UNL1        0.0955
     32 C           3.7073   -0.9628   25.3584 C.3     1  UNL1        0.0383
     33 C           4.0870   -1.2888   26.7724 C.3     1  UNL1        0.0669
     34 N           5.0386   -2.4138   27.0532 N.3     1  UNL1       -0.3211
     35 H           4.6081   -3.2984   26.7838 H       1  UNL1        0.1189
     36 H           5.2590   -2.4323   28.0489 H       1  UNL1        0.1189
     37 C           7.8238   -0.5077   24.3550 C.3     1  UNL1        0.0255
     38 C           9.2222   -0.5045   23.8126 C.3     1  UNL1        0.0022
     39 C           7.3822    0.5728   25.2970 C.3     1  UNL1        0.0022
@<TRIPOS>BOND
     1    24    25    1
     2    25    26   ar
     3    26    27   ar
     4    27    28   ar
     5    28    21    1
     6    21    22    2
     7    21    23   am
     8    23    31    1
     9    31    32    1
    10    32    33    1
    11    33    34    1
    12    23     1    1
    13     1     2    1
    14     2     3   ar
    15     3     4   ar
    16     4     5   ar
    17     5     6   ar
    18     6     7    1
    19     6     8   ar
    20     8     9   ar
    21     9    10   ar
    22    10    11   ar
    23    11    12    2
    24    11    13   ar
    25    13    14    1
    26    14    15    1
    27    15    16   ar
    28    16    17   ar
    29    17    18   ar
    30    18    19   ar
    31    19    20   ar
    32     1    37    1
    33    37    38    1
    34    37    39    1
    35    28    29   ar
    36    29    30   ar
    37    30    25   ar
    38    13     2   ar
    39    20    15   ar
    40    10     4   ar
    41    34    35    1
    42    34    36    1
@<TRIPOS>MOLECULE
*****
 39 42 0 0 0
SMALL
GASTEIGER

@<TRIPOS>ATOM
      1 C           4.4472   -3.1114   19.9611 C.3     1  UNL1        0.1323
      2 C           5.6756   -3.2589   20.8093 C.ar    1  UNL1        0.1409
      3 N           5.5880   -3.9361   22.1449 N.ar    1  UNL1       -0.2305
      4 C           6.8164   -4.0835   22.9931 C.ar    1  UNL1        0.0881
      5 C           6.7287   -4.7607   24.3286 C.ar    1  UNL1        0.0307
      6 C           7.9571   -4.9081   25.1768 C.ar    1  UNL1        0.0592
      7 CL          7.8695   -5.5853   26.5124 Cl      1  UNL1       -0.0822
      8 C           9.2731   -4.3783   24.6894 C.ar    1  UNL1        0.0116
      9 C           9.3607   -3.7011   23.3538 C.ar    1  UNL1        0.0071
     10 C           8.1323   -3.5537   22.5057 C.ar    1  UNL1        0.0739
     11 C           8.2199   -2.8765   21.1701 C.ar    1  UNL1        0.2634
     12 O           9.5359   -2.3467   20.6827 O.2     1  UNL1       -0.2669
     13 N           6.9916   -2.7291   20.3219 N.ar    1  UNL1       -0.2785
     14 C           7.0792   -2.0519   18.9863 C.3     1  UNL1        0.1369
     15 C           7.1143   -0.5545   18.9056 C.ar    1  UNL1        0.0005
     16 C           7.2119    0.1225   17.5705 C.ar    1  UNL1       -0.0024
     17 C           7.2470    1.6199   17.4898 C.ar    1  UNL1       -0.0003
     18 C           7.1846    2.4403   18.7441 C.ar    1  UNL1       -0.0000
     19 C           7.0871    1.7633   20.0790 C.ar    1  UNL1       -0.0003
     20 C           7.0519    0.2659   20.1597 C.ar    1  UNL1       -0.0024
     21 C           3.6159   -1.0678   18.5891 C.2     1  UNL1        0.2493
     22 O           4.2107   -1.6603   17.3461 O.2     1  UNL1       -0.2699
     23 N           3.7341   -1.7934   19.8966 N.am    1  UNL1       -0.2708
     24 C           0.7635    4.2045   18.3311 C.3     1  UNL1        0.0310
     25 C           1.4766    2.8864   18.3956 C.ar    1  UNL1       -0.0218
     26 C           2.9751    2.8463   18.4502 C.ar    1  UNL1       -0.0041
     27 C           3.6882    1.5283   18.5146 C.ar    1  UNL1        0.0042
     28 C           2.9028    0.2503   18.5246 C.ar    1  UNL1        0.0536
     29 C           1.4043    0.2905   18.4701 C.ar    1  UNL1        0.0042
     30 C           0.6912    1.6085   18.4056 C.ar    1  UNL1       -0.0041
     31 C           3.1393   -1.2009   21.1396 C.3     1  UNL1        0.0955
     32 C           3.9880   -0.3680   22.0539 C.3     1  UNL1        0.0383
     33 C           3.7826    1.1163   22.1229 C.3     1  UNL1        0.0669
     34 N           2.4071    1.6915   21.9586 N.3     1  UNL1       -0.3211
     35 H           2.0769    1.5175   21.0093 H       1  UNL1        0.1189
     36 H           2.4363    2.6967   22.1295 H       1  UNL1        0.1189
     37 C           3.9320   -4.2820   19.1774 C.3     1  UNL1        0.0255
     38 C           4.8880   -5.3099   18.6488 C.3     1  UNL1        0.0022
     39 C           2.4607   -4.4248   18.9224 C.3     1  UNL1        0.0022
@<TRIPOS>BOND
     1    24    25    1
     2    25    26   ar
     3    26    27   ar
     4    27    28   ar
     5    28    21    1
     6    21    22    2
     7    21    23   am
     8    23    31    1
     9    31    32    1
    10    32    33    1
    11    33    34    1
    12    23     1    1
    13     1     2    1
    14     2     3   ar
    15     3     4   ar
    16     4     5   ar
    17     5     6   ar
    18     6     7    1
    19     6     8   ar
    20     8     9   ar
    21     9    10   ar
    22    10    11   ar
    23    11    12    2
    24    11    13   ar
    25    13    14    1
    26    14    15    1
    27    15    16   ar
    28    16    17   ar
    29    17    18   ar
    30    18    19   ar
    31    19    20   ar
    32     1    37    1
    33    37    38    1
    34    37    39    1
    35    28    29   ar
    36    29    30   ar
    37    30    25   ar
    38    13     2   ar
    39    20    15   ar
    40    10     4   ar
    41    34    35    1
    42    34    36    1
@<TRIPOS>MOLECULE
*****
 39 42 0 0 0
SMALL
GASTEIGER

@<TRIPOS>ATOM
      1 C           0.5247    3.4524   24.1786 C.3     1  UNL1        0.1323
      2 C          -0.9574    3.6189   24.3395 C.ar    1  UNL1        0.1409
      3 N          -1.8471    3.6235   23.1318 N.ar    1  UNL1       -0.2305
      4 C          -3.3291    3.7901   23.2927 C.ar    1  UNL1        0.0881
      5 C          -4.2188    3.7947   22.0851 C.ar    1  UNL1        0.0307
      6 C          -5.7008    3.9612   22.2460 C.ar    1  UNL1        0.0592
      7 CL         -6.5905    3.9659   21.0383 Cl      1  UNL1       -0.0822
      8 C          -6.2931    4.1232   23.6145 C.ar    1  UNL1        0.0116
      9 C          -5.4034    4.1186   24.8222 C.ar    1  UNL1        0.0071
     10 C          -3.9215    3.9520   24.6613 C.ar    1  UNL1        0.0739
     11 C          -3.0317    3.9474   25.8689 C.ar    1  UNL1        0.2634
     12 O          -3.6240    4.1093   27.2375 O.2     1  UNL1       -0.2669
     13 N          -1.5497    3.7808   25.7080 N.ar    1  UNL1       -0.2785
     14 C          -0.6600    3.7762   26.9157 C.3     1  UNL1        0.1369
     15 C          -0.3043    2.4793   27.5802 C.ar    1  UNL1        0.0005
     16 C           1.0674    2.2823   28.1544 C.ar    1  UNL1       -0.0024
     17 C           1.4231    0.9854   28.8190 C.ar    1  UNL1       -0.0003
     18 C           0.4070   -0.1144   28.9093 C.ar    1  UNL1       -0.0000
     19 C          -0.9646    0.0826   28.3351 C.ar    1  UNL1       -0.0003
     20 C          -1.3203    1.3795   27.6706 C.ar    1  UNL1       -0.0024
     21 C           1.5675    2.2518   22.1240 C.2     1  UNL1        0.2493
     22 O           1.5096    3.5329   21.3460 O.2     1  UNL1       -0.2699
     23 N           1.0750    2.2115   23.5404 N.am    1  UNL1       -0.2708
     24 C           3.7689   -2.7117   19.5710 C.3     1  UNL1        0.0310
     25 C           3.2185   -1.4708   20.2093 C.ar    1  UNL1       -0.0218
     26 C           1.7542   -1.1616   20.1081 C.ar    1  UNL1       -0.0041
     27 C           1.2038    0.0792   20.7464 C.ar    1  UNL1        0.0042
     28 C           2.1178    1.0109   21.4858 C.ar    1  UNL1        0.0536
     29 C           3.5821    0.7017   21.5869 C.ar    1  UNL1        0.0042
     30 C           4.1324   -0.5391   20.9486 C.ar    1  UNL1       -0.0041
     31 C           1.1329    0.9304   24.3183 C.3     1  UNL1        0.0955
     32 C           2.3068    0.6453   25.2076 C.3     1  UNL1        0.0383
     33 C           3.1858   -0.5386   24.9328 C.3     1  UNL1        0.0669
     34 N           3.5364   -1.4860   26.0417 N.3     1  UNL1       -0.3211
     35 H           4.1112   -1.0032   26.7323 H       1  UNL1        0.1189
     36 H           4.0549   -2.2777   25.6613 H       1  UNL1        0.1189
     37 C           1.4563    4.5266   24.6560 C.3     1  UNL1        0.0255
     38 C           1.1114    5.9700   24.4376 C.3     1  UNL1        0.0022
     39 C           2.7329    4.1576   25.3518 C.3     1  UNL1        0.0022
@<TRIPOS>BOND
     1    24    25    1
     2    25    26   ar
     3    26    27   ar
     4    27    28   ar
     5    28    21    1
     6    21    22    2
     7    21    23   am
     8    23    31    1
     9    31    32    1
    10    32    33    1
    11    33    34    1
    12    23     1    1
    13     1     2    1
    14     2     3   ar
    15     3     4   ar
    16     4     5   ar
    17     5     6   ar
    18     6     7    1
    19     6     8   ar
    20     8     9   ar
    21     9    10   ar
    22    10    11   ar
    23    11    12    2
    24    11    13   ar
    25    13    14    1
    26    14    15    1
    27    15    16   ar
    28    16    17   ar
    29    17    18   ar
    30    18    19   ar
    31    19    20   ar
    32     1    37    1
    33    37    38    1
    34    37    39    1
    35    28    29   ar
    36    29    30   ar
    37    30    25   ar
    38    13     2   ar
    39    20    15   ar
    40    10     4   ar
    41    34    35    1
    42    34    36    1
@<TRIPOS>MOLECULE
*****
 39 42 0 0 0
SMALL
GASTEIGER

@<TRIPOS>ATOM
      1 C           5.7913   -0.6731   23.6397 C.3     1  UNL1        0.1323
      2 C           6.2044   -2.0053   24.1917 C.ar    1  UNL1        0.1409
      3 N           6.0706   -2.2831   25.6596 N.ar    1  UNL1       -0.2305
      4 C           6.4837   -3.6153   26.2117 C.ar    1  UNL1        0.0881
      5 C           6.3498   -3.8930   27.6796 C.ar    1  UNL1        0.0307
      6 C           6.7629   -5.2251   28.2316 C.ar    1  UNL1        0.0592
      7 CL          6.6290   -5.5029   29.6996 Cl      1  UNL1       -0.0822
      8 C           7.3098   -6.2796   27.3156 C.ar    1  UNL1        0.0116
      9 C           7.4437   -6.0018   25.8476 C.ar    1  UNL1        0.0071
     10 C           7.0306   -4.6697   25.2957 C.ar    1  UNL1        0.0739
     11 C           7.1645   -4.3919   23.8277 C.ar    1  UNL1        0.2634
     12 O           7.7114   -5.4463   22.9117 O.2     1  UNL1       -0.2669
     13 N           6.7514   -3.0598   23.2757 N.ar    1  UNL1       -0.2785
     14 C           6.8853   -2.7820   21.8077 C.3     1  UNL1        0.1369
     15 C           5.8563   -3.3035   20.8488 C.ar    1  UNL1        0.0005
     16 C           6.0205   -3.0754   19.3753 C.ar    1  UNL1       -0.0024
     17 C           4.9916   -3.5969   18.4165 C.ar    1  UNL1       -0.0003
     18 C           3.7985   -4.3464   18.9312 C.ar    1  UNL1       -0.0000
     19 C           3.6344   -4.5744   20.4046 C.ar    1  UNL1       -0.0003
     20 C           4.6633   -4.0530   21.3634 C.ar    1  UNL1       -0.0024
     21 C           4.0565    1.0008   24.6084 C.2     1  UNL1        0.2493
     22 O           5.1611    1.7489   25.2940 O.2     1  UNL1       -0.2699
     23 N           4.3716   -0.2103   23.7812 N.am    1  UNL1       -0.2708
     24 C          -1.6226    2.8522   25.1745 C.3     1  UNL1        0.0310
     25 C          -0.2028    2.3894   25.0330 C.ar    1  UNL1       -0.0218
     26 C           0.3638    1.3990   26.0068 C.ar    1  UNL1       -0.0041
     27 C           1.7835    0.9362   25.8653 C.ar    1  UNL1        0.0042
     28 C           2.6367    1.4636   24.7499 C.ar    1  UNL1        0.0536
     29 C           2.0701    2.4539   23.7761 C.ar    1  UNL1        0.0042
     30 C           0.6503    2.9167   23.9176 C.ar    1  UNL1       -0.0041
     31 C           3.2669   -0.9584   23.0956 C.3     1  UNL1        0.0955
     32 C           3.0236   -0.7587   21.6290 C.3     1  UNL1        0.0383
     33 C           1.7662   -0.0873   21.1620 C.3     1  UNL1        0.0669
     34 N           0.8851   -0.7631   20.1536 N.3     1  UNL1       -0.3211
     35 H           1.3798   -0.8363   19.2646 H       1  UNL1        0.1189
     36 H           0.0339   -0.2160   20.0250 H       1  UNL1        0.1189
     37 C           6.7980    0.1961   22.9461 C.3     1  UNL1        0.0255
     38 C           6.4296    0.9030   21.6755 C.3     1  UNL1        0.0022
     39 C           8.1730    0.3585   23.5233 C.3     1  UNL1        0.0022
@<TRIPOS>BOND
     1    24    25    1
     2    25    26   ar
     3    26    27   ar
     4    27    28   ar
     5    28    21    1
     6    21    22    2
     7    21    23   am
     8    23    31    1
     9    31    32    1
    10    32    33    1
    11    33    34    1
    12    23     1    1
    13     1     2    1
    14     2     3   ar
    15     3     4   ar
    16     4     5   ar
    17     5     6   ar
    18     6     7    1
    19     6     8   ar
    20     8     9   ar
    21     9    10   ar
    22    10    11   ar
    23    11    12    2
    24    11    13   ar
    25    13    14    1
    26    14    15    1
    27    15    16   ar
    28    16    17   ar
    29    17    18   ar
    30    18    19   ar
    31    19    20   ar
    32     1    37    1
    33    37    38    1
    34    37    39    1
    35    28    29   ar
    36    29    30   ar
    37    30    25   ar
    38    13     2   ar
    39    20    15   ar
    40    10     4   ar
    41    34    35    1
    42    34    36    1
@<TRIPOS>MOLECULE
*****
 39 42 0 0 0
SMALL
GASTEIGER

@<TRIPOS>ATOM
      1 C           1.6065    3.6231   19.6029 C.3     1  UNL1        0.1323
      2 C           0.2897    3.6319   20.3214 C.ar    1  UNL1        0.1409
      3 N          -0.9905    3.5738   19.5419 N.ar    1  UNL1       -0.2305
      4 C          -2.3072    3.5826   20.2604 C.ar    1  UNL1        0.0881
      5 C          -3.5874    3.5245   19.4809 C.ar    1  UNL1        0.0307
      6 C          -4.9040    3.5333   20.1995 C.ar    1  UNL1        0.0592
      7 CL         -6.1843    3.4752   19.4200 Cl      1  UNL1       -0.0822
      8 C          -4.9404    3.6001   21.6975 C.ar    1  UNL1        0.0116
      9 C          -3.6603    3.6581   22.4771 C.ar    1  UNL1        0.0071
     10 C          -2.3436    3.6494   21.7585 C.ar    1  UNL1        0.0739
     11 C          -1.0633    3.7074   22.5380 C.ar    1  UNL1        0.2634
     12 O          -1.0998    3.7742   24.0361 O.2     1  UNL1       -0.2669
     13 N           0.2533    3.6987   21.8195 N.ar    1  UNL1       -0.2785
     14 C           1.5336    3.7567   22.5990 C.3     1  UNL1        0.1369
     15 C           2.0149    2.5457   23.3418 C.ar    1  UNL1        0.0005
     16 C           2.8207    2.7068   24.5968 C.ar    1  UNL1       -0.0024
     17 C           3.3020    1.4958   25.3396 C.ar    1  UNL1       -0.0003
     18 C           2.9776    0.1237   24.8275 C.ar    1  UNL1       -0.0000
     19 C           2.1719   -0.0373   23.5725 C.ar    1  UNL1       -0.0003
     20 C           1.6905    1.1737   22.8297 C.ar    1  UNL1       -0.0024
     21 C           1.8719    1.1498   18.8530 C.2     1  UNL1        0.2493
     22 O           0.5111    1.1945   18.2237 O.2     1  UNL1       -0.2699
     23 N           2.4196    2.3641   19.5427 N.am    1  UNL1       -0.2708
     24 C           5.1246   -3.8863   18.6123 C.3     1  UNL1        0.0310
     25 C           4.3115   -2.6273   18.6725 C.ar    1  UNL1       -0.0218
     26 C           3.3942   -2.3817   19.8337 C.ar    1  UNL1       -0.0041
     27 C           2.5810   -1.1227   19.8939 C.ar    1  UNL1        0.0042
     28 C           2.6851   -0.1093   18.7928 C.ar    1  UNL1        0.0536
     29 C           3.6023   -0.3549   17.6317 C.ar    1  UNL1        0.0042
     30 C           4.4155   -1.6139   17.5715 C.ar    1  UNL1       -0.0041
     31 C           3.7804    2.3194   20.1720 C.3     1  UNL1        0.0955
     32 C           4.9961    2.6399   19.3538 C.3     1  UNL1        0.0383
     33 C           6.1815    1.7212   19.3803 C.3     1  UNL1        0.0669
     34 N           6.1132    0.4303   20.1413 N.3     1  UNL1       -0.3211
     35 H           6.0278    0.6276   21.1384 H       1  UNL1        0.1189
     36 H           6.9624   -0.1090   19.9728 H       1  UNL1        0.1189
     37 C           2.1099    4.8733   18.9446 C.3     1  UNL1        0.0255
     38 C           2.4985    4.8538   17.4959 C.3     1  UNL1        0.0022
     39 C           2.2249    6.1430   19.7349 C.3     1  UNL1        0.0022
@<TRIPOS>BOND
     1    24    25    1
     2    25    26   ar
     3    26    27   ar
     4    27    28   ar
     5    28    21    1
     6    21    22    2
     7    21    23   am
     8    23    31    1
     9    31    32    1
    10    32    33    1
    11    33    34    1
    12    23     1    1
    13     1     2    1
    14     2     3   ar
    15     3     4   ar
    16     4     5   ar
    17     5     6   ar
    18     6     7    1
    19     6     8   ar
    20     8     9   ar
    21     9    10   ar
    22    10    11   ar
    23    11    12    2
    24    11    13   ar
    25    13    14    1
    26    14    15    1
    27    15    16   ar
    28    16    17   ar
    29    17    18   ar
    30    18    19   ar
    31    19    20   ar
    32     1    37    1
    33    37    38    1
    34    37    39    1
    35    28    29   ar
    36    29    30   ar
    37    30    25   ar
    38    13     2   ar
    39    20    15   ar
    40    10     4   ar
    41    34    35    1
    42    34    36    1
@<TRIPOS>MOLECULE
*****
 39 42 0 0 0
SMALL
GASTEIGER

@<TRIPOS>ATOM
      1 C           6.9475   -1.2065   25.0856 C.3     1  UNL1        0.1323
      2 C           6.2685   -1.6349   23.8185 C.ar    1  UNL1        0.1409
      3 N           4.9678   -1.0061   23.4150 N.ar    1  UNL1       -0.2305
      4 C           4.2888   -1.4346   22.1479 C.ar    1  UNL1        0.0881
      5 C           2.9882   -0.8058   21.7443 C.ar    1  UNL1        0.0307
      6 C           2.3093   -1.2342   20.4773 C.ar    1  UNL1        0.0592
      7 CL          1.0086   -0.6054   20.0737 Cl      1  UNL1       -0.0822
      8 C           2.9310   -2.2915   19.6138 C.ar    1  UNL1        0.0116
      9 C           4.2317   -2.9203   20.0173 C.ar    1  UNL1        0.0071
     10 C           4.9106   -2.4918   21.2843 C.ar    1  UNL1        0.0739
     11 C           6.2113   -3.1206   21.6879 C.ar    1  UNL1        0.2634
     12 O           6.8330   -4.1779   20.8244 O.2     1  UNL1       -0.2669
     13 N           6.8902   -2.6922   22.9550 N.ar    1  UNL1       -0.2785
     14 C           8.1909   -3.3210   23.3586 C.3     1  UNL1        0.1369
     15 C           8.2420   -4.7780   23.7115 C.ar    1  UNL1        0.0005
     16 C           9.0639   -5.7217   22.8844 C.ar    1  UNL1       -0.0024
     17 C           9.1150   -7.1787   23.2373 C.ar    1  UNL1       -0.0003
     18 C           8.3441   -7.6920   24.4173 C.ar    1  UNL1       -0.0000
     19 C           7.5222   -6.7483   25.2443 C.ar    1  UNL1       -0.0003
     20 C           7.4712   -5.2913   24.8914 C.ar    1  UNL1       -0.0024
     21 C           7.8604   -2.6238   27.0625 C.2     1  UNL1        0.2493
     22 O           9.2457   -2.5209   26.4965 O.2     1  UNL1       -0.2699
     23 N           6.7113   -1.9666   26.3570 N.am    1  UNL1       -0.2708
     24 C           6.9156   -5.6641   32.1481 C.3     1  UNL1        0.0310
     25 C           7.1518   -4.9040   30.8767 C.ar    1  UNL1       -0.0218
     26 C           7.5351   -3.4547   30.9295 C.ar    1  UNL1       -0.0041
     27 C           7.7713   -2.6947   29.6581 C.ar    1  UNL1        0.0042
     28 C           7.6242   -3.3839   28.3339 C.ar    1  UNL1        0.0536
     29 C           7.2409   -4.8331   28.2812 C.ar    1  UNL1        0.0042
     30 C           7.0047   -5.5932   29.5526 C.ar    1  UNL1       -0.0041
     31 C           5.3260   -2.0695   26.9230 C.3     1  UNL1        0.0955
     32 C           4.6675   -0.8606   27.5187 C.3     1  UNL1        0.0383
     33 C           3.2894   -0.4639   27.0789 C.3     1  UNL1        0.0669
     34 N           2.9371   -0.4684   25.6209 N.3     1  UNL1       -0.3211
     35 H           3.4825    0.2449   25.1371 H       1  UNL1        0.1189
     36 H           1.9428   -0.2690   25.5107 H       1  UNL1        0.1189
     37 C           7.8626   -0.0181   25.0813 C.3     1  UNL1        0.0255
     38 C           8.8426    0.1698   23.9614 C.3     1  UNL1        0.0022
     39 C           7.7977    0.9826   26.1968 C.3     1  UNL1        0.0022
@<TRIPOS>BOND
     1    24    25    1
     2    25    26   ar
     3    26    27   ar
     4    27    28   ar
     5    28    21    1
     6    21    22    2
     7    21    23   am
     8    23    31    1
     9    31    32    1
    10    32    33    1
    11    33    34    1
    12    23     1    1
    13     1     2    1
    14     2     3   ar
    15     3     4   ar
    16     4     5   ar
    17     5     6   ar
    18     6     7    1
    19     6     8   ar
    20     8     9   ar
    21     9    10   ar
    22    10    11   ar
    23    11    12    2
    24    11    13   ar
    25    13    14    1
    26    14    15    1
    27    15    16   ar
    28    16    17   ar
    29    17    18   ar
    30    18    19   ar
    31    19    20   ar
    32     1    37    1
    33    37    38    1
    34    37    39    1
    35    28    29   ar
    36    29    30   ar
    37    30    25   ar
    38    13     2   ar
    39    20    15   ar
    40    10     4   ar
    41    34    35    1
    42    34    36    1
@<TRIPOS>MOLECULE
*****
 39 42 0 0 0
SMALL
GASTEIGER

@<TRIPOS>ATOM
      1 C           4.8236    1.7972   32.8980 C.3     1  UNL1        0.1323
      2 C           4.6823    2.0149   34.3755 C.ar    1  UNL1        0.1409
      3 N           5.9021    2.0563   35.2474 N.ar    1  UNL1       -0.2305
      4 C           5.7609    2.2740   36.7249 C.ar    1  UNL1        0.0881
      5 C           6.9807    2.3155   37.5969 C.ar    1  UNL1        0.0307
      6 C           6.8394    2.5331   39.0742 C.ar    1  UNL1        0.0592
      7 CL          8.0592    2.5746   39.9463 Cl      1  UNL1       -0.0822
      8 C           5.4783    2.7094   39.6796 C.ar    1  UNL1        0.0116
      9 C           4.2585    2.6679   38.8076 C.ar    1  UNL1        0.0071
     10 C           4.3998    2.4502   37.3303 C.ar    1  UNL1        0.0739
     11 C           3.1800    2.4088   36.4582 C.ar    1  UNL1        0.2634
     12 O           1.8190    2.5850   37.0636 O.2     1  UNL1       -0.2669
     13 N           3.3213    2.1911   34.9808 N.ar    1  UNL1       -0.2785
     14 C           2.1015    2.1496   34.1088 C.3     1  UNL1        0.1369
     15 C           1.5766    3.4126   33.4929 C.ar    1  UNL1        0.0005
     16 C           1.5965    4.6928   34.2745 C.ar    1  UNL1       -0.0024
     17 C           1.0716    5.9558   33.6587 C.ar    1  UNL1       -0.0003
     18 C           0.5268    5.9386   32.2612 C.ar    1  UNL1       -0.0000
     19 C           0.5069    4.6585   31.4796 C.ar    1  UNL1       -0.0003
     20 C           1.0318    3.3955   32.0955 C.ar    1  UNL1       -0.0024
     21 C           6.3374   -0.1283   32.0313 C.2     1  UNL1        0.2493
     22 O           7.5501    0.7271   32.2490 O.2     1  UNL1       -0.2699
     23 N           4.9741    0.4067   32.3558 N.am    1  UNL1       -0.2708
     24 C           6.9392   -5.6901   29.8625 C.3     1  UNL1        0.0310
     25 C           6.7888   -4.2997   30.4047 C.ar    1  UNL1       -0.0218
     26 C           6.6900   -3.1348   29.4648 C.ar    1  UNL1       -0.0041
     27 C           6.5395   -1.7443   30.0070 C.ar    1  UNL1        0.0042
     28 C           6.4878   -1.5188   31.4891 C.ar    1  UNL1        0.0536
     29 C           6.5866   -2.6836   32.4289 C.ar    1  UNL1        0.0042
     30 C           6.7371   -4.0741   31.8867 C.ar    1  UNL1       -0.0041
     31 C           3.7613   -0.4487   32.1381 C.3     1  UNL1        0.0955
     32 C           3.1818   -0.5921   30.7620 C.3     1  UNL1        0.0383
     33 C           1.9928    0.2291   30.3596 C.3     1  UNL1        0.0669
     34 N           0.8123   -0.4291   29.7091 N.3     1  UNL1       -0.3211
     35 H           1.0858   -0.7922   28.7960 H       1  UNL1        0.1189
     36 H           0.0635    0.2538   29.5931 H       1  UNL1        0.1189
     37 C           4.8144    2.9699   31.9629 C.3     1  UNL1        0.0255
     38 C           4.9272    4.3634   32.5064 C.3     1  UNL1        0.0022
     39 C           4.6923    2.7492   30.4842 C.3     1  UNL1        0.0022
@<TRIPOS>BOND
     1    24    25    1
     2    25    26   ar
     3    26    27   ar
     4    27    28   ar
     5    28    21    1
     6    21    22    2
     7    21    23   am
     8    23    31    1
     9    31    32    1
    10    32    33    1
    11    33    34    1
    12    23     1    1
    13     1     2    1
    14     2     3   ar
    15     3     4   ar
    16     4     5   ar
    17     5     6   ar
    18     6     7    1
    19     6     8   ar
    20     8     9   ar
    21     9    10   ar
    22    10    11   ar
    23    11    12    2
    24    11    13   ar
    25    13    14    1
    26    14    15    1
    27    15    16   ar
    28    16    17   ar
    29    17    18   ar
    30    18    19   ar
    31    19    20   ar
    32     1    37    1
    33    37    38    1
    34    37    39    1
    35    28    29   ar
    36    29    30   ar
    37    30    25   ar
    38    13     2   ar
    39    20    15   ar
    40    10     4   ar
    41    34    35    1
    42    34    36    1
@<TRIPOS>MOLECULE
*****
 39 42 0 0 0
SMALL
GASTEIGER

@<TRIPOS>ATOM
      1 C           6.6297   -1.4980   24.2911 C.3     1  UNL1        0.1323
      2 C           7.0893   -2.9259   24.2818 C.ar    1  UNL1        0.1409
      3 N           7.2190   -3.6803   25.5717 N.ar    1  UNL1       -0.2305
      4 C           7.6785   -5.1082   25.5625 C.ar    1  UNL1        0.0881
      5 C           7.8083   -5.8627   26.8524 C.ar    1  UNL1        0.0307
      6 C           8.2678   -7.2905   26.8431 C.ar    1  UNL1        0.0592
      7 CL          8.3976   -8.0451   28.1331 Cl      1  UNL1       -0.0822
      8 C           8.5975   -7.9639   25.5440 C.ar    1  UNL1        0.0116
      9 C           8.4677   -7.2094   24.2541 C.ar    1  UNL1        0.0071
     10 C           8.0083   -5.7816   24.2633 C.ar    1  UNL1        0.0739
     11 C           7.8785   -5.0271   22.9734 C.ar    1  UNL1        0.2634
     12 O           8.2082   -5.7004   21.6742 O.2     1  UNL1       -0.2669
     13 N           7.4190   -3.5992   22.9827 N.ar    1  UNL1       -0.2785
     14 C           7.2892   -2.8447   21.6927 C.3     1  UNL1        0.1369
     15 C           6.2004   -3.1982   20.7234 C.ar    1  UNL1        0.0005
     16 C           6.3180   -2.7944   19.2835 C.ar    1  UNL1       -0.0024
     17 C           5.2293   -3.1479   18.3141 C.ar    1  UNL1       -0.0003
     18 C           4.0229   -3.9051   18.7847 C.ar    1  UNL1       -0.0000
     19 C           3.9053   -4.3088   20.2245 C.ar    1  UNL1       -0.0003
     20 C           4.9941   -3.9554   21.1938 C.ar    1  UNL1       -0.0024
     21 C           5.2534   -0.3959   26.1992 C.2     1  UNL1        0.2493
     22 O           6.5255   -0.0094   26.8936 O.2     1  UNL1       -0.2699
     23 N           5.3055   -1.1402   24.8979 N.am    1  UNL1       -0.2708
     24 C          -0.0438    1.0353   28.6266 C.3     1  UNL1        0.0310
     25 C           1.2805    0.6775   28.0198 C.ar    1  UNL1       -0.0218
     26 C           1.8998    1.5740   26.9888 C.ar    1  UNL1       -0.0041
     27 C           3.2241    1.2162   26.3820 C.ar    1  UNL1        0.0042
     28 C           3.9291   -0.0381   26.8061 C.ar    1  UNL1        0.0536
     29 C           3.3098   -0.9345   27.8370 C.ar    1  UNL1        0.0042
     30 C           1.9855   -0.5768   28.4438 C.ar    1  UNL1       -0.0041
     31 C           4.0333   -1.5267   24.2035 C.3     1  UNL1        0.0955
     32 C           3.3904   -0.5796   23.2341 C.3     1  UNL1        0.0383
     33 C           3.5680   -0.7817   21.7585 C.3     1  UNL1        0.0669
     34 N           2.3729   -1.0273   20.8859 N.3     1  UNL1       -0.3211
     35 H           1.9511   -1.9230   21.1312 H       1  UNL1        0.1189
     36 H           2.6635   -1.0447   19.9083 H       1  UNL1        0.1189
     37 C           7.4945   -0.4279   23.6935 C.3     1  UNL1        0.0255
     38 C           8.9669   -0.4070   23.9791 C.3     1  UNL1        0.0022
     39 C           6.8869    0.6212   22.8102 C.3     1  UNL1        0.0022
@<TRIPOS>BOND
     1    24    25    1
     2    25    26   ar
     3    26    27   ar
     4    27    28   ar
     5    28    21    1
     6    21    22    2
     7    21    23   am
     8    23    31    1
     9    31    32    1
    10    32    33    1
    11    33    34    1
    12    23     1    1
    13     1     2    1
    14     2     3   ar
    15     3     4   ar
    16     4     5   ar
    17     5     6   ar
    18     6     7    1
    19     6     8   ar
    20     8     9   ar
    21     9    10   ar
    22    10    11   ar
    23    11    12    2
    24    11    13   ar
    25    13    14    1
    26    14    15    1
    27    15    16   ar
    28    16    17   ar
    29    17    18   ar
    30    18    19   ar
    31    19    20   ar
    32     1    37    1
    33    37    38    1
    34    37    39    1
    35    28    29   ar
    36    29    30   ar
    37    30    25   ar
    38    13     2   ar
    39    20    15   ar
    40    10     4   ar
    41    34    35    1
    42    34    36    1
@<TRIPOS>MOLECULE
*****
 39 42 0 0 0
SMALL
GASTEIGER

@<TRIPOS>ATOM
      1 C           6.7406   -1.6159   28.1412 C.3     1  UNL1        0.1323
      2 C           7.0968   -3.0728   28.1671 C.ar    1  UNL1        0.1409
      3 N           7.6723   -3.7260   26.9456 N.ar    1  UNL1       -0.2305
      4 C           8.0285   -5.1829   26.9715 C.ar    1  UNL1        0.0881
      5 C           8.6040   -5.8361   25.7500 C.ar    1  UNL1        0.0307
      6 C           8.9602   -7.2930   25.7760 C.ar    1  UNL1        0.0592
      7 CL          9.5358   -7.9463   24.5545 Cl      1  UNL1       -0.0822
      8 C           8.7408   -8.0966   27.0234 C.ar    1  UNL1        0.0116
      9 C           8.1652   -7.4434   28.2449 C.ar    1  UNL1        0.0071
     10 C           7.8091   -5.9866   28.2189 C.ar    1  UNL1        0.0739
     11 C           7.2335   -5.3333   29.4404 C.ar    1  UNL1        0.2634
     12 O           7.0141   -6.1370   30.6878 O.2     1  UNL1       -0.2669
     13 N           6.8774   -3.8765   29.4145 N.ar    1  UNL1       -0.2785
     14 C           6.3018   -3.2232   30.6360 C.3     1  UNL1        0.1369
     15 C           7.2125   -2.6111   31.6588 C.ar    1  UNL1        0.0005
     16 C           8.6036   -3.1428   31.8383 C.ar    1  UNL1       -0.0024
     17 C           9.5143   -2.5307   32.8610 C.ar    1  UNL1       -0.0003
     18 C           9.0339   -1.3869   33.7042 C.ar    1  UNL1       -0.0000
     19 C           7.6428   -0.8552   33.5247 C.ar    1  UNL1       -0.0003
     20 C           6.7321   -1.4673   32.5019 C.ar    1  UNL1       -0.0024
     21 C           5.6231   -0.3476   26.1682 C.2     1  UNL1        0.2493
     22 O           6.9772    0.0060   25.6285 O.2     1  UNL1       -0.2699
     23 N           5.5048   -1.1586   27.4246 N.am    1  UNL1       -0.2708
     24 C           0.6797    1.4816   23.3018 C.3     1  UNL1        0.0310
     25 C           1.9155    1.0243   24.0184 C.ar    1  UNL1       -0.0218
     26 C           2.5596   -0.2783   23.6462 C.ar    1  UNL1       -0.0041
     27 C           3.7954   -0.7356   24.3629 C.ar    1  UNL1        0.0042
     28 C           4.3872    0.1097   25.4516 C.ar    1  UNL1        0.0536
     29 C           3.7432    1.4123   25.8237 C.ar    1  UNL1        0.0042
     30 C           2.5073    1.8696   25.1070 C.ar    1  UNL1       -0.0041
     31 C           4.1507   -1.5122   27.9643 C.3     1  UNL1        0.0955
     32 C           3.5148   -0.6528   29.0165 C.3     1  UNL1        0.0383
     33 C           2.0402   -0.3813   28.9728 C.3     1  UNL1        0.0669
     34 N           1.3383    0.1457   30.1892 N.3     1  UNL1       -0.3211
     35 H           1.3604   -0.5588   30.9265 H       1  UNL1        0.1189
     36 H           0.3695    0.3629   29.9553 H       1  UNL1        0.1189
     37 C           7.6203   -0.6164   28.8319 C.3     1  UNL1        0.0255
     38 C           9.1017   -0.8413   28.8993 C.3     1  UNL1        0.0022
     39 C           7.0184    0.6080   29.4553 C.3     1  UNL1        0.0022
@<TRIPOS>BOND
     1    24    25    1
     2    25    26   ar
     3    26    27   ar
     4    27    28   ar
     5    28    21    1
     6    21    22    2
     7    21    23   am
     8    23    31    1
     9    31    32    1
    10    32    33    1
    11    33    34    1
    12    23     1    1
    13     1     2    1
    14     2     3   ar
    15     3     4   ar
    16     4     5   ar
    17     5     6   ar
    18     6     7    1
    19     6     8   ar
    20     8     9   ar
    21     9    10   ar
    22    10    11   ar
    23    11    12    2
    24    11    13   ar
    25    13    14    1
    26    14    15    1
    27    15    16   ar
    28    16    17   ar
    29    17    18   ar
    30    18    19   ar
    31    19    20   ar
    32     1    37    1
    33    37    38    1
    34    37    39    1
    35    28    29   ar
    36    29    30   ar
    37    30    25   ar
    38    13     2   ar
    39    20    15   ar
    40    10     4   ar
    41    34    35    1
    42    34    36    1
