@<TRIPOS>MOLECULE
*****
 28 31 0 0 0
SMALL
GASTEIGER

@<TRIPOS>ATOM
      1 C          -9.1291  -18.0045   23.3910 C.3     1  UNL1        0.1620
      2 C          -8.5760  -17.1748   24.5115 C.ar    1  UNL1        0.0089
      3 C          -9.0016  -17.4436   25.9246 C.ar    1  UNL1       -0.0007
      4 C          -8.4485  -16.6139   27.0451 C.ar    1  UNL1        0.0112
      5 C          -7.4697  -15.5154   26.7527 C.ar    1  UNL1        0.0577
      6 CL         -6.9166  -14.6857   27.8732 Cl      1  UNL1       -0.0822
      7 C          -7.0441  -15.2467   25.3396 C.ar    1  UNL1        0.0112
      8 C          -7.5973  -16.0764   24.2191 C.ar    1  UNL1       -0.0007
      9 C         -10.2765  -17.4905   22.5728 C.ar    1  UNL1        0.0372
     10 C         -10.0141  -16.6623   21.3501 C.ar    1  UNL1        0.0023
     11 C         -11.1614  -16.1484   20.5320 C.ar    1  UNL1        0.0205
     12 C         -12.5712  -16.4627   20.9366 C.ar    1  UNL1        0.0998
     13 N         -12.8336  -17.2909   22.1593 N.ar    1  UNL1       -0.2327
     14 C         -11.6863  -17.8048   22.9774 C.ar    1  UNL1        0.1369
     15 CL        -11.9486  -18.6331   24.2002 Cl      1  UNL1       -0.0616
     16 O          -8.5348  -19.3482   23.0886 O.3     1  UNL1       -0.3463
     17 O          -3.9194  -20.8185   19.5254 O.2     1  UNL1       -0.2523
     18 C          -4.1451  -19.6763   20.4713 C.2     1  UNL1        0.3073
     19 N          -3.0850  -18.6302   20.6505 N.am    1  UNL1       -0.2640
     20 C          -1.7993  -18.7264   19.8839 C.3     1  UNL1        0.0949
     21 C          -0.7393  -17.6803   20.0631 C.3     1  UNL1        0.0216
     22 C          -0.9650  -16.5382   21.0089 C.3     1  UNL1        0.0035
     23 C          -2.2507  -16.4421   21.7755 C.3     1  UNL1        0.0216
     24 C          -3.3107  -17.4881   21.5963 C.3     1  UNL1        0.0949
     25 N          -5.4308  -19.5802   21.2378 N.am    1  UNL1       -0.2589
     26 C          -5.9993  -18.6189   22.2392 C.3     1  UNL1        0.1263
     27 C          -7.2490  -19.4442   22.3220 C.3     1  UNL1        0.1555
     28 C          -6.6805  -20.4055   21.3206 C.3     1  UNL1        0.1263
@<TRIPOS>BOND
     1    17    18    2
     2    18    19   am
     3    19    20    1
     4    20    21    1
     5    21    22    1
     6    22    23    1
     7    23    24    1
     8    18    25   am
     9    25    26    1
    10    26    27    1
    11    27    16    1
    12     1    16    1
    13     1     2    1
    14     2     3   ar
    15     3     4   ar
    16     4     5   ar
    17     5     6    1
    18     5     7   ar
    19     7     8   ar
    20     1     9    1
    21     9    10   ar
    22    10    11   ar
    23    11    12   ar
    24    12    13   ar
    25    13    14   ar
    26    14    15    1
    27    27    28    1
    28    24    19    1
    29    28    25    1
    30     8     2   ar
    31    14     9   ar
@<TRIPOS>MOLECULE
*****
 28 31 0 0 0
SMALL
GASTEIGER

@<TRIPOS>ATOM
      1 C          -9.0211  -18.0063   23.4231 C.3     1  UNL1        0.1620
      2 C         -10.0284  -17.4495   22.4612 C.ar    1  UNL1        0.0089
      3 C         -10.0041  -17.8713   21.0220 C.ar    1  UNL1       -0.0007
      4 C         -11.0114  -17.3145   20.0601 C.ar    1  UNL1        0.0112
      5 C         -12.0431  -16.3358   20.5375 C.ar    1  UNL1        0.0577
      6 CL        -13.0504  -15.7790   19.5756 Cl      1  UNL1       -0.0822
      7 C         -12.0674  -15.9140   21.9767 C.ar    1  UNL1        0.0112
      8 C         -11.0601  -16.4709   22.9386 C.ar    1  UNL1       -0.0007
      9 C          -8.6361  -17.2229   24.6430 C.ar    1  UNL1        0.0372
     10 C          -9.0986  -17.6698   25.9982 C.ar    1  UNL1        0.0023
     11 C          -8.7136  -16.8864   27.2180 C.ar    1  UNL1        0.0205
     12 C          -7.8662  -15.6561   27.0827 C.ar    1  UNL1        0.0998
     13 N          -7.4037  -15.2092   25.7276 N.ar    1  UNL1       -0.2327
     14 C          -7.7887  -15.9926   24.5078 C.ar    1  UNL1        0.1369
     15 CL         -7.3263  -15.5457   23.1526 Cl      1  UNL1       -0.0616
     16 O          -8.3987  -19.3465   23.1651 O.3     1  UNL1       -0.3463
     17 O          -3.8693  -20.8246   19.4964 O.2     1  UNL1       -0.2523
     18 C          -4.0729  -19.6798   20.4441 C.2     1  UNL1        0.3073
     19 N          -3.0094  -18.6326   20.5948 N.am    1  UNL1       -0.2640
     20 C          -1.7425  -18.7303   19.7978 C.3     1  UNL1        0.0949
     21 C          -0.6791  -17.6832   19.9485 C.3     1  UNL1        0.0216
     22 C          -0.8827  -16.5384   20.8962 C.3     1  UNL1        0.0035
     23 C          -2.1497  -16.4408   21.6931 C.3     1  UNL1        0.0216
     24 C          -3.2130  -17.4879   21.5424 C.3     1  UNL1        0.0949
     25 N          -5.3399  -19.5822   21.2411 N.am    1  UNL1       -0.2589
     26 C          -5.8847  -18.6183   22.2530 C.3     1  UNL1        0.1263
     27 C          -7.1317  -19.4441   22.3682 C.3     1  UNL1        0.1555
     28 C          -6.5868  -20.4080   21.3562 C.3     1  UNL1        0.1263
@<TRIPOS>BOND
     1    17    18    2
     2    18    19   am
     3    19    20    1
     4    20    21    1
     5    21    22    1
     6    22    23    1
     7    23    24    1
     8    18    25   am
     9    25    26    1
    10    26    27    1
    11    27    16    1
    12     1    16    1
    13     1     2    1
    14     2     3   ar
    15     3     4   ar
    16     4     5   ar
    17     5     6    1
    18     5     7   ar
    19     7     8   ar
    20     1     9    1
    21     9    10   ar
    22    10    11   ar
    23    11    12   ar
    24    12    13   ar
    25    13    14   ar
    26    14    15    1
    27    27    28    1
    28    24    19    1
    29    28    25    1
    30     8     2   ar
    31    14     9   ar
@<TRIPOS>MOLECULE
*****
 28 31 0 0 0
SMALL
GASTEIGER

@<TRIPOS>ATOM
      1 C          -4.6401  -18.0331   22.7235 C.3     1  UNL1        0.1620
      2 C          -3.3331  -17.8576   22.0088 C.ar    1  UNL1        0.0089
      3 C          -2.7161  -19.0138   21.2790 C.ar    1  UNL1       -0.0007
      4 C          -1.4092  -18.8383   20.5643 C.ar    1  UNL1        0.0112
      5 C          -0.7190  -17.5065   20.5792 C.ar    1  UNL1        0.0577
      6 CL          0.5879  -17.3310   19.8645 Cl      1  UNL1       -0.0822
      7 C          -1.3360  -16.3503   21.3089 C.ar    1  UNL1        0.0112
      8 C          -2.6431  -16.5258   22.0237 C.ar    1  UNL1       -0.0007
      9 C          -5.0709  -17.0331   23.7553 C.ar    1  UNL1        0.0372
     10 C          -6.1708  -16.0616   23.4449 C.ar    1  UNL1        0.0023
     11 C          -6.6016  -15.0617   24.4766 C.ar    1  UNL1        0.0205
     12 C          -5.9324  -15.0332   25.8188 C.ar    1  UNL1        0.0998
     13 N          -4.8325  -16.0047   26.1292 N.ar    1  UNL1       -0.2327
     14 C          -4.4017  -17.0046   25.0974 C.ar    1  UNL1        0.1369
     15 CL         -3.3017  -17.9761   25.4078 Cl      1  UNL1       -0.0616
     16 O          -5.5163  -19.2086   22.4066 O.3     1  UNL1       -0.3463
     17 O         -10.7305  -18.3506   19.5367 O.2     1  UNL1       -0.2523
     18 C         -10.3820  -18.4673   20.9909 C.2     1  UNL1        0.3073
     19 N         -11.4586  -18.3669   22.0306 N.am    1  UNL1       -0.2640
     20 C         -12.8837  -18.1498   21.6160 C.3     1  UNL1        0.0949
     21 C         -13.9603  -18.0494   22.6556 C.3     1  UNL1        0.0216
     22 C         -13.6117  -18.1661   24.1099 C.3     1  UNL1        0.0035
     23 C         -12.1867  -18.3832   24.5245 C.3     1  UNL1        0.0216
     24 C         -11.1101  -18.4836   23.4849 C.3     1  UNL1        0.0949
     25 N          -8.9569  -18.6844   21.4056 N.am    1  UNL1       -0.2589
     26 C          -8.2465  -18.8446   22.7169 C.3     1  UNL1        0.1263
     27 C          -6.9415  -18.9914   21.9920 C.3     1  UNL1        0.1555
     28 C          -7.6520  -18.8313   20.6806 C.3     1  UNL1        0.1263
@<TRIPOS>BOND
     1    17    18    2
     2    18    19   am
     3    19    20    1
     4    20    21    1
     5    21    22    1
     6    22    23    1
     7    23    24    1
     8    18    25   am
     9    25    26    1
    10    26    27    1
    11    27    16    1
    12     1    16    1
    13     1     2    1
    14     2     3   ar
    15     3     4   ar
    16     4     5   ar
    17     5     6    1
    18     5     7   ar
    19     7     8   ar
    20     1     9    1
    21     9    10   ar
    22    10    11   ar
    23    11    12   ar
    24    12    13   ar
    25    13    14   ar
    26    14    15    1
    27    27    28    1
    28    24    19    1
    29    28    25    1
    30     8     2   ar
    31    14     9   ar
@<TRIPOS>MOLECULE
*****
 28 31 0 0 0
SMALL
GASTEIGER

@<TRIPOS>ATOM
      1 C          -0.5958    2.8803   25.9686 C.3     1  UNL1        0.1620
      2 C          -1.9996    3.2606   25.6016 C.ar    1  UNL1        0.0089
      3 C          -2.4248    3.2612   24.1631 C.ar    1  UNL1       -0.0007
      4 C          -3.8286    3.6415   23.7962 C.ar    1  UNL1        0.0112
      5 C          -4.8073    4.0212   24.8677 C.ar    1  UNL1        0.0577
      6 CL         -6.2110    4.4016   24.5007 Cl      1  UNL1       -0.0822
      7 C          -4.3821    4.0206   26.3062 C.ar    1  UNL1        0.0112
      8 C          -2.9782    3.6403   26.6731 C.ar    1  UNL1       -0.0007
      9 C          -0.2921    2.3734   27.3473 C.ar    1  UNL1        0.0372
     10 C          -0.6430    0.9641   27.7225 C.ar    1  UNL1        0.0023
     11 C          -0.3393    0.4573   29.1012 C.ar    1  UNL1        0.0205
     12 C           0.3152    1.3598   30.1048 C.ar    1  UNL1        0.0998
     13 N           0.6661    2.7691   29.7296 N.ar    1  UNL1       -0.2327
     14 C           0.3624    3.2759   28.3509 C.ar    1  UNL1        0.1369
     15 CL          0.7132    4.6853   27.9757 Cl      1  UNL1       -0.0616
     16 O           0.5043    3.0068   24.9568 O.3     1  UNL1       -0.3463
     17 O           4.2813   -1.6723   24.9276 O.2     1  UNL1       -0.2523
     18 C           3.4471   -1.0372   23.8549 C.2     1  UNL1        0.3073
     19 N           3.4749   -1.5865   22.4593 N.am    1  UNL1       -0.2640
     20 C           4.3368   -2.7710   22.1366 C.3     1  UNL1        0.0949
     21 C           4.3646   -3.3203   20.7411 C.3     1  UNL1        0.0216
     22 C           3.5304   -2.6851   19.6683 C.3     1  UNL1        0.0035
     23 C           2.6685   -1.5007   19.9911 C.3     1  UNL1        0.0216
     24 C           2.6408   -0.9514   21.3866 C.3     1  UNL1        0.0949
     25 N           2.5852    0.1472   24.1776 N.am    1  UNL1       -0.2589
     26 C           1.6466    1.0198   23.3981 C.3     1  UNL1        0.1263
     27 C           1.3663    1.8223   24.6340 C.3     1  UNL1        0.1555
     28 C           2.3049    0.9498   25.4135 C.3     1  UNL1        0.1263
@<TRIPOS>BOND
     1    17    18    2
     2    18    19   am
     3    19    20    1
     4    20    21    1
     5    21    22    1
     6    22    23    1
     7    23    24    1
     8    18    25   am
     9    25    26    1
    10    26    27    1
    11    27    16    1
    12     1    16    1
    13     1     2    1
    14     2     3   ar
    15     3     4   ar
    16     4     5   ar
    17     5     6    1
    18     5     7   ar
    19     7     8   ar
    20     1     9    1
    21     9    10   ar
    22    10    11   ar
    23    11    12   ar
    24    12    13   ar
    25    13    14   ar
    26    14    15    1
    27    27    28    1
    28    24    19    1
    29    28    25    1
    30     8     2   ar
    31    14     9   ar
@<TRIPOS>MOLECULE
*****
 28 31 0 0 0
SMALL
GASTEIGER

@<TRIPOS>ATOM
      1 C           3.1376   -1.3506   20.6193 C.3     1  UNL1        0.1620
      2 C           3.4035   -1.3518   22.0955 C.ar    1  UNL1        0.0089
      3 C           2.7225   -0.3508   22.9811 C.ar    1  UNL1       -0.0007
      4 C           2.9884   -0.3519   24.4573 C.ar    1  UNL1        0.0112
      5 C           3.9354   -1.3541   25.0480 C.ar    1  UNL1        0.0577
      6 CL          4.2013   -1.3552   26.5242 Cl      1  UNL1       -0.0822
      7 C           4.6164   -2.3551   24.1625 C.ar    1  UNL1        0.0112
      8 C           4.3504   -2.3539   22.6862 C.ar    1  UNL1       -0.0007
      9 C           4.2815   -1.4156   19.6511 C.ar    1  UNL1        0.0372
     10 C           5.1862   -0.2317   19.4787 C.ar    1  UNL1        0.0023
     11 C           6.3301   -0.2966   18.5105 C.ar    1  UNL1        0.0205
     12 C           6.5691   -1.5455   17.7148 C.ar    1  UNL1        0.0998
     13 N           5.6644   -2.7294   17.8872 N.ar    1  UNL1       -0.2327
     14 C           4.5206   -2.6644   18.8554 C.ar    1  UNL1        0.1369
     15 CL          3.6157   -3.8483   19.0278 Cl      1  UNL1       -0.0616
     16 O           1.7278   -1.2846   20.1112 O.3     1  UNL1       -0.3463
     17 O           0.1445    3.9022   17.5130 O.2     1  UNL1       -0.2523
     18 C          -0.3031    3.2223   18.7729 C.2     1  UNL1        0.3073
     19 N          -1.3456    3.8626   19.6409 N.am    1  UNL1       -0.2640
     20 C          -1.9405    5.1826   19.2489 C.3     1  UNL1        0.0949
     21 C          -2.9829    5.8228   20.1169 C.3     1  UNL1        0.0216
     22 C          -3.4305    5.1430   21.3769 C.3     1  UNL1        0.0035
     23 C          -2.8357    3.8230   21.7688 C.3     1  UNL1        0.0216
     24 C          -1.7932    3.1828   20.9009 C.3     1  UNL1        0.0949
     25 N           0.2917    1.9023   19.1649 N.am    1  UNL1       -0.2589
     26 C           0.1040    0.9528   20.3108 C.3     1  UNL1        0.1263
     27 C           1.1329    0.0355   19.7193 C.3     1  UNL1        0.1555
     28 C           1.3206    0.9851   18.5734 C.3     1  UNL1        0.1263
@<TRIPOS>BOND
     1    17    18    2
     2    18    19   am
     3    19    20    1
     4    20    21    1
     5    21    22    1
     6    22    23    1
     7    23    24    1
     8    18    25   am
     9    25    26    1
    10    26    27    1
    11    27    16    1
    12     1    16    1
    13     1     2    1
    14     2     3   ar
    15     3     4   ar
    16     4     5   ar
    17     5     6    1
    18     5     7   ar
    19     7     8   ar
    20     1     9    1
    21     9    10   ar
    22    10    11   ar
    23    11    12   ar
    24    12    13   ar
    25    13    14   ar
    26    14    15    1
    27    27    28    1
    28    24    19    1
    29    28    25    1
    30     8     2   ar
    31    14     9   ar
@<TRIPOS>MOLECULE
*****
 28 31 0 0 0
SMALL
GASTEIGER

@<TRIPOS>ATOM
      1 C           4.3420   -1.6781   20.4464 C.3     1  UNL1        0.1620
      2 C           3.3157   -0.7267   19.9064 C.ar    1  UNL1        0.0089
      3 C           3.7056    0.2920   18.8768 C.ar    1  UNL1       -0.0007
      4 C           2.6793    1.2433   18.3368 C.ar    1  UNL1        0.0112
      5 C           1.2630    1.1759   18.8265 C.ar    1  UNL1        0.0577
      6 CL          0.2367    2.1273   18.2865 Cl      1  UNL1       -0.0822
      7 C           0.8731    0.1572   19.8562 C.ar    1  UNL1        0.0112
      8 C           1.8995   -0.7942   20.3961 C.ar    1  UNL1       -0.0007
      9 C           5.7825   -1.5285   20.0555 C.ar    1  UNL1        0.0372
     10 C           6.6800   -0.6136   20.8348 C.ar    1  UNL1        0.0023
     11 C           8.1204   -0.4641   20.4438 C.ar    1  UNL1        0.0205
     12 C           8.6633   -1.2295   19.2736 C.ar    1  UNL1        0.0998
     13 N           7.7658   -2.1444   18.4943 N.ar    1  UNL1       -0.2327
     14 C           6.3254   -2.2939   18.8852 C.ar    1  UNL1        0.1369
     15 CL          5.4278   -3.2089   18.1059 Cl      1  UNL1       -0.0616
     16 O           3.9279   -2.7790   21.3773 O.3     1  UNL1       -0.3463
     17 O           6.9135   -3.1882   26.5811 O.2     1  UNL1       -0.2523
     18 C           6.9133   -4.0365   25.3440 C.2     1  UNL1        0.3073
     19 N           7.7875   -5.2531   25.2687 N.am    1  UNL1       -0.2640
     20 C           8.6618   -5.6214   26.4305 C.3     1  UNL1        0.0949
     21 C           9.5360   -6.8380   26.3552 C.3     1  UNL1        0.0216
     22 C           9.5358   -7.6863   25.1181 C.3     1  UNL1        0.0035
     23 C           8.6614   -7.3180   23.9563 C.3     1  UNL1        0.0216
     24 C           7.7873   -6.1014   24.0316 C.3     1  UNL1        0.0949
     25 N           6.0389   -3.6682   24.1822 N.am    1  UNL1       -0.2589
     26 C           5.7775   -4.2508   22.8249 C.3     1  UNL1        0.1263
     27 C           4.8024   -3.1473   22.5391 C.3     1  UNL1        0.1555
     28 C           5.0638   -2.5648   23.8964 C.3     1  UNL1        0.1263
@<TRIPOS>BOND
     1    17    18    2
     2    18    19   am
     3    19    20    1
     4    20    21    1
     5    21    22    1
     6    22    23    1
     7    23    24    1
     8    18    25   am
     9    25    26    1
    10    26    27    1
    11    27    16    1
    12     1    16    1
    13     1     2    1
    14     2     3   ar
    15     3     4   ar
    16     4     5   ar
    17     5     6    1
    18     5     7   ar
    19     7     8   ar
    20     1     9    1
    21     9    10   ar
    22    10    11   ar
    23    11    12   ar
    24    12    13   ar
    25    13    14   ar
    26    14    15    1
    27    27    28    1
    28    24    19    1
    29    28    25    1
    30     8     2   ar
    31    14     9   ar
