@<TRIPOS>MOLECULE
*****
 33 38 0 0 0
SMALL
GASTEIGER

@<TRIPOS>ATOM
      1 C          -0.2168    2.1119   27.1555 C.ar    1  UNL1        0.0536
      2 C           0.9374    2.9955   27.5257 C.ar    1  UNL1        0.0045
      3 C           1.5810    2.8630   28.8742 C.ar    1  UNL1        0.0001
      4 C           1.0702    1.8469   29.8524 C.ar    1  UNL1       -0.0001
      5 C          -0.0840    0.9633   29.4821 C.ar    1  UNL1        0.0001
      6 C          -0.7275    1.0959   28.1336 C.ar    1  UNL1        0.0045
      7 C           1.7138    1.7143   31.2008 C.2     1  UNL1        0.0020
      8 C           2.6249    0.5575   31.4866 C.2     1  UNL1        0.0130
      9 C           3.2685    0.4249   32.8350 C.3     1  UNL1        0.1542
     10 C           3.5360   -0.5993   31.7723 C.3     1  UNL1        0.0614
     11 C           4.4471   -1.7561   32.0581 C.3     1  UNL1        0.0725
     12 N           5.0907   -1.8886   33.4066 N.3     1  UNL1       -0.2972
     13 C           4.8231   -0.8644   34.4692 C.3     1  UNL1        0.0725
     14 C           3.9120    0.2924   34.1834 C.3     1  UNL1        0.0614
     15 O           3.0009    1.4493   33.8977 O.3     1  UNL1       -0.4785
     16 C           2.0898    2.6061   33.6119 C.ar    1  UNL1        0.1386
     17 C           1.8222    3.6304   34.6746 C.ar    1  UNL1        0.0369
     18 C           0.9111    4.7872   34.3888 C.ar    1  UNL1        0.0031
     19 C           0.2675    4.9197   33.0403 C.ar    1  UNL1        0.0002
     20 C           0.5351    3.8954   31.9777 C.ar    1  UNL1        0.0030
     21 C           1.4462    2.7386   32.2634 C.ar    1  UNL1        0.0338
     22 H           6.0989   -1.8963   33.2522 H       1  UNL1        0.1233
     23 O          -0.2141    1.6249   24.6034 O.2     1  UNL1       -0.2699
     24 C          -0.8604    2.2444   25.8070 C.2     1  UNL1        0.2495
     25 N          -2.1501    2.9964   25.6622 N.am    1  UNL1       -0.2679
     26 C          -2.9095    3.6659   26.7690 C.3     1  UNL1        0.1205
     27 C          -4.1356    4.2942   26.1760 C.ar    1  UNL1       -0.0047
     28 C          -5.2534    5.0861   26.7873 C.ar    1  UNL1       -0.0029
     29 C          -6.3696    5.5968   25.9251 C.ar    1  UNL1       -0.0003
     30 C          -6.3680    5.3156   24.4517 C.ar    1  UNL1       -0.0003
     31 C          -5.2503    4.5238   23.8404 C.ar    1  UNL1       -0.0029
     32 C          -4.1341    4.0131   24.7025 C.ar    1  UNL1       -0.0047
     33 C          -2.9070    3.2110   24.3850 C.3     1  UNL1        0.1205
@<TRIPOS>BOND
     1    23    24    2
     2    24     1    1
     3     1     2   ar
     4     2     3   ar
     5     3     4   ar
     6     4     7    1
     7     7     8    2
     8     8     9    1
     9     9    10    1
    10    10    11    1
    11    11    12    1
    12    12    13    1
    13    13    14    1
    14     9    15    1
    15    15    16    1
    16    16    17   ar
    17    17    18   ar
    18    18    19   ar
    19    19    20   ar
    20    20    21   ar
    21     4     5   ar
    22     5     6   ar
    23    24    25   am
    24    25    26    1
    25    26    27    1
    26    27    28   ar
    27    28    29   ar
    28    29    30   ar
    29    30    31   ar
    30    31    32   ar
    31    32    33    1
    32     6     1   ar
    33    33    25    1
    34    21     7    1
    35    32    27   ar
    36    14     9    1
    37    21    16   ar
    38    12    22    1
@<TRIPOS>MOLECULE
*****
 33 38 0 0 0
SMALL
GASTEIGER

@<TRIPOS>ATOM
      1 C           6.9052   -2.6966   22.2195 C.ar    1  UNL1        0.0536
      2 C           6.0424   -3.8575   22.6174 C.ar    1  UNL1        0.0045
      3 C           6.1609   -4.4432   23.9932 C.ar    1  UNL1        0.0001
      4 C           7.1422   -3.8680   24.9712 C.ar    1  UNL1       -0.0001
      5 C           8.0048   -2.7072   24.5734 C.ar    1  UNL1        0.0001
      6 C           7.8863   -2.1215   23.1975 C.ar    1  UNL1        0.0045
      7 C           7.2607   -4.4537   26.3471 C.2     1  UNL1        0.0020
      8 C           6.8449   -3.6492   27.5430 C.2     1  UNL1        0.0130
      9 C           6.9634   -4.2349   28.9188 C.3     1  UNL1        0.1542
     10 C           6.4292   -2.8449   28.7389 C.3     1  UNL1        0.0614
     11 C           6.0135   -2.0405   29.9347 C.3     1  UNL1        0.0725
     12 N           6.1320   -2.6262   31.3106 N.3     1  UNL1       -0.2972
     13 C           6.6662   -4.0162   31.4906 C.3     1  UNL1        0.0725
     14 C           7.0819   -4.8206   30.2947 C.3     1  UNL1        0.0614
     15 O           7.4977   -5.6250   29.0988 O.3     1  UNL1       -0.4785
     16 C           7.9134   -6.4293   27.9029 C.ar    1  UNL1        0.1386
     17 C           8.4476   -7.8194   28.0828 C.ar    1  UNL1        0.0369
     18 C           8.8633   -8.6238   26.8869 C.ar    1  UNL1        0.0031
     19 C           8.7448   -8.0381   25.5111 C.ar    1  UNL1        0.0002
     20 C           8.2106   -6.6481   25.3311 C.ar    1  UNL1        0.0030
     21 C           7.7949   -5.8437   26.5270 C.ar    1  UNL1        0.0338
     22 H           5.1964   -2.6155   31.7168 H       1  UNL1        0.1233
     23 O           7.9719   -2.1103   19.9242 O.2     1  UNL1       -0.2699
     24 C           6.7867   -2.1110   20.8437 C.2     1  UNL1        0.2495
     25 N           5.4831   -1.5259   20.3873 N.am    1  UNL1       -0.2679
     26 C           4.2186   -1.4559   21.1912 C.3     1  UNL1        0.1205
     27 C           3.1691   -0.7949   20.3477 C.ar    1  UNL1       -0.0047
     28 C           1.7322   -0.4575   20.6151 C.ar    1  UNL1       -0.0029
     29 C           0.9111    0.2184   19.5572 C.ar    1  UNL1       -0.0003
     30 C           1.5269    0.5569   18.2320 C.ar    1  UNL1       -0.0003
     31 C           2.9638    0.2195   17.9646 C.ar    1  UNL1       -0.0029
     32 C           3.7849   -0.4564   19.0224 C.ar    1  UNL1       -0.0047
     33 C           5.2150   -0.9082   19.0470 C.3     1  UNL1        0.1205
@<TRIPOS>BOND
     1    23    24    2
     2    24     1    1
     3     1     2   ar
     4     2     3   ar
     5     3     4   ar
     6     4     7    1
     7     7     8    2
     8     8     9    1
     9     9    10    1
    10    10    11    1
    11    11    12    1
    12    12    13    1
    13    13    14    1
    14     9    15    1
    15    15    16    1
    16    16    17   ar
    17    17    18   ar
    18    18    19   ar
    19    19    20   ar
    20    20    21   ar
    21     4     5   ar
    22     5     6   ar
    23    24    25   am
    24    25    26    1
    25    26    27    1
    26    27    28   ar
    27    28    29   ar
    28    29    30   ar
    29    30    31   ar
    30    31    32   ar
    31    32    33    1
    32     6     1   ar
    33    33    25    1
    34    21     7    1
    35    32    27   ar
    36    14     9    1
    37    21    16   ar
    38    12    22    1
@<TRIPOS>MOLECULE
*****
 33 38 0 0 0
SMALL
GASTEIGER

@<TRIPOS>ATOM
      1 C           7.1815   -2.8774   31.4586 C.ar    1  UNL1        0.0536
      2 C           6.0122   -3.2095   32.3376 C.ar    1  UNL1        0.0045
      3 C           4.9321   -2.1938   32.5644 C.ar    1  UNL1        0.0001
      4 C           5.0211   -0.8459   31.9122 C.ar    1  UNL1       -0.0001
      5 C           6.1904   -0.5138   31.0332 C.ar    1  UNL1        0.0001
      6 C           7.2705   -1.5296   30.8064 C.ar    1  UNL1        0.0045
      7 C           3.9410    0.1699   32.1390 C.2     1  UNL1        0.0020
      8 C           3.9687    1.0331   33.3655 C.2     1  UNL1        0.0130
      9 C           2.8885    2.0488   33.5923 C.3     1  UNL1        0.1542
     10 C           3.9964    1.8962   34.5919 C.3     1  UNL1        0.0614
     11 C           4.0240    2.7593   35.8184 C.3     1  UNL1        0.0725
     12 N           2.9439    3.7751   36.0452 N.3     1  UNL1       -0.2972
     13 C           1.8360    3.9277   35.0455 C.3     1  UNL1        0.0725
     14 C           1.8083    3.0646   33.8191 C.3     1  UNL1        0.0614
     15 O           1.7806    2.2014   32.5926 O.3     1  UNL1       -0.4785
     16 C           1.7530    1.3383   31.3661 C.ar    1  UNL1        0.1386
     17 C           0.6451    1.4909   30.3664 C.ar    1  UNL1        0.0369
     18 C           0.6174    0.6278   29.1400 C.ar    1  UNL1        0.0031
     19 C           1.6976   -0.3880   28.9132 C.ar    1  UNL1        0.0002
     20 C           2.8054   -0.5406   29.9128 C.ar    1  UNL1        0.0030
     21 C           2.8331    0.3225   31.1393 C.ar    1  UNL1        0.0338
     22 H           3.4035    4.6829   36.1162 H       1  UNL1        0.1233
     23 O           9.4157   -3.9864   32.1855 O.2     1  UNL1       -0.2699
     24 C           8.2617   -3.8932   31.2318 C.2     1  UNL1        0.2495
     25 N           8.1878   -4.8157   30.0513 N.am    1  UNL1       -0.2679
     26 C           7.1009   -4.8399   29.0179 C.3     1  UNL1        0.1205
     27 C           7.4292   -5.9151   28.0249 C.ar    1  UNL1       -0.0047
     28 C           6.7203   -6.3938   26.7927 C.ar    1  UNL1       -0.0029
     29 C           7.3013   -7.5129   25.9802 C.ar    1  UNL1       -0.0003
     30 C           8.5912   -8.1532   26.3999 C.ar    1  UNL1       -0.0003
     31 C           9.3001   -7.6744   27.6321 C.ar    1  UNL1       -0.0029
     32 C           8.7192   -6.5554   28.4446 C.ar    1  UNL1       -0.0047
     33 C           9.1880   -5.8759   29.6970 C.3     1  UNL1        0.1205
@<TRIPOS>BOND
     1    23    24    2
     2    24     1    1
     3     1     2   ar
     4     2     3   ar
     5     3     4   ar
     6     4     7    1
     7     7     8    2
     8     8     9    1
     9     9    10    1
    10    10    11    1
    11    11    12    1
    12    12    13    1
    13    13    14    1
    14     9    15    1
    15    15    16    1
    16    16    17   ar
    17    17    18   ar
    18    18    19   ar
    19    19    20   ar
    20    20    21   ar
    21     4     5   ar
    22     5     6   ar
    23    24    25   am
    24    25    26    1
    25    26    27    1
    26    27    28   ar
    27    28    29   ar
    28    29    30   ar
    29    30    31   ar
    30    31    32   ar
    31    32    33    1
    32     6     1   ar
    33    33    25    1
    34    21     7    1
    35    32    27   ar
    36    14     9    1
    37    21    16   ar
    38    12    22    1
@<TRIPOS>MOLECULE
*****
 33 38 0 0 0
SMALL
GASTEIGER

@<TRIPOS>ATOM
      1 C           0.7398    1.8191   29.4312 C.ar    1  UNL1        0.0536
      2 C          -0.3024    0.9209   28.8336 C.ar    1  UNL1        0.0045
      3 C          -0.9382    1.2781   27.5228 C.ar    1  UNL1        0.0001
      4 C          -0.5318    2.5337   26.8096 C.ar    1  UNL1       -0.0001
      5 C           0.5104    3.4318   27.4072 C.ar    1  UNL1        0.0001
      6 C           1.1462    3.0745   28.7180 C.ar    1  UNL1        0.0045
      7 C          -1.1676    2.8909   25.4989 C.2     1  UNL1        0.0020
      8 C          -0.4385    2.6264   24.2149 C.2     1  UNL1        0.0130
      9 C          -1.0743    2.9837   22.9041 C.3     1  UNL1        0.1542
     10 C           0.2905    2.3619   22.9309 C.3     1  UNL1        0.0614
     11 C           1.0194    2.0974   21.6470 C.3     1  UNL1        0.0725
     12 N           0.3836    2.4547   20.3362 N.3     1  UNL1       -0.2972
     13 C          -0.9811    3.0764   20.3094 C.3     1  UNL1        0.0725
     14 C          -1.7101    3.3409   21.5933 C.3     1  UNL1        0.0614
     15 O          -2.4392    3.6055   22.8773 O.3     1  UNL1       -0.4785
     16 C          -3.1681    3.8700   24.1613 C.ar    1  UNL1        0.1386
     17 C          -4.5330    4.4918   24.1345 C.ar    1  UNL1        0.0369
     18 C          -5.2620    4.7563   25.4184 C.ar    1  UNL1        0.0031
     19 C          -4.6262    4.3990   26.7292 C.ar    1  UNL1        0.0002
     20 C          -3.2614    3.7772   26.7560 C.ar    1  UNL1        0.0030
     21 C          -2.5323    3.5127   25.4720 C.ar    1  UNL1        0.0338
     22 H           0.3256    1.5935   19.7927 H       1  UNL1        0.1233
     23 O           2.0742    0.1441   30.9022 O.2     1  UNL1       -0.2699
     24 C           1.3756    1.4618   30.7420 C.2     1  UNL1        0.2495
     25 N           1.3127    2.4222   31.8925 N.am    1  UNL1       -0.2679
     26 C           0.6525    3.7690   31.8817 C.3     1  UNL1        0.1205
     27 C           0.8307    4.3835   33.2383 C.ar    1  UNL1       -0.0047
     28 C           0.3911    5.6988   33.8101 C.ar    1  UNL1       -0.0029
     29 C           0.7219    6.0469   35.2311 C.ar    1  UNL1       -0.0003
     30 C           1.4923    5.0799   36.0804 C.ar    1  UNL1       -0.0003
     31 C           1.9320    3.7647   35.5087 C.ar    1  UNL1       -0.0029
     32 C           1.6012    3.4165   34.0877 C.ar    1  UNL1       -0.0047
     33 C           1.8991    2.2043   33.2559 C.3     1  UNL1        0.1205
@<TRIPOS>BOND
     1    23    24    2
     2    24     1    1
     3     1     2   ar
     4     2     3   ar
     5     3     4   ar
     6     4     7    1
     7     7     8    2
     8     8     9    1
     9     9    10    1
    10    10    11    1
    11    11    12    1
    12    12    13    1
    13    13    14    1
    14     9    15    1
    15    15    16    1
    16    16    17   ar
    17    17    18   ar
    18    18    19   ar
    19    19    20   ar
    20    20    21   ar
    21     4     5   ar
    22     5     6   ar
    23    24    25   am
    24    25    26    1
    25    26    27    1
    26    27    28   ar
    27    28    29   ar
    28    29    30   ar
    29    30    31   ar
    30    31    32   ar
    31    32    33    1
    32     6     1   ar
    33    33    25    1
    34    21     7    1
    35    32    27   ar
    36    14     9    1
    37    21    16   ar
    38    12    22    1
@<TRIPOS>MOLECULE
*****
 33 38 0 0 0
SMALL
GASTEIGER

@<TRIPOS>ATOM
      1 C           5.2949   -2.2476   20.8569 C.ar    1  UNL1        0.0536
      2 C           6.6174   -1.8058   21.4102 C.ar    1  UNL1        0.0045
      3 C           7.1554   -2.4359   22.6606 C.ar    1  UNL1        0.0001
      4 C           6.3710   -3.5078   23.3577 C.ar    1  UNL1       -0.0001
      5 C           5.0486   -3.9495   22.8044 C.ar    1  UNL1        0.0001
      6 C           4.5106   -3.3194   21.5540 C.ar    1  UNL1        0.0045
      7 C           6.9090   -4.1379   24.6081 C.2     1  UNL1        0.0020
      8 C           6.5888   -3.5408   25.9465 C.2     1  UNL1        0.0130
      9 C           7.1268   -4.1709   27.1969 C.3     1  UNL1        0.1542
     10 C           6.2686   -2.9439   27.2848 C.3     1  UNL1        0.0614
     11 C           5.9484   -2.3469   28.6230 C.3     1  UNL1        0.0725
     12 N           6.4864   -2.9770   29.8734 N.3     1  UNL1       -0.2972
     13 C           7.3446   -4.2040   29.7856 C.3     1  UNL1        0.0725
     14 C           7.6648   -4.8010   28.4473 C.3     1  UNL1        0.0614
     15 O           7.9851   -5.3980   27.1089 O.3     1  UNL1       -0.4785
     16 C           8.3052   -5.9950   25.7706 C.ar    1  UNL1        0.1386
     17 C           9.1635   -7.2221   25.6827 C.ar    1  UNL1        0.0369
     18 C           9.4837   -7.8191   24.3444 C.ar    1  UNL1        0.0031
     19 C           8.9457   -7.1890   23.0940 C.ar    1  UNL1        0.0002
     20 C           8.0874   -5.9619   23.1819 C.ar    1  UNL1        0.0030
     21 C           7.7672   -5.3649   24.5202 C.ar    1  UNL1        0.0338
     22 H           5.6813   -3.2215   30.4499 H       1  UNL1        0.1233
     23 O           5.3748   -1.9402   18.2783 O.2     1  UNL1       -0.2699
     24 C           4.7569   -1.6175   19.6065 C.2     1  UNL1        0.2495
     25 N           3.6010   -0.6648   19.6843 N.am    1  UNL1       -0.2679
     26 C           2.8842   -0.2484   20.9344 C.3     1  UNL1        0.1205
     27 C           1.7991    0.7126   20.5483 C.ar    1  UNL1       -0.0047
     28 C           0.7750    1.4490   21.3600 C.ar    1  UNL1       -0.0029
     29 C          -0.2031    2.3628   20.6830 C.ar    1  UNL1       -0.0003
     30 C          -0.1569    2.5403   19.1943 C.ar    1  UNL1       -0.0003
     31 C           0.8672    1.8039   18.3825 C.ar    1  UNL1       -0.0029
     32 C           1.8452    0.8901   19.0595 C.ar    1  UNL1       -0.0047
     33 C           2.9588    0.0388   18.5255 C.3     1  UNL1        0.1205
@<TRIPOS>BOND
     1    23    24    2
     2    24     1    1
     3     1     2   ar
     4     2     3   ar
     5     3     4   ar
     6     4     7    1
     7     7     8    2
     8     8     9    1
     9     9    10    1
    10    10    11    1
    11    11    12    1
    12    12    13    1
    13    13    14    1
    14     9    15    1
    15    15    16    1
    16    16    17   ar
    17    17    18   ar
    18    18    19   ar
    19    19    20   ar
    20    20    21   ar
    21     4     5   ar
    22     5     6   ar
    23    24    25   am
    24    25    26    1
    25    26    27    1
    26    27    28   ar
    27    28    29   ar
    28    29    30   ar
    29    30    31   ar
    30    31    32   ar
    31    32    33    1
    32     6     1   ar
    33    33    25    1
    34    21     7    1
    35    32    27   ar
    36    14     9    1
    37    21    16   ar
    38    12    22    1
@<TRIPOS>MOLECULE
*****
 33 38 0 0 0
SMALL
GASTEIGER

@<TRIPOS>ATOM
      1 C           1.0362    1.6970   26.1357 C.ar    1  UNL1        0.0536
      2 C           2.3186    2.3093   26.6160 C.ar    1  UNL1        0.0045
      3 C           2.6947    2.2220   28.0654 C.ar    1  UNL1        0.0001
      4 C           1.7883    1.5224   29.0346 C.ar    1  UNL1       -0.0001
      5 C           0.5060    0.9102   28.5543 C.ar    1  UNL1        0.0001
      6 C           0.1299    0.9975   27.1048 C.ar    1  UNL1        0.0045
      7 C           2.1644    1.4351   30.4841 C.2     1  UNL1        0.0020
      8 C           3.0335    0.3119   30.9670 C.2     1  UNL1        0.0130
      9 C           3.4096    0.2246   32.4165 C.3     1  UNL1        0.1542
     10 C           3.9026   -0.8111   31.4501 C.3     1  UNL1        0.0614
     11 C           4.7717   -1.9342   31.9331 C.3     1  UNL1        0.0725
     12 N           5.1478   -2.0215   33.3825 N.3     1  UNL1       -0.2972
     13 C           4.6547   -0.9858   34.3490 C.3     1  UNL1        0.0725
     14 C           3.7856    0.1373   33.8660 C.3     1  UNL1        0.0614
     15 O           2.9165    1.2604   33.3830 O.3     1  UNL1       -0.4785
     16 C           2.0474    2.3835   32.9000 C.ar    1  UNL1        0.1386
     17 C           1.5543    3.4193   33.8665 C.ar    1  UNL1        0.0369
     18 C           0.6852    4.5424   33.3835 C.ar    1  UNL1        0.0031
     19 C           0.3091    4.6297   31.9340 C.ar    1  UNL1        0.0002
     20 C           0.8022    3.5940   30.9675 C.ar    1  UNL1        0.0030
     21 C           1.6713    2.4708   31.4505 C.ar    1  UNL1        0.0338
     22 H           6.1667   -2.0017   33.4241 H       1  UNL1        0.1233
     23 O          -0.4054    2.7433   24.2442 O.2     1  UNL1       -0.2699
     24 C           0.6602    1.7844   24.6862 C.2     1  UNL1        0.2495
     25 N           1.3495    0.9128   23.6787 N.am    1  UNL1       -0.2679
     26 C           2.4281   -0.0881   23.9699 C.3     1  UNL1        0.1205
     27 C           2.8266   -0.7304   22.6743 C.ar    1  UNL1       -0.0047
     28 C           3.8397   -1.7872   22.3478 C.ar    1  UNL1       -0.0029
     29 C           4.0206   -2.2399   20.9292 C.ar    1  UNL1       -0.0003
     30 C           3.1884   -1.6359   19.8372 C.ar    1  UNL1       -0.0003
     31 C           2.1752   -0.5791   20.1637 C.ar    1  UNL1       -0.0029
     32 C           1.9943   -0.1263   21.5822 C.ar    1  UNL1       -0.0047
     33 C           1.0815    0.8892   22.2030 C.3     1  UNL1        0.1205
@<TRIPOS>BOND
     1    23    24    2
     2    24     1    1
     3     1     2   ar
     4     2     3   ar
     5     3     4   ar
     6     4     7    1
     7     7     8    2
     8     8     9    1
     9     9    10    1
    10    10    11    1
    11    11    12    1
    12    12    13    1
    13    13    14    1
    14     9    15    1
    15    15    16    1
    16    16    17   ar
    17    17    18   ar
    18    18    19   ar
    19    19    20   ar
    20    20    21   ar
    21     4     5   ar
    22     5     6   ar
    23    24    25   am
    24    25    26    1
    25    26    27    1
    26    27    28   ar
    27    28    29   ar
    28    29    30   ar
    29    30    31   ar
    30    31    32   ar
    31    32    33    1
    32     6     1   ar
    33    33    25    1
    34    21     7    1
    35    32    27   ar
    36    14     9    1
    37    21    16   ar
    38    12    22    1
@<TRIPOS>MOLECULE
*****
 33 38 0 0 0
SMALL
GASTEIGER

@<TRIPOS>ATOM
      1 C           0.7062    1.7079   29.6794 C.ar    1  UNL1        0.0536
      2 C          -0.3425    0.8296   29.0637 C.ar    1  UNL1        0.0045
      3 C          -1.1334    1.3181   27.8865 C.ar    1  UNL1        0.0001
      4 C          -0.8756    2.6850   27.3249 C.ar    1  UNL1       -0.0001
      5 C           0.1730    3.5632   27.9406 C.ar    1  UNL1        0.0001
      6 C           0.9639    3.0747   29.1178 C.ar    1  UNL1        0.0045
      7 C          -1.6665    3.1735   26.1477 C.2     1  UNL1        0.0020
      8 C          -2.9736    3.8774   26.3624 C.2     1  UNL1        0.0130
      9 C          -3.7645    4.3659   25.1852 C.3     1  UNL1        0.1542
     10 C          -4.2807    4.5812   26.5770 C.3     1  UNL1        0.0614
     11 C          -5.5878    5.2851   26.7915 C.3     1  UNL1        0.0725
     12 N          -6.3787    5.7736   25.6143 N.3     1  UNL1       -0.2972
     13 C          -5.8625    5.5583   24.2225 C.3     1  UNL1        0.0725
     14 C          -4.5554    4.8544   24.0079 C.3     1  UNL1        0.0614
     15 O          -3.2483    4.1506   23.7933 O.3     1  UNL1       -0.4785
     16 C          -1.9412    3.4467   23.5787 C.ar    1  UNL1        0.1386
     17 C          -1.4249    3.2314   22.1869 C.ar    1  UNL1        0.0369
     18 C          -0.1178    2.5276   21.9723 C.ar    1  UNL1        0.0031
     19 C           0.6731    2.0390   23.1495 C.ar    1  UNL1        0.0002
     20 C           0.1569    2.2543   24.5413 C.ar    1  UNL1        0.0030
     21 C          -1.1503    2.9582   24.7559 C.ar    1  UNL1        0.0338
     22 H          -6.4929    6.7801   25.7336 H       1  UNL1        0.1233
     23 O           2.2072   -0.1002   30.7876 O.2     1  UNL1       -0.2699
     24 C           1.4971    1.2194   30.8566 C.2     1  UNL1        0.2495
     25 N           1.5779    2.0503   32.1027 N.am    1  UNL1       -0.2679
     26 C           0.9244    3.3832   32.3176 C.3     1  UNL1        0.1205
     27 C           1.2690    3.8509   33.7005 C.ar    1  UNL1       -0.0047
     28 C           0.9057    5.0925   34.4598 C.ar    1  UNL1       -0.0029
     29 C           1.4090    5.2902   35.8590 C.ar    1  UNL1       -0.0003
     30 C           2.2756    4.2463   36.4988 C.ar    1  UNL1       -0.0003
     31 C           2.6389    3.0048   35.7395 C.ar    1  UNL1       -0.0029
     32 C           2.1356    2.8071   34.3404 C.ar    1  UNL1       -0.0047
     33 C           2.3265    1.6942   33.3529 C.3     1  UNL1        0.1205
@<TRIPOS>BOND
     1    23    24    2
     2    24     1    1
     3     1     2   ar
     4     2     3   ar
     5     3     4   ar
     6     4     7    1
     7     7     8    2
     8     8     9    1
     9     9    10    1
    10    10    11    1
    11    11    12    1
    12    12    13    1
    13    13    14    1
    14     9    15    1
    15    15    16    1
    16    16    17   ar
    17    17    18   ar
    18    18    19   ar
    19    19    20   ar
    20    20    21   ar
    21     4     5   ar
    22     5     6   ar
    23    24    25   am
    24    25    26    1
    25    26    27    1
    26    27    28   ar
    27    28    29   ar
    28    29    30   ar
    29    30    31   ar
    30    31    32   ar
    31    32    33    1
    32     6     1   ar
    33    33    25    1
    34    21     7    1
    35    32    27   ar
    36    14     9    1
    37    21    16   ar
    38    12    22    1
@<TRIPOS>MOLECULE
*****
 33 38 0 0 0
SMALL
GASTEIGER

@<TRIPOS>ATOM
      1 C          -0.8140    3.5720   26.0534 C.ar    1  UNL1        0.0536
      2 C          -0.9698    2.1074   26.3373 C.ar    1  UNL1        0.0045
      3 C          -0.1102    1.1088   25.6203 C.ar    1  UNL1        0.0001
      4 C           0.9052    1.5750   24.6194 C.ar    1  UNL1       -0.0001
      5 C           1.0610    3.0396   24.3355 C.ar    1  UNL1        0.0001
      6 C           0.2014    4.0381   25.0525 C.ar    1  UNL1        0.0045
      7 C           1.7648    0.5764   23.9025 C.2     1  UNL1        0.0020
      8 C           2.8053   -0.1965   24.6574 C.2     1  UNL1        0.0130
      9 C           3.6649   -1.1951   23.9405 C.3     1  UNL1        0.1542
     10 C           3.8458   -0.9695   25.4123 C.3     1  UNL1        0.0614
     11 C           4.8863   -1.7424   26.1672 C.3     1  UNL1        0.0725
     12 N           5.7459   -2.7409   25.4502 N.3     1  UNL1       -0.2972
     13 C           5.5650   -2.9666   23.9784 C.3     1  UNL1        0.0725
     14 C           4.5245   -2.1936   23.2235 C.3     1  UNL1        0.0614
     15 O           3.4839   -1.4207   22.4686 O.3     1  UNL1       -0.4785
     16 C           2.4434   -0.6477   21.7137 C.ar    1  UNL1        0.1386
     17 C           2.2624   -0.8733   20.2418 C.ar    1  UNL1        0.0369
     18 C           1.2219   -0.1004   19.4869 C.ar    1  UNL1        0.0031
     19 C           0.3624    0.8982   20.2039 C.ar    1  UNL1        0.0002
     20 C           0.5433    1.1238   21.6757 C.ar    1  UNL1        0.0030
     21 C           1.5838    0.3508   22.4306 C.ar    1  UNL1        0.0338
     22 H           5.5954   -3.6406   25.9067 H       1  UNL1        0.1233
     23 O          -1.1207    5.3364   27.9357 O.2     1  UNL1       -0.2699
     24 C          -1.6736    4.5706   26.7703 C.2     1  UNL1        0.2495
     25 N          -3.0859    4.8034   26.3220 N.am    1  UNL1       -0.2679
     26 C          -3.7728    4.1161   25.1792 C.3     1  UNL1        0.1205
     27 C          -5.1707    4.6522   25.0886 C.ar    1  UNL1       -0.0047
     28 C          -6.3053    4.3445   24.1570 C.ar    1  UNL1       -0.0029
     29 C          -7.6171    5.0554   24.3121 C.ar    1  UNL1       -0.0003
     30 C          -7.7942    6.0740   25.3988 C.ar    1  UNL1       -0.0003
     31 C          -6.6596    6.3817   26.3305 C.ar    1  UNL1       -0.0029
     32 C          -5.3479    5.6709   26.1754 C.ar    1  UNL1       -0.0047
     33 C          -4.0594    5.7643   26.9376 C.3     1  UNL1        0.1205
@<TRIPOS>BOND
     1    23    24    2
     2    24     1    1
     3     1     2   ar
     4     2     3   ar
     5     3     4   ar
     6     4     7    1
     7     7     8    2
     8     8     9    1
     9     9    10    1
    10    10    11    1
    11    11    12    1
    12    12    13    1
    13    13    14    1
    14     9    15    1
    15    15    16    1
    16    16    17   ar
    17    17    18   ar
    18    18    19   ar
    19    19    20   ar
    20    20    21   ar
    21     4     5   ar
    22     5     6   ar
    23    24    25   am
    24    25    26    1
    25    26    27    1
    26    27    28   ar
    27    28    29   ar
    28    29    30   ar
    29    30    31   ar
    30    31    32   ar
    31    32    33    1
    32     6     1   ar
    33    33    25    1
    34    21     7    1
    35    32    27   ar
    36    14     9    1
    37    21    16   ar
    38    12    22    1
@<TRIPOS>MOLECULE
*****
 33 38 0 0 0
SMALL
GASTEIGER

@<TRIPOS>ATOM
      1 C           0.6993    1.7262   29.6191 C.ar    1  UNL1        0.0536
      2 C          -0.3197    0.8356   28.9720 C.ar    1  UNL1        0.0045
      3 C          -1.1399    1.3450   27.8240 C.ar    1  UNL1        0.0001
      4 C          -0.9411    2.7449   27.3231 C.ar    1  UNL1       -0.0001
      5 C           0.0778    3.6354   27.9703 C.ar    1  UNL1        0.0001
      6 C           0.8980    3.1260   29.1182 C.ar    1  UNL1        0.0045
      7 C          -1.7613    3.2542   26.1752 C.2     1  UNL1        0.0020
      8 C          -3.0559    3.9657   26.4358 C.2     1  UNL1        0.0130
      9 C          -3.8761    4.4750   25.2879 C.3     1  UNL1        0.1542
     10 C          -4.3505    4.6771   26.6965 C.3     1  UNL1        0.0614
     11 C          -5.6451    5.3885   26.9571 C.3     1  UNL1        0.0725
     12 N          -6.4653    5.8979   25.8091 N.3     1  UNL1       -0.2972
     13 C          -5.9909    5.6958   24.4005 C.3     1  UNL1        0.0725
     14 C          -4.6963    4.9844   24.1399 C.3     1  UNL1        0.0614
     15 O          -3.4017    4.2730   23.8793 O.3     1  UNL1       -0.4785
     16 C          -2.1072    3.5616   23.6186 C.ar    1  UNL1        0.1386
     17 C          -1.6327    3.3595   22.2100 C.ar    1  UNL1        0.0369
     18 C          -0.3382    2.6481   21.9494 C.ar    1  UNL1        0.0031
     19 C           0.4820    2.1387   23.0974 C.ar    1  UNL1        0.0002
     20 C           0.0077    2.3408   24.5059 C.ar    1  UNL1        0.0030
     21 C          -1.2870    3.0522   24.7666 C.ar    1  UNL1        0.0338
     22 H          -6.5677    6.9037   25.9439 H       1  UNL1        0.1233
     23 O           1.1465    1.5788   32.1742 O.2     1  UNL1       -0.2699
     24 C           1.5195    1.2168   30.7670 C.2     1  UNL1        0.2495
     25 N           2.7126    0.3455   30.5079 N.am    1  UNL1       -0.2679
     26 C           3.2051   -0.0978   29.1622 C.3     1  UNL1        0.1205
     27 C           4.4196   -0.9528   29.3716 C.ar    1  UNL1       -0.0047
     28 C           5.3238   -1.6648   28.4096 C.ar    1  UNL1       -0.0029
     29 C           6.4863   -2.4620   28.9229 C.ar    1  UNL1       -0.0003
     30 C           6.7445   -2.5471   30.3980 C.ar    1  UNL1       -0.0003
     31 C           5.8403   -1.8350   31.3600 C.ar    1  UNL1       -0.0029
     32 C           4.6779   -1.0379   30.8468 C.ar    1  UNL1       -0.0047
     33 C           3.6229   -0.2355   31.5491 C.3     1  UNL1        0.1205
@<TRIPOS>BOND
     1    23    24    2
     2    24     1    1
     3     1     2   ar
     4     2     3   ar
     5     3     4   ar
     6     4     7    1
     7     7     8    2
     8     8     9    1
     9     9    10    1
    10    10    11    1
    11    11    12    1
    12    12    13    1
    13    13    14    1
    14     9    15    1
    15    15    16    1
    16    16    17   ar
    17    17    18   ar
    18    18    19   ar
    19    19    20   ar
    20    20    21   ar
    21     4     5   ar
    22     5     6   ar
    23    24    25   am
    24    25    26    1
    25    26    27    1
    26    27    28   ar
    27    28    29   ar
    28    29    30   ar
    29    30    31   ar
    30    31    32   ar
    31    32    33    1
    32     6     1   ar
    33    33    25    1
    34    21     7    1
    35    32    27   ar
    36    14     9    1
    37    21    16   ar
    38    12    22    1
