@<TRIPOS>MOLECULE
*****
 17 19 0 0 0
SMALL
GASTEIGER

@<TRIPOS>ATOM
      1 C          -7.9926  -19.5228   19.8366 C.3     1  UNL1        0.0896
      2 N          -9.0728  -18.7020   20.4763 N.3     1  UNL1       -0.2712
      3 C         -10.5019  -18.6218   20.0276 C.3     1  UNL1        0.0725
      4 C         -11.2260  -17.6875   20.9510 C.3     1  UNL1        0.0210
      5 C         -12.5567  -17.0605   21.2444 C.3     1  UNL1        0.0018
      6 C         -12.3976  -16.1757   22.4451 C.3     1  UNL1        0.0004
      7 C         -10.9685  -16.2558   22.8938 C.3     1  UNL1        0.0054
      8 C         -10.2444  -17.1902   21.9704 C.3     1  UNL1        0.0349
      9 C          -8.9137  -17.8171   21.6771 C.3     1  UNL1        0.0762
     10 C          -9.2628  -16.6929   22.9898 C.ar    1  UNL1       -0.0206
     11 C          -8.0895  -15.8635   22.5591 C.ar    1  UNL1       -0.0033
     12 C          -7.1080  -15.3662   23.5786 C.ar    1  UNL1        0.0119
     13 C          -7.2998  -15.6983   25.0287 C.ar    1  UNL1        0.0682
     14 CL         -6.3182  -15.2010   26.0481 Cl      1  UNL1       -0.0814
     15 C          -8.4731  -16.5276   25.4595 C.ar    1  UNL1        0.0679
     16 CL         -8.6648  -16.8596   26.9096 Cl      1  UNL1       -0.0814
     17 C          -9.4546  -17.0249   24.4400 C.ar    1  UNL1        0.0080
@<TRIPOS>BOND
     1     1     2    1
     2     2     3    1
     3     4     3    1
     4     4     5    1
     5     5     6    1
     6     6     7    1
     7     7     8    1
     8     8    10    1
     9    10    11   ar
    10    11    12   ar
    11    12    13   ar
    12    13    14    1
    13    13    15   ar
    14    15    16    1
    15    15    17   ar
    16     8     9    1
    17     9     2    1
    18     8     4    1
    19    17    10   ar
@<TRIPOS>MOLECULE
*****
 17 19 0 0 0
SMALL
GASTEIGER

@<TRIPOS>ATOM
      1 C         -11.0171  -15.5615   20.0216 C.3     1  UNL1        0.0896
      2 N         -10.7689  -16.7254   20.9345 N.3     1  UNL1       -0.2712
      3 C         -11.4584  -18.0562   20.8739 C.3     1  UNL1        0.0725
      4 C         -10.9032  -18.9163   21.9703 C.3     1  UNL1        0.0210
      5 C         -10.9863  -20.2702   22.6105 C.3     1  UNL1        0.0018
      6 C         -10.0050  -20.3078   23.7443 C.3     1  UNL1        0.0004
      7 C          -9.3154  -18.9771   23.8049 C.3     1  UNL1        0.0054
      8 C          -9.8706  -18.1170   22.7085 C.3     1  UNL1        0.0349
      9 C          -9.7875  -16.7631   22.0684 C.3     1  UNL1        0.0762
     10 C          -8.8379  -17.3178   23.4467 C.ar    1  UNL1       -0.0206
     11 C          -7.4804  -17.1077   22.8442 C.ar    1  UNL1       -0.0033
     12 C          -6.4478  -16.3084   23.5825 C.ar    1  UNL1        0.0119
     13 C          -6.7728  -15.7194   24.9231 C.ar    1  UNL1        0.0682
     14 CL         -5.7401  -14.9202   25.6613 Cl      1  UNL1       -0.0814
     15 C          -8.1303  -15.9295   25.5256 C.ar    1  UNL1        0.0679
     16 CL         -8.4551  -15.3405   26.8663 Cl      1  UNL1       -0.0814
     17 C          -9.1629  -16.7288   24.7874 C.ar    1  UNL1        0.0080
@<TRIPOS>BOND
     1     1     2    1
     2     2     3    1
     3     4     3    1
     4     4     5    1
     5     5     6    1
     6     6     7    1
     7     7     8    1
     8     8    10    1
     9    10    11   ar
    10    11    12   ar
    11    12    13   ar
    12    13    14    1
    13    13    15   ar
    14    15    16    1
    15    15    17   ar
    16     8     9    1
    17     9     2    1
    18     8     4    1
    19    17    10   ar
@<TRIPOS>MOLECULE
*****
 17 19 0 0 0
SMALL
GASTEIGER

@<TRIPOS>ATOM
      1 C         -11.4656  -15.6655   19.3244 C.3     1  UNL1        0.0896
      2 N         -11.5515  -16.4380   20.6072 N.3     1  UNL1       -0.2712
      3 C         -12.7996  -16.6996   21.3971 C.3     1  UNL1        0.0725
      4 C         -12.4238  -17.5078   22.6036 C.3     1  UNL1        0.0210
      5 C         -12.9629  -18.1690   23.8373 C.3     1  UNL1        0.0018
      6 C         -11.8157  -18.8156   24.5556 C.3     1  UNL1        0.0004
      7 C         -10.5676  -18.5541   23.7657 C.3     1  UNL1        0.0054
      8 C         -10.9434  -17.7458   22.5593 C.3     1  UNL1        0.0349
      9 C         -10.4043  -17.0847   21.3255 C.3     1  UNL1        0.0762
     10 C          -9.4631  -17.9839   22.5150 C.ar    1  UNL1       -0.0206
     11 C          -8.9228  -19.2333   21.8848 C.ar    1  UNL1       -0.0033
     12 C          -7.4425  -19.4712   21.8406 C.ar    1  UNL1        0.0119
     13 C          -6.5024  -18.4598   22.4264 C.ar    1  UNL1        0.0682
     14 CL         -5.0221  -18.6978   22.3821 Cl      1  UNL1       -0.0814
     15 C          -7.0427  -17.2104   23.0566 C.ar    1  UNL1        0.0679
     16 CL         -6.1026  -16.1990   23.6425 Cl      1  UNL1       -0.0814
     17 C          -8.5231  -16.9724   23.1009 C.ar    1  UNL1        0.0080
@<TRIPOS>BOND
     1     1     2    1
     2     2     3    1
     3     4     3    1
     4     4     5    1
     5     5     6    1
     6     6     7    1
     7     7     8    1
     8     8    10    1
     9    10    11   ar
    10    11    12   ar
    11    12    13   ar
    12    13    14    1
    13    13    15   ar
    14    15    16    1
    15    15    17   ar
    16     8     9    1
    17     9     2    1
    18     8     4    1
    19    17    10   ar
@<TRIPOS>MOLECULE
*****
 17 19 0 0 0
SMALL
GASTEIGER

@<TRIPOS>ATOM
      1 C          -5.0678  -16.2676   24.0250 C.3     1  UNL1        0.0896
      2 N          -4.8466  -17.3819   23.0456 N.3     1  UNL1       -0.2712
      3 C          -3.5165  -17.9157   22.6030 C.3     1  UNL1        0.0725
      4 C          -3.7645  -19.0219   21.6207 C.3     1  UNL1        0.0210
      5 C          -3.0957  -20.0354   20.7401 C.3     1  UNL1        0.0018
      6 C          -4.1658  -20.8116   20.0314 C.3     1  UNL1        0.0004
      7 C          -5.4959  -20.2779   20.4739 C.3     1  UNL1        0.0054
      8 C          -5.2479  -19.1717   21.4562 C.3     1  UNL1        0.0349
      9 C          -5.9167  -18.1582   22.3368 C.3     1  UNL1        0.0762
     10 C          -6.7313  -19.3216   21.2917 C.ar    1  UNL1       -0.0206
     11 C          -7.3510  -19.2014   19.9310 C.ar    1  UNL1       -0.0033
     12 C          -8.8344  -19.3512   19.7666 C.ar    1  UNL1        0.0119
     13 C          -9.6981  -19.6213   20.9629 C.ar    1  UNL1        0.0682
     14 CL        -11.1815  -19.7712   20.7984 Cl      1  UNL1       -0.0814
     15 C          -9.0784  -19.7415   22.3236 C.ar    1  UNL1        0.0679
     16 CL         -9.9422  -20.0116   23.5198 Cl      1  UNL1       -0.0814
     17 C          -7.5950  -19.5916   22.4880 C.ar    1  UNL1        0.0080
@<TRIPOS>BOND
     1     1     2    1
     2     2     3    1
     3     4     3    1
     4     4     5    1
     5     5     6    1
     6     6     7    1
     7     7     8    1
     8     8    10    1
     9    10    11   ar
    10    11    12   ar
    11    12    13   ar
    12    13    14    1
    13    13    15   ar
    14    15    16    1
    15    15    17   ar
    16     8     9    1
    17     9     2    1
    18     8     4    1
    19    17    10   ar
@<TRIPOS>MOLECULE
*****
 17 19 0 0 0
SMALL
GASTEIGER

@<TRIPOS>ATOM
      1 C          -9.7249  -21.1513   24.4596 C.3     1  UNL1        0.0896
      2 N          -9.9476  -19.9010   23.6616 N.3     1  UNL1       -0.2712
      3 C         -10.9385  -19.7302   22.5484 C.3     1  UNL1        0.0725
      4 C         -10.8219  -18.3255   22.0354 C.3     1  UNL1        0.0210
      5 C         -11.3622  -17.3519   21.0304 C.3     1  UNL1        0.0018
      6 C         -10.6332  -16.0527   21.2053 C.3     1  UNL1        0.0004
      7 C          -9.6423  -16.2234   22.3185 C.3     1  UNL1        0.0054
      8 C          -9.7589  -17.6281   22.8315 C.3     1  UNL1        0.0349
      9 C          -9.2186  -18.6017   23.8365 C.3     1  UNL1        0.0762
     10 C          -8.6960  -16.9306   23.6276 C.ar    1  UNL1       -0.0206
     11 C          -7.3302  -16.7296   23.0410 C.ar    1  UNL1       -0.0033
     12 C          -6.2673  -16.0321   23.8372 C.ar    1  UNL1        0.0119
     13 C          -6.5703  -15.5357   25.2198 C.ar    1  UNL1        0.0682
     14 CL         -5.5073  -14.8383   26.0159 Cl      1  UNL1       -0.0814
     15 C          -7.9361  -15.7368   25.8064 C.ar    1  UNL1        0.0679
     16 CL         -8.2390  -15.2403   27.1891 Cl      1  UNL1       -0.0814
     17 C          -8.9990  -16.4342   25.0102 C.ar    1  UNL1        0.0080
@<TRIPOS>BOND
     1     1     2    1
     2     2     3    1
     3     4     3    1
     4     4     5    1
     5     5     6    1
     6     6     7    1
     7     7     8    1
     8     8    10    1
     9    10    11   ar
    10    11    12   ar
    11    12    13   ar
    12    13    14    1
    13    13    15   ar
    14    15    16    1
    15    15    17   ar
    16     8     9    1
    17     9     2    1
    18     8     4    1
    19    17    10   ar
@<TRIPOS>MOLECULE
*****
 17 19 0 0 0
SMALL
GASTEIGER

@<TRIPOS>ATOM
      1 C          -5.3699  -19.3064   21.3686 C.3     1  UNL1        0.0896
      2 N          -5.8565  -18.2160   22.2762 N.3     1  UNL1       -0.2712
      3 C          -5.0002  -17.3497   23.1516 C.3     1  UNL1        0.0725
      4 C          -5.8994  -16.3986   23.8843 C.3     1  UNL1        0.0210
      5 C          -5.9258  -15.2754   24.8782 C.3     1  UNL1        0.0018
      6 C          -7.3543  -14.8596   25.0699 C.3     1  UNL1        0.0004
      7 C          -8.2106  -15.7259   24.1945 C.3     1  UNL1        0.0054
      8 C          -7.3115  -16.6770   23.4618 C.3     1  UNL1        0.0349
      9 C          -7.2850  -17.8002   22.4679 C.3     1  UNL1        0.0762
     10 C          -8.7235  -16.9555   23.0392 C.ar    1  UNL1       -0.0206
     11 C          -9.5837  -17.8734   23.8563 C.ar    1  UNL1       -0.0033
     12 C         -10.9958  -18.1518   23.4336 C.ar    1  UNL1        0.0119
     13 C         -11.5476  -17.5123   22.1941 C.ar    1  UNL1        0.0682
     14 CL        -12.9597  -17.7908   21.7715 Cl      1  UNL1       -0.0814
     15 C         -10.6874  -16.5944   21.3771 C.ar    1  UNL1        0.0679
     16 CL        -11.2393  -15.9550   20.1375 Cl      1  UNL1       -0.0814
     17 C          -9.2753  -16.3160   21.7997 C.ar    1  UNL1        0.0080
@<TRIPOS>BOND
     1     1     2    1
     2     2     3    1
     3     4     3    1
     4     4     5    1
     5     5     6    1
     6     6     7    1
     7     7     8    1
     8     8    10    1
     9    10    11   ar
    10    11    12   ar
    11    12    13   ar
    12    13    14    1
    13    13    15   ar
    14    15    16    1
    15    15    17   ar
    16     8     9    1
    17     9     2    1
    18     8     4    1
    19    17    10   ar
@<TRIPOS>MOLECULE
*****
 17 19 0 0 0
SMALL
GASTEIGER

@<TRIPOS>ATOM
      1 C          -6.0751  -15.2524   24.1980 C.3     1  UNL1        0.0896
      2 N          -6.1346  -16.5487   23.4458 N.3     1  UNL1       -0.2712
      3 C          -4.9621  -17.4075   23.0748 C.3     1  UNL1        0.0725
      4 C          -5.4799  -18.6035   22.3322 C.3     1  UNL1        0.0210
      5 C          -5.0753  -19.8733   21.6439 C.3     1  UNL1        0.0018
      6 C          -6.3178  -20.5385   21.1306 C.3     1  UNL1        0.0004
      7 C          -7.4904  -19.6798   21.5015 C.3     1  UNL1        0.0054
      8 C          -6.9726  -18.4838   22.2442 C.3     1  UNL1        0.0349
      9 C          -7.3772  -17.2140   22.9324 C.3     1  UNL1        0.0762
     10 C          -8.4652  -18.3642   22.1562 C.ar    1  UNL1       -0.0206
     11 C          -9.1150  -18.0308   20.8460 C.ar    1  UNL1       -0.0033
     12 C         -10.6076  -17.9112   20.7581 C.ar    1  UNL1        0.0119
     13 C         -11.4504  -18.1249   21.9803 C.ar    1  UNL1        0.0682
     14 CL        -12.9431  -18.0053   21.8923 Cl      1  UNL1       -0.0814
     15 C         -10.8007  -18.4583   23.2906 C.ar    1  UNL1        0.0679
     16 CL        -11.6436  -18.6720   24.5128 Cl      1  UNL1       -0.0814
     17 C          -9.3080  -18.5779   23.3785 C.ar    1  UNL1        0.0080
@<TRIPOS>BOND
     1     1     2    1
     2     2     3    1
     3     4     3    1
     4     4     5    1
     5     5     6    1
     6     6     7    1
     7     7     8    1
     8     8    10    1
     9    10    11   ar
    10    11    12   ar
    11    12    13   ar
    12    13    14    1
    13    13    15   ar
    14    15    16    1
    15    15    17   ar
    16     8     9    1
    17     9     2    1
    18     8     4    1
    19    17    10   ar
@<TRIPOS>MOLECULE
*****
 17 19 0 0 0
SMALL
GASTEIGER

@<TRIPOS>ATOM
      1 C         -14.1203   -6.9437   16.0361 C.3     1  UNL1        0.0896
      2 N         -12.8955   -6.7342   16.8761 N.3     1  UNL1       -0.2712
      3 C         -11.9132   -7.7927   17.2822 C.3     1  UNL1        0.0725
      4 C         -10.8484   -7.1421   18.1147 C.3     1  UNL1        0.0210
      5 C          -9.5833   -7.3943   18.8802 C.3     1  UNL1        0.0018
      6 C          -9.1256   -6.0896   19.4617 C.3     1  UNL1        0.0004
      7 C         -10.1079   -5.0311   19.0557 C.3     1  UNL1        0.0054
      8 C         -11.1726   -5.6816   18.2232 C.3     1  UNL1        0.0349
      9 C         -12.4377   -5.4295   17.4578 C.3     1  UNL1        0.0762
     10 C         -11.4968   -4.2211   18.3317 C.ar    1  UNL1       -0.0206
     11 C         -12.5381   -3.7543   19.3053 C.ar    1  UNL1       -0.0033
     12 C         -12.8622   -2.2937   19.4137 C.ar    1  UNL1        0.0119
     13 C         -12.1452   -1.3001   18.5486 C.ar    1  UNL1        0.0682
     14 CL        -12.4694    0.1605   18.6571 Cl      1  UNL1       -0.0814
     15 C         -11.1040   -1.7669   17.5750 C.ar    1  UNL1        0.0679
     16 CL        -10.3869   -0.7732   16.7099 Cl      1  UNL1       -0.0814
     17 C         -10.7798   -3.2275   17.4666 C.ar    1  UNL1        0.0080
@<TRIPOS>BOND
     1     1     2    1
     2     2     3    1
     3     4     3    1
     4     4     5    1
     5     5     6    1
     6     6     7    1
     7     7     8    1
     8     8    10    1
     9    10    11   ar
    10    11    12   ar
    11    12    13   ar
    12    13    14    1
    13    13    15   ar
    14    15    16    1
    15    15    17   ar
    16     8     9    1
    17     9     2    1
    18     8     4    1
    19    17    10   ar
@<TRIPOS>MOLECULE
*****
 17 19 0 0 0
SMALL
GASTEIGER

@<TRIPOS>ATOM
      1 C          -3.3853  -19.8028   21.8709 C.3     1  UNL1        0.0896
      2 N          -4.2354  -18.7036   22.4356 N.3     1  UNL1       -0.2712
      3 C          -3.7443  -17.5247   23.2224 C.3     1  UNL1        0.0725
      4 C          -4.9313  -16.6827   23.5858 C.3     1  UNL1        0.0210
      5 C          -5.3613  -15.4338   24.2966 C.3     1  UNL1        0.0018
      6 C          -6.8520  -15.3204   24.1736 C.3     1  UNL1        0.0004
      7 C          -7.3432  -16.4993   23.3869 C.3     1  UNL1        0.0054
      8 C          -6.1562  -17.3412   23.0235 C.3     1  UNL1        0.0349
      9 C          -5.7261  -18.5902   22.3127 C.3     1  UNL1        0.0762
     10 C          -7.3810  -17.9997   22.4613 C.ar    1  UNL1       -0.0206
     11 C          -8.6086  -18.1497   23.3102 C.ar    1  UNL1       -0.0033
     12 C          -9.8334  -18.8082   22.7478 C.ar    1  UNL1        0.0119
     13 C          -9.8306  -19.3167   21.3367 C.ar    1  UNL1        0.0682
     14 CL        -11.0555  -19.9752   20.7744 Cl      1  UNL1       -0.0814
     15 C          -8.6031  -19.1668   20.4878 C.ar    1  UNL1        0.0679
     16 CL         -8.6004  -19.6753   19.0766 Cl      1  UNL1       -0.0814
     17 C          -7.3782  -18.5082   21.0501 C.ar    1  UNL1        0.0080
@<TRIPOS>BOND
     1     1     2    1
     2     2     3    1
     3     4     3    1
     4     4     5    1
     5     5     6    1
     6     6     7    1
     7     7     8    1
     8     8    10    1
     9    10    11   ar
    10    11    12   ar
    11    12    13   ar
    12    13    14    1
    13    13    15   ar
    14    15    16    1
    15    15    17   ar
    16     8     9    1
    17     9     2    1
    18     8     4    1
    19    17    10   ar
