@<TRIPOS>MOLECULE
*****
 27 29 0 0 0
SMALL
GASTEIGER

@<TRIPOS>ATOM
      1 C          -7.8801  -18.3531   21.5361 C.2     1  UNL1        0.2420
      2 O          -9.3506  -18.6283   21.4272 O.2     1  UNL1       -0.2734
      3 N          -7.3451  -17.5885   22.7105 N.am    1  UNL1       -0.2760
      4 C          -5.8746  -17.3132   22.8193 C.3     1  UNL1        0.0983
      5 C          -5.3396  -16.5486   23.9937 C.3     1  UNL1        0.0476
      6 C          -6.2751  -16.0593   25.0593 C.ar    1  UNL1       -0.0229
      7 C          -5.7401  -15.2947   26.2337 C.ar    1  UNL1       -0.0045
      8 C          -6.6756  -14.8055   27.2992 C.ar    1  UNL1       -0.0003
      9 C          -8.1461  -15.0807   27.1904 C.ar    1  UNL1       -0.0003
     10 C          -8.6811  -15.8453   26.0160 C.ar    1  UNL1       -0.0030
     11 C          -7.7456  -16.3346   24.9505 C.ar    1  UNL1       -0.0082
     12 C          -8.2806  -17.0992   23.7760 C.3     1  UNL1        0.0975
     13 C          -9.7511  -17.3745   23.6672 C.3     1  UNL1        0.0224
     14 C         -10.6325  -16.4443   22.8874 C.3     1  UNL1        0.0020
     15 C         -12.1030  -16.7196   22.7786 C.3     1  UNL1        0.0001
     16 C         -12.6921  -17.9250   23.4495 C.3     1  UNL1        0.0000
     17 C         -11.8106  -18.8551   24.2293 C.3     1  UNL1        0.0001
     18 C         -10.3401  -18.5798   24.3381 C.3     1  UNL1        0.0020
     19 C          -6.9446  -18.8424   20.4705 C.3     1  UNL1        0.1552
     20 N          -6.2597  -20.1679   20.6248 N.3     1  UNL1       -0.2878
     21 H          -6.2601  -20.3853   21.6213 H       1  UNL1        0.1238
     22 C          -4.8498  -20.3441   20.1438 C.3     1  UNL1        0.0985
     23 C          -3.8074  -19.3211   20.4854 C.3     1  UNL1        0.1262
     24 O          -3.6402  -18.1043   19.6244 O.3     1  UNL1       -0.3830
     25 H          -4.2792  -18.1339   18.8952 H       1  UNL1        0.2104
     26 C          -2.2008  -18.3465   22.2795 C.3     1  UNL1        0.0026
     27 C          -2.9322  -19.5149   21.6880 C.3     1  UNL1        0.0307
@<TRIPOS>BOND
     1    26    27    1
     2    27    23    1
     3    23    24    1
     4    23    22    1
     5    22    20    1
     6    20    19    1
     7    19     1    1
     8     1     2    2
     9     1     3   am
    10     3     4    1
    11     4     5    1
    12     5     6    1
    13     6     7   ar
    14     7     8   ar
    15     8     9   ar
    16     9    10   ar
    17    10    11   ar
    18    11    12    1
    19    12    13    1
    20    13    14    1
    21    14    15    1
    22    15    16    1
    23    16    17    1
    24    17    18    1
    25    12     3    1
    26    18    13    1
    27    11     6   ar
    28    24    25    1
    29    20    21    1
@<TRIPOS>MOLECULE
*****
 27 29 0 0 0
SMALL
GASTEIGER

@<TRIPOS>ATOM
      1 C          -5.8916  -19.6898   20.9328 C.2     1  UNL1        0.2420
      2 O          -7.1928  -20.2156   20.4032 O.2     1  UNL1       -0.2734
      3 N          -5.8873  -18.6146   21.9789 N.am    1  UNL1       -0.2760
      4 C          -4.5861  -18.0888   22.5085 C.3     1  UNL1        0.0983
      5 C          -4.5817  -17.0137   23.5544 C.3     1  UNL1        0.0476
      6 C          -5.8785  -16.4643   24.0708 C.ar    1  UNL1       -0.0229
      7 C          -5.8741  -15.3892   25.1168 C.ar    1  UNL1       -0.0045
      8 C          -7.1709  -14.8399   25.6331 C.ar    1  UNL1       -0.0003
      9 C          -8.4720  -15.3658   25.1035 C.ar    1  UNL1       -0.0003
     10 C          -8.4764  -16.4409   24.0575 C.ar    1  UNL1       -0.0030
     11 C          -7.1797  -16.9902   23.5412 C.ar    1  UNL1       -0.0082
     12 C          -7.1840  -18.0653   22.4952 C.3     1  UNL1        0.0975
     13 C          -8.4852  -18.5911   21.9655 C.3     1  UNL1        0.0224
     14 C          -9.0631  -18.0273   20.7013 C.3     1  UNL1        0.0020
     15 C         -10.3642  -18.5531   20.1717 C.3     1  UNL1        0.0001
     16 C         -11.0875  -19.6428   20.9063 C.3     1  UNL1        0.0000
     17 C         -10.5096  -20.2066   22.1704 C.3     1  UNL1        0.0001
     18 C          -9.2085  -19.6807   22.7001 C.3     1  UNL1        0.0020
     19 C          -4.5949  -20.2391   20.4165 C.3     1  UNL1        0.1552
     20 N          -3.7139  -19.3909   19.5480 N.3     1  UNL1       -0.2878
     21 H          -3.7122  -19.8196   18.6225 H       1  UNL1        0.1238
     22 C          -2.2791  -19.1687   19.9250 C.3     1  UNL1        0.0985
     23 C          -1.5392  -17.9780   19.3915 C.3     1  UNL1        0.1262
     24 O          -1.4825  -17.7307   17.9131 O.3     1  UNL1       -0.3830
     25 H          -1.9713  -18.4287   17.4496 H       1  UNL1        0.2104
     26 C          -1.6618  -16.2616   21.3381 C.3     1  UNL1        0.0026
     27 C          -0.8559  -17.0345   20.3365 C.3     1  UNL1        0.0307
@<TRIPOS>BOND
     1    26    27    1
     2    27    23    1
     3    23    24    1
     4    23    22    1
     5    22    20    1
     6    20    19    1
     7    19     1    1
     8     1     2    2
     9     1     3   am
    10     3     4    1
    11     4     5    1
    12     5     6    1
    13     6     7   ar
    14     7     8   ar
    15     8     9   ar
    16     9    10   ar
    17    10    11   ar
    18    11    12    1
    19    12    13    1
    20    13    14    1
    21    14    15    1
    22    15    16    1
    23    16    17    1
    24    17    18    1
    25    12     3    1
    26    18    13    1
    27    11     6   ar
    28    24    25    1
    29    20    21    1
@<TRIPOS>MOLECULE
*****
 27 29 0 0 0
SMALL
GASTEIGER

@<TRIPOS>ATOM
      1 C          -6.0516  -16.5549   23.4239 C.2     1  UNL1        0.2420
      2 O          -5.1471  -17.5546   22.7663 O.2     1  UNL1       -0.2734
      3 N          -7.5369  -16.6505   23.2371 N.am    1  UNL1       -0.2760
      4 C          -8.4414  -15.6508   23.8946 C.3     1  UNL1        0.0983
      5 C          -9.9266  -15.7464   23.7079 C.3     1  UNL1        0.0476
      6 C         -10.5074  -16.8419   22.8636 C.ar    1  UNL1       -0.0229
      7 C         -11.9927  -16.9375   22.6769 C.ar    1  UNL1       -0.0045
      8 C         -12.5734  -18.0329   21.8326 C.ar    1  UNL1       -0.0003
      9 C         -11.6689  -19.0326   21.1751 C.ar    1  UNL1       -0.0003
     10 C         -10.1837  -18.9370   21.3618 C.ar    1  UNL1       -0.0030
     11 C          -9.6029  -17.8416   22.2061 C.ar    1  UNL1       -0.0082
     12 C          -8.1176  -17.7459   22.3928 C.3     1  UNL1        0.0975
     13 C          -7.2131  -18.7457   21.7353 C.3     1  UNL1        0.0224
     14 C          -6.5863  -18.4316   20.4092 C.3     1  UNL1        0.0020
     15 C          -5.6818  -19.4314   19.7516 C.3     1  UNL1        0.0001
     16 C          -5.4041  -20.7452   20.4202 C.3     1  UNL1        0.0000
     17 C          -6.0310  -21.0592   21.7462 C.3     1  UNL1        0.0001
     18 C          -6.9355  -20.0594   22.4038 C.3     1  UNL1        0.0020
     19 C          -5.4709  -15.4595   24.2681 C.3     1  UNL1        0.1552
     20 N          -5.0073  -15.7541   25.6639 N.3     1  UNL1       -0.2878
     21 H          -4.2265  -16.4055   25.5835 H       1  UNL1        0.1238
     22 C          -5.9602  -16.3415   26.6624 C.3     1  UNL1        0.0985
     23 C          -6.9577  -15.4611   27.3551 C.3     1  UNL1        0.1262
     24 O          -6.5498  -14.1006   27.8375 O.3     1  UNL1       -0.3830
     25 H          -5.6160  -13.9483   27.6237 H       1  UNL1        0.2104
     26 C          -8.8151  -17.2317   26.9484 C.3     1  UNL1        0.0026
     27 C          -8.3631  -15.9412   27.5652 C.3     1  UNL1        0.0307
@<TRIPOS>BOND
     1    26    27    1
     2    27    23    1
     3    23    24    1
     4    23    22    1
     5    22    20    1
     6    20    19    1
     7    19     1    1
     8     1     2    2
     9     1     3   am
    10     3     4    1
    11     4     5    1
    12     5     6    1
    13     6     7   ar
    14     7     8   ar
    15     8     9   ar
    16     9    10   ar
    17    10    11   ar
    18    11    12    1
    19    12    13    1
    20    13    14    1
    21    14    15    1
    22    15    16    1
    23    16    17    1
    24    17    18    1
    25    12     3    1
    26    18    13    1
    27    11     6   ar
    28    24    25    1
    29    20    21    1
@<TRIPOS>MOLECULE
*****
 27 29 0 0 0
SMALL
GASTEIGER

@<TRIPOS>ATOM
      1 C         -13.8247   -7.4796   18.0512 C.2     1  UNL1        0.2420
      2 O         -12.3696   -7.5143   17.6885 O.2     1  UNL1       -0.2734
      3 N         -14.4806   -6.1755   18.3966 N.am    1  UNL1       -0.2760
      4 C         -15.9357   -6.1408   18.7594 C.3     1  UNL1        0.0983
      5 C         -16.5917   -4.8368   19.1047 C.3     1  UNL1        0.0476
      6 C         -15.7926   -3.5675   19.0873 C.ar    1  UNL1       -0.0229
      7 C         -16.4485   -2.2635   19.4326 C.ar    1  UNL1       -0.0045
      8 C         -15.6495   -0.9942   19.4152 C.ar    1  UNL1       -0.0003
      9 C         -14.1944   -1.0289   19.0524 C.ar    1  UNL1       -0.0003
     10 C         -13.5384   -2.3329   18.7071 C.ar    1  UNL1       -0.0030
     11 C         -14.3375   -3.6022   18.7245 C.ar    1  UNL1       -0.0082
     12 C         -13.6816   -4.9062   18.3792 C.3     1  UNL1        0.0975
     13 C         -12.2265   -4.9409   18.0164 C.3     1  UNL1        0.0224
     14 C         -11.1906   -5.1167   19.0869 C.3     1  UNL1        0.0020
     15 C          -9.7355   -5.1514   18.7241 C.3     1  UNL1        0.0001
     16 C          -9.3164   -5.0103   17.2908 C.3     1  UNL1        0.0000
     17 C         -10.3523   -4.8346   16.2203 C.3     1  UNL1        0.0001
     18 C         -11.8073   -4.7999   16.5831 C.3     1  UNL1        0.0020
     19 C         -14.6238   -8.7488   18.0687 C.3     1  UNL1        0.1552
     20 N         -15.0565   -9.3447   19.3755 N.3     1  UNL1       -0.2878
     21 H         -14.5779  -10.2411   19.4632 H       1  UNL1        0.1238
     22 C         -16.5108   -9.6029   19.6370 C.3     1  UNL1        0.0985
     23 C         -17.2382  -10.6559   18.8548 C.3     1  UNL1        0.1262
     24 O         -16.9525  -12.1071   19.1046 O.3     1  UNL1       -0.3830
     25 H         -16.2783  -12.1894   19.7972 H       1  UNL1        0.2104
     26 C         -18.4690   -8.8079   17.5057 C.3     1  UNL1        0.0026
     27 C         -18.2512  -10.2578   17.8227 C.3     1  UNL1        0.0307
@<TRIPOS>BOND
     1    26    27    1
     2    27    23    1
     3    23    24    1
     4    23    22    1
     5    22    20    1
     6    20    19    1
     7    19     1    1
     8     1     2    2
     9     1     3   am
    10     3     4    1
    11     4     5    1
    12     5     6    1
    13     6     7   ar
    14     7     8   ar
    15     8     9   ar
    16     9    10   ar
    17    10    11   ar
    18    11    12    1
    19    12    13    1
    20    13    14    1
    21    14    15    1
    22    15    16    1
    23    16    17    1
    24    17    18    1
    25    12     3    1
    26    18    13    1
    27    11     6   ar
    28    24    25    1
    29    20    21    1
@<TRIPOS>MOLECULE
*****
 27 29 0 0 0
SMALL
GASTEIGER

@<TRIPOS>ATOM
      1 C         -13.4187   -7.6141   18.0097 C.2     1  UNL1        0.2420
      2 O         -14.1953   -8.8956   17.9407 O.2     1  UNL1       -0.2734
      3 N         -14.1065   -6.3406   18.4036 N.am    1  UNL1       -0.2760
      4 C         -13.3299   -5.0591   18.4725 C.3     1  UNL1        0.0983
      5 C         -14.0176   -3.7856   18.8664 C.3     1  UNL1        0.0476
      6 C         -15.4820   -3.7936   19.1915 C.ar    1  UNL1       -0.0229
      7 C         -16.1698   -2.5201   19.5854 C.ar    1  UNL1       -0.0045
      8 C         -17.6341   -2.5281   19.9104 C.ar    1  UNL1       -0.0003
      9 C         -18.4107   -3.8095   19.8415 C.ar    1  UNL1       -0.0003
     10 C         -17.7229   -5.0830   19.4476 C.ar    1  UNL1       -0.0030
     11 C         -16.2586   -5.0750   19.1226 C.ar    1  UNL1       -0.0082
     12 C         -15.5708   -6.3486   18.7286 C.3     1  UNL1        0.0975
     13 C         -16.3474   -7.6301   18.6597 C.3     1  UNL1        0.0224
     14 C         -17.0680   -8.0034   17.3982 C.3     1  UNL1        0.0020
     15 C         -17.8446   -9.2849   17.3293 C.3     1  UNL1        0.0001
     16 C         -17.9006  -10.1930   18.5219 C.3     1  UNL1        0.0000
     17 C         -17.1800   -9.8196   19.7834 C.3     1  UNL1        0.0001
     18 C         -16.4035   -8.5381   19.8523 C.3     1  UNL1        0.0020
     19 C         -11.9544   -7.6061   17.6846 C.3     1  UNL1        0.1552
     20 N         -10.9410   -7.5711   18.7900 N.3     1  UNL1       -0.2878
     21 H         -11.3798   -7.0924   19.5766 H       1  UNL1        0.1238
     22 C          -9.6120   -6.9118   18.5684 C.3     1  UNL1        0.0985
     23 C          -9.5352   -5.4270   18.3702 C.3     1  UNL1        0.1262
     24 O          -9.6638   -4.5055   19.5468 O.3     1  UNL1       -0.3830
     25 H          -9.7908   -5.0279   20.3542 H       1  UNL1        0.2104
     26 C         -10.5139   -4.5139   16.1434 C.3     1  UNL1        0.0026
     27 C          -9.3297   -4.8636   16.9953 C.3     1  UNL1        0.0307
@<TRIPOS>BOND
     1    26    27    1
     2    27    23    1
     3    23    24    1
     4    23    22    1
     5    22    20    1
     6    20    19    1
     7    19     1    1
     8     1     2    2
     9     1     3   am
    10     3     4    1
    11     4     5    1
    12     5     6    1
    13     6     7   ar
    14     7     8   ar
    15     8     9   ar
    16     9    10   ar
    17    10    11   ar
    18    11    12    1
    19    12    13    1
    20    13    14    1
    21    14    15    1
    22    15    16    1
    23    16    17    1
    24    17    18    1
    25    12     3    1
    26    18    13    1
    27    11     6   ar
    28    24    25    1
    29    20    21    1
@<TRIPOS>MOLECULE
*****
 27 29 0 0 0
SMALL
GASTEIGER

@<TRIPOS>ATOM
      1 C           6.0443   -3.6497   23.6032 C.2     1  UNL1        0.2420
      2 O           6.2747   -4.4050   22.3279 O.2     1  UNL1       -0.2734
      3 N           5.0094   -2.5651   23.6561 N.am    1  UNL1       -0.2760
      4 C           4.7790   -1.8098   24.9314 C.3     1  UNL1        0.0983
      5 C           3.7441   -0.7253   24.9843 C.3     1  UNL1        0.0476
      6 C           2.9395   -0.3961   23.7619 C.ar    1  UNL1       -0.0229
      7 C           1.9046    0.6884   23.8148 C.ar    1  UNL1       -0.0045
      8 C           1.1001    1.0175   22.5924 C.ar    1  UNL1       -0.0003
      9 C           1.3304    0.2622   21.3171 C.ar    1  UNL1       -0.0003
     10 C           2.3653   -0.8223   21.2642 C.ar    1  UNL1       -0.0030
     11 C           3.1698   -1.1514   22.4866 C.ar    1  UNL1       -0.0082
     12 C           4.2048   -2.2360   22.4337 C.3     1  UNL1        0.0975
     13 C           4.4352   -2.9913   21.1584 C.3     1  UNL1        0.0224
     14 C           5.4013   -2.4647   20.1388 C.3     1  UNL1        0.0020
     15 C           5.6316   -3.2200   18.8635 C.3     1  UNL1        0.0001
     16 C           4.8958   -4.5019   18.6077 C.3     1  UNL1        0.0000
     17 C           3.9298   -5.0285   19.6272 C.3     1  UNL1        0.0001
     18 C           3.6994   -4.2732   20.9026 C.3     1  UNL1        0.0020
     19 C           6.8489   -3.9788   24.8256 C.3     1  UNL1        0.1552
     20 N           6.3953   -5.0689   25.7508 N.3     1  UNL1       -0.2878
     21 H           5.8756   -4.6184   26.5041 H       1  UNL1        0.1238
     22 C           7.4039   -5.9702   26.3993 C.3     1  UNL1        0.0985
     23 C           7.5291   -7.3976   25.9555 C.3     1  UNL1        0.1262
     24 O           6.5828   -8.4336   26.4858 O.3     1  UNL1       -0.3830
     25 H           5.9576   -8.0167   27.0992 H       1  UNL1        0.2104
     26 C           8.5970   -7.2194   23.5938 C.3     1  UNL1        0.0026
     27 C           8.6006   -7.7889   24.9815 C.3     1  UNL1        0.0307
@<TRIPOS>BOND
     1    26    27    1
     2    27    23    1
     3    23    24    1
     4    23    22    1
     5    22    20    1
     6    20    19    1
     7    19     1    1
     8     1     2    2
     9     1     3   am
    10     3     4    1
    11     4     5    1
    12     5     6    1
    13     6     7   ar
    14     7     8   ar
    15     8     9   ar
    16     9    10   ar
    17    10    11   ar
    18    11    12    1
    19    12    13    1
    20    13    14    1
    21    14    15    1
    22    15    16    1
    23    16    17    1
    24    17    18    1
    25    12     3    1
    26    18    13    1
    27    11     6   ar
    28    24    25    1
    29    20    21    1
@<TRIPOS>MOLECULE
*****
 27 29 0 0 0
SMALL
GASTEIGER

@<TRIPOS>ATOM
      1 C         -16.0859   -5.5788   17.5946 C.2     1  UNL1        0.2420
      2 O         -16.4899   -4.1482   17.7953 O.2     1  UNL1       -0.2734
      3 N         -14.6654   -5.9975   17.8332 N.am    1  UNL1       -0.2760
      4 C         -14.2614   -7.4281   17.6325 C.3     1  UNL1        0.0983
      5 C         -12.8409   -7.8468   17.8711 C.3     1  UNL1        0.0476
      6 C         -11.8244   -6.8349   18.3103 C.ar    1  UNL1       -0.0229
      7 C         -10.4039   -7.2536   18.5488 C.ar    1  UNL1       -0.0045
      8 C          -9.3875   -6.2418   18.9880 C.ar    1  UNL1       -0.0003
      9 C          -9.7915   -4.8112   19.1886 C.ar    1  UNL1       -0.0003
     10 C         -11.2119   -4.3925   18.9501 C.ar    1  UNL1       -0.0030
     11 C         -12.2284   -5.4043   18.5109 C.ar    1  UNL1       -0.0082
     12 C         -13.6489   -4.9856   18.2724 C.3     1  UNL1        0.0975
     13 C         -14.0529   -3.5551   18.4730 C.3     1  UNL1        0.0224
     14 C         -14.5793   -3.1039   19.8033 C.3     1  UNL1        0.0020
     15 C         -14.9833   -1.6733   20.0039 C.3     1  UNL1        0.0001
     16 C         -14.8609   -0.6939   18.8743 C.3     1  UNL1        0.0000
     17 C         -14.3345   -1.1451   17.5442 C.3     1  UNL1        0.0001
     18 C         -13.9305   -2.5757   17.3435 C.3     1  UNL1        0.0020
     19 C         -17.1024   -6.5906   17.1555 C.3     1  UNL1        0.1552
     20 N         -18.0950   -7.1328   18.1406 N.3     1  UNL1       -0.2878
     21 H         -18.7188   -6.3633   18.3839 H       1  UNL1        0.1238
     22 C         -17.6204   -7.7302   19.4321 C.3     1  UNL1        0.0985
     23 C         -16.9154   -9.0542   19.4317 C.3     1  UNL1        0.1262
     24 O         -15.9686   -9.4001   20.5425 O.3     1  UNL1       -0.3830
     25 H         -15.9275   -8.6643   21.1732 H       1  UNL1        0.2104
     26 C         -18.5528  -10.4890   18.0139 C.3     1  UNL1        0.0026
     27 C         -17.1572  -10.0322   18.3205 C.3     1  UNL1        0.0307
@<TRIPOS>BOND
     1    26    27    1
     2    27    23    1
     3    23    24    1
     4    23    22    1
     5    22    20    1
     6    20    19    1
     7    19     1    1
     8     1     2    2
     9     1     3   am
    10     3     4    1
    11     4     5    1
    12     5     6    1
    13     6     7   ar
    14     7     8   ar
    15     8     9   ar
    16     9    10   ar
    17    10    11   ar
    18    11    12    1
    19    12    13    1
    20    13    14    1
    21    14    15    1
    22    15    16    1
    23    16    17    1
    24    17    18    1
    25    12     3    1
    26    18    13    1
    27    11     6   ar
    28    24    25    1
    29    20    21    1
@<TRIPOS>MOLECULE
*****
 27 29 0 0 0
SMALL
GASTEIGER

@<TRIPOS>ATOM
      1 C           5.7286   -3.3269   23.4558 C.2     1  UNL1        0.2420
      2 O           6.0545   -4.1601   22.2518 O.2     1  UNL1       -0.2734
      3 N           4.6546   -2.2827   23.3768 N.am    1  UNL1       -0.2760
      4 C           4.3287   -1.4495   24.5808 C.3     1  UNL1        0.0983
      5 C           3.2548   -0.4053   24.5020 C.3     1  UNL1        0.0476
      6 C           2.5066   -0.1943   23.2190 C.ar    1  UNL1       -0.0229
      7 C           1.4326    0.8498   23.1402 C.ar    1  UNL1       -0.0045
      8 C           0.6845    1.0608   21.8573 C.ar    1  UNL1       -0.0003
      9 C           1.0104    0.2276   20.6533 C.ar    1  UNL1       -0.0003
     10 C           2.0844   -0.8166   20.7322 C.ar    1  UNL1       -0.0030
     11 C           2.8325   -1.0275   22.0150 C.ar    1  UNL1       -0.0082
     12 C           3.9065   -2.0717   22.0940 C.3     1  UNL1        0.0975
     13 C           4.2324   -2.9049   20.8900 C.3     1  UNL1        0.0224
     14 C           5.2160   -2.4033   19.8746 C.3     1  UNL1        0.0020
     15 C           5.5419   -3.2365   18.6707 C.3     1  UNL1        0.0001
     16 C           4.8841   -4.5713   18.4820 C.3     1  UNL1        0.0000
     17 C           3.9005   -5.0730   19.4973 C.3     1  UNL1        0.0001
     18 C           3.5747   -4.2397   20.7013 C.3     1  UNL1        0.0020
     19 C           6.4767   -3.5379   24.7386 C.3     1  UNL1        0.1552
     20 N           6.5835   -4.9135   25.3271 N.3     1  UNL1       -0.2878
     21 H           5.6352   -5.2086   25.5597 H       1  UNL1        0.1238
     22 C           7.4208   -5.1431   26.5503 C.3     1  UNL1        0.0985
     23 C           6.7619   -5.4203   27.8690 C.3     1  UNL1        0.1262
     24 O           5.3363   -5.8850   27.9122 O.3     1  UNL1       -0.3830
     25 H           4.9911   -5.9536   27.0083 H       1  UNL1        0.2104
     26 C           6.9516   -5.7117   30.4437 C.3     1  UNL1        0.0026
     27 C           7.5285   -5.2327   29.1445 C.3     1  UNL1        0.0307
@<TRIPOS>BOND
     1    26    27    1
     2    27    23    1
     3    23    24    1
     4    23    22    1
     5    22    20    1
     6    20    19    1
     7    19     1    1
     8     1     2    2
     9     1     3   am
    10     3     4    1
    11     4     5    1
    12     5     6    1
    13     6     7   ar
    14     7     8   ar
    15     8     9   ar
    16     9    10   ar
    17    10    11   ar
    18    11    12    1
    19    12    13    1
    20    13    14    1
    21    14    15    1
    22    15    16    1
    23    16    17    1
    24    17    18    1
    25    12     3    1
    26    18    13    1
    27    11     6   ar
    28    24    25    1
    29    20    21    1
@<TRIPOS>MOLECULE
*****
 27 29 0 0 0
SMALL
GASTEIGER

@<TRIPOS>ATOM
      1 C           2.4382    0.9025   23.8624 C.2     1  UNL1        0.2420
      2 O           1.6774    1.8872   23.0249 O.2     1  UNL1       -0.2734
      3 N           3.0352   -0.3186   23.2277 N.am    1  UNL1       -0.2760
      4 C           3.7960   -1.3033   24.0653 C.3     1  UNL1        0.0983
      5 C           4.3930   -2.5243   23.4307 C.3     1  UNL1        0.0476
      6 C           4.2292   -2.7606   21.9584 C.ar    1  UNL1       -0.0229
      7 C           4.8262   -3.9815   21.3238 C.ar    1  UNL1       -0.0045
      8 C           4.6624   -4.2178   19.8517 C.ar    1  UNL1       -0.0003
      9 C           3.9016   -3.2330   19.0141 C.ar    1  UNL1       -0.0003
     10 C           3.3046   -2.0121   19.6487 C.ar    1  UNL1       -0.0030
     11 C           3.4684   -1.7758   21.1209 C.ar    1  UNL1       -0.0082
     12 C           2.8714   -0.5548   21.7556 C.3     1  UNL1        0.0975
     13 C           2.1106    0.4299   20.9180 C.3     1  UNL1        0.0224
     14 C           0.6253    0.2907   20.7603 C.3     1  UNL1        0.0020
     15 C          -0.1355    1.2754   19.9227 C.3     1  UNL1        0.0001
     16 C           0.5890    2.3994   19.2429 C.3     1  UNL1        0.0000
     17 C           2.0741    2.5385   19.4007 C.3     1  UNL1        0.0001
     18 C           2.8349    1.5538   20.2382 C.3     1  UNL1        0.0020
     19 C           2.6020    1.1387   25.3346 C.3     1  UNL1        0.1552
     20 N           1.5989    0.5802   26.2999 N.3     1  UNL1       -0.2878
     21 H           0.7777    1.1834   26.2531 H       1  UNL1        0.1238
     22 C           1.9517    0.4409   27.7513 C.3     1  UNL1        0.0985
     23 C           0.8917    0.0802   28.7494 C.3     1  UNL1        0.1262
     24 O           1.2659   -0.6270   30.0182 O.3     1  UNL1       -0.3830
     25 H           2.2244   -0.7745   30.0356 H       1  UNL1        0.2104
     26 C          -1.6402   -0.3778   29.1094 C.3     1  UNL1        0.0026
     27 C          -0.5424    0.4267   28.4788 C.3     1  UNL1        0.0307
@<TRIPOS>BOND
     1    26    27    1
     2    27    23    1
     3    23    24    1
     4    23    22    1
     5    22    20    1
     6    20    19    1
     7    19     1    1
     8     1     2    2
     9     1     3   am
    10     3     4    1
    11     4     5    1
    12     5     6    1
    13     6     7   ar
    14     7     8   ar
    15     8     9   ar
    16     9    10   ar
    17    10    11   ar
    18    11    12    1
    19    12    13    1
    20    13    14    1
    21    14    15    1
    22    15    16    1
    23    16    17    1
    24    17    18    1
    25    12     3    1
    26    18    13    1
    27    11     6   ar
    28    24    25    1
    29    20    21    1
