@<TRIPOS>MOLECULE
*****
 26 29 0 0 0
SMALL
GASTEIGER

@<TRIPOS>ATOM
      1 O          -8.5088  -20.0611   22.8504 O.2     1  UNL1       -0.2696
      2 C          -7.7767  -19.2475   21.8248 C.2     1  UNL1        0.2541
      3 N          -8.4367  -18.0509   21.2062 N.am    1  UNL1       -0.2791
      4 H          -7.9562  -17.5168   20.5330 H       1  UNL1        0.1552
      5 C          -6.3847  -19.6303   21.4178 C.ar    1  UNL1        0.1102
      6 C          -6.0157  -20.7205   20.4559 C.ar    1  UNL1        0.1281
      7 N          -4.5202  -20.7541   20.3448 N.ar    1  UNL1       -0.1619
      8 N          -3.9649  -19.6847   21.2381 N.ar    1  UNL1       -0.2105
      9 C          -2.5589  -19.2536   21.5334 C.ar    1  UNL1        0.1037
     10 C          -2.3052  -18.1280   22.4918 C.ar    1  UNL1        0.0414
     11 C          -3.4575  -17.4334   23.1549 C.ar    1  UNL1        0.1022
     12 N          -4.8635  -17.8645   22.8596 N.ar    1  UNL1       -0.2248
     13 C          -5.1172  -18.9901   21.9013 C.ar    1  UNL1        0.1697
     14 C          -9.8288  -17.6680   21.6132 C.ar    1  UNL1        0.0684
     15 C         -11.0049  -18.1784   20.8346 C.ar    1  UNL1        0.0178
     16 C         -12.3970  -17.7955   21.2417 C.ar    1  UNL1        0.0220
     17 C         -12.6127  -16.9023   22.4273 C.ar    1  UNL1        0.0989
     18 N         -11.4366  -16.3920   23.2058 N.ar    1  UNL1       -0.2426
     19 C         -10.0445  -16.7749   22.7988 C.ar    1  UNL1        0.0947
     20 C          -8.8683  -16.2645   23.5773 C.ar    1  UNL1        0.0197
     21 C          -7.7362  -15.5846   22.8661 C.ar    1  UNL1        0.0016
     22 C          -6.5600  -15.0742   23.6447 C.ar    1  UNL1        0.0009
     23 C          -6.5160  -15.2439   25.1344 C.ar    1  UNL1        0.0114
     24 C          -7.6482  -15.9238   25.8456 C.ar    1  UNL1        0.0577
     25 CL         -7.6042  -16.0935   27.3354 Cl      1  UNL1       -0.0822
     26 C          -8.8243  -16.4342   25.0671 C.ar    1  UNL1        0.0129
@<TRIPOS>BOND
     1     1     2    2
     2     2     3   am
     3     3    14    1
     4    14    15   ar
     5    15    16   ar
     6    16    17   ar
     7    17    18   ar
     8    18    19   ar
     9    19    20    1
    10    20    21   ar
    11    21    22   ar
    12    22    23   ar
    13    23    24   ar
    14    24    25    1
    15    24    26   ar
    16     2     5    1
    17     5     6   ar
    18     6     7   ar
    19     7     8   ar
    20     8     9   ar
    21     9    10   ar
    22    10    11   ar
    23    11    12   ar
    24    12    13   ar
    25    19    14   ar
    26    26    20   ar
    27    13     5   ar
    28    13     8   ar
    29     3     4    1
@<TRIPOS>MOLECULE
*****
 26 29 0 0 0
SMALL
GASTEIGER

@<TRIPOS>ATOM
      1 O          -7.6020  -17.7987   20.8601 O.2     1  UNL1       -0.2696
      2 C          -7.6175  -18.8062   21.9711 C.2     1  UNL1        0.2541
      3 N          -6.3487  -19.4972   22.3747 N.am    1  UNL1       -0.2791
      4 H          -6.3588  -20.1585   23.1040 H       1  UNL1        0.1552
      5 C          -8.9017  -19.1228   22.6787 C.ar    1  UNL1        0.1102
      6 C          -9.1611  -20.3235   23.5396 C.ar    1  UNL1        0.1281
      7 N         -10.5717  -20.2370   24.0425 N.ar    1  UNL1       -0.1619
      8 N         -11.1839  -18.9830   23.4925 N.ar    1  UNL1       -0.2105
      9 C         -12.5479  -18.3792   23.6502 C.ar    1  UNL1        0.1037
     10 C         -12.8798  -17.0868   22.9650 C.ar    1  UNL1        0.0414
     11 C         -11.8476  -16.3982   22.1221 C.ar    1  UNL1        0.1022
     12 N         -10.4836  -17.0020   21.9644 N.ar    1  UNL1       -0.2248
     13 C         -10.1518  -18.2944   22.6496 C.ar    1  UNL1        0.1697
     14 C          -5.0645  -19.1806   21.6672 C.ar    1  UNL1        0.0684
     15 C          -4.6809  -19.9416   20.4328 C.ar    1  UNL1        0.0178
     16 C          -3.3967  -19.6250   19.7252 C.ar    1  UNL1        0.0220
     17 C          -2.4962  -18.5473   20.2521 C.ar    1  UNL1        0.0989
     18 N          -2.8798  -17.7863   21.4865 N.ar    1  UNL1       -0.2426
     19 C          -4.1639  -18.1029   22.1940 C.ar    1  UNL1        0.0947
     20 C          -4.5475  -17.3419   23.4284 C.ar    1  UNL1        0.0197
     21 C          -3.7814  -17.5436   24.7021 C.ar    1  UNL1        0.0016
     22 C          -4.1650  -16.7825   25.9365 C.ar    1  UNL1        0.0009
     23 C          -5.3147  -15.8198   25.8972 C.ar    1  UNL1        0.0114
     24 C          -6.0807  -15.6182   24.6234 C.ar    1  UNL1        0.0577
     25 CL         -7.2304  -14.6555   24.5840 Cl      1  UNL1       -0.0822
     26 C          -5.6972  -16.3792   23.3890 C.ar    1  UNL1        0.0129
@<TRIPOS>BOND
     1     1     2    2
     2     2     3   am
     3     3    14    1
     4    14    15   ar
     5    15    16   ar
     6    16    17   ar
     7    17    18   ar
     8    18    19   ar
     9    19    20    1
    10    20    21   ar
    11    21    22   ar
    12    22    23   ar
    13    23    24   ar
    14    24    25    1
    15    24    26   ar
    16     2     5    1
    17     5     6   ar
    18     6     7   ar
    19     7     8   ar
    20     8     9   ar
    21     9    10   ar
    22    10    11   ar
    23    11    12   ar
    24    12    13   ar
    25    19    14   ar
    26    26    20   ar
    27    13     5   ar
    28    13     8   ar
    29     3     4    1
@<TRIPOS>MOLECULE
*****
 26 29 0 0 0
SMALL
GASTEIGER

@<TRIPOS>ATOM
      1 O          -8.1124  -15.9287   21.3887 O.2     1  UNL1       -0.2696
      2 C          -7.4232  -16.7695   22.4221 C.2     1  UNL1        0.2541
      3 N          -7.3576  -18.2588   22.2551 N.am    1  UNL1       -0.2791
      4 H          -6.9053  -18.8107   22.9333 H       1  UNL1        0.1552
      5 C          -6.7998  -16.1212   23.6225 C.ar    1  UNL1        0.1102
      6 C          -5.5259  -15.3294   23.6350 C.ar    1  UNL1        0.1281
      7 N          -5.2796  -14.8697   25.0414 N.ar    1  UNL1       -0.1619
      8 N          -6.4013  -15.3775   25.8982 N.ar    1  UNL1       -0.2105
      9 C          -6.6885  -15.2355   27.3635 C.ar    1  UNL1        0.1037
     10 C          -7.9153  -15.8670   27.9519 C.ar    1  UNL1        0.0414
     11 C          -8.8548  -16.6405   27.0750 C.ar    1  UNL1        0.1022
     12 N          -8.5676  -16.7825   25.6096 N.ar    1  UNL1       -0.2248
     13 C          -7.3408  -16.1510   25.0212 C.ar    1  UNL1        0.1697
     14 C          -7.9810  -18.9071   21.0546 C.ar    1  UNL1        0.0684
     15 C          -7.1858  -19.0720   19.7935 C.ar    1  UNL1        0.0178
     16 C          -7.8093  -19.7203   18.5930 C.ar    1  UNL1        0.0220
     17 C          -9.2279  -20.2037   18.6538 C.ar    1  UNL1        0.0989
     18 N         -10.0231  -20.0388   19.9150 N.ar    1  UNL1       -0.2426
     19 C          -9.3996  -19.3905   21.1154 C.ar    1  UNL1        0.0947
     20 C         -10.1948  -19.2256   22.3765 C.ar    1  UNL1        0.0197
     21 C          -9.7123  -19.8463   23.6540 C.ar    1  UNL1        0.0016
     22 C         -10.5075  -19.6814   24.9151 C.ar    1  UNL1        0.0009
     23 C         -11.7852  -18.8959   24.8988 C.ar    1  UNL1        0.0114
     24 C         -12.2678  -18.2753   23.6214 C.ar    1  UNL1        0.0577
     25 CL        -13.5456  -17.4898   23.6050 Cl      1  UNL1       -0.0822
     26 C         -11.4726  -18.4401   22.3602 C.ar    1  UNL1        0.0129
@<TRIPOS>BOND
     1     1     2    2
     2     2     3   am
     3     3    14    1
     4    14    15   ar
     5    15    16   ar
     6    16    17   ar
     7    17    18   ar
     8    18    19   ar
     9    19    20    1
    10    20    21   ar
    11    21    22   ar
    12    22    23   ar
    13    23    24   ar
    14    24    25    1
    15    24    26   ar
    16     2     5    1
    17     5     6   ar
    18     6     7   ar
    19     7     8   ar
    20     8     9   ar
    21     9    10   ar
    22    10    11   ar
    23    11    12   ar
    24    12    13   ar
    25    19    14   ar
    26    26    20   ar
    27    13     5   ar
    28    13     8   ar
    29     3     4    1
@<TRIPOS>MOLECULE
*****
 26 29 0 0 0
SMALL
GASTEIGER

@<TRIPOS>ATOM
      1 O          -7.8570  -15.7966   21.3789 O.2     1  UNL1       -0.2696
      2 C          -7.3763  -16.6321   22.5281 C.2     1  UNL1        0.2541
      3 N          -7.4620  -18.1280   22.4553 N.am    1  UNL1       -0.2791
      4 H          -7.1465  -18.6764   23.2095 H       1  UNL1        0.1552
      5 C          -6.8099  -15.9719   23.7501 C.ar    1  UNL1        0.1102
      6 C          -5.5744  -15.1228   23.8010 C.ar    1  UNL1        0.1281
      7 N          -5.3805  -14.6711   25.2181 N.ar    1  UNL1       -0.1619
      8 N          -6.4962  -15.2410   26.0431 N.ar    1  UNL1       -0.2105
      9 C          -6.8217  -15.1317   27.5032 C.ar    1  UNL1        0.1037
     10 C          -8.0307  -15.8264   28.0560 C.ar    1  UNL1        0.0414
     11 C          -8.9141  -16.6304   27.1487 C.ar    1  UNL1        0.1022
     12 N          -8.5886  -16.7397   25.6886 N.ar    1  UNL1       -0.2248
     13 C          -7.3796  -16.0450   25.1358 C.ar    1  UNL1        0.1697
     14 C          -8.0284  -18.7881   21.2332 C.ar    1  UNL1        0.0684
     15 C          -9.5111  -18.8002   21.0064 C.ar    1  UNL1        0.0178
     16 C         -10.0775  -19.4604   19.7843 C.ar    1  UNL1        0.0220
     17 C          -9.1611  -20.1085   18.7892 C.ar    1  UNL1        0.0989
     18 N          -7.6785  -20.0964   19.0161 N.ar    1  UNL1       -0.2426
     19 C          -7.1120  -19.4362   20.2381 C.ar    1  UNL1        0.0947
     20 C          -5.6294  -19.4241   20.4650 C.ar    1  UNL1        0.0197
     21 C          -5.0620  -19.9629   21.7447 C.ar    1  UNL1        0.0016
     22 C          -3.5793  -19.9508   21.9716 C.ar    1  UNL1        0.0009
     23 C          -2.6640  -19.3999   20.9187 C.ar    1  UNL1        0.0114
     24 C          -3.2313  -18.8610   19.6389 C.ar    1  UNL1        0.0577
     25 CL         -2.3159  -18.3100   18.5860 Cl      1  UNL1       -0.0822
     26 C          -4.7140  -18.8731   19.4121 C.ar    1  UNL1        0.0129
@<TRIPOS>BOND
     1     1     2    2
     2     2     3   am
     3     3    14    1
     4    14    15   ar
     5    15    16   ar
     6    16    17   ar
     7    17    18   ar
     8    18    19   ar
     9    19    20    1
    10    20    21   ar
    11    21    22   ar
    12    22    23   ar
    13    23    24   ar
    14    24    25    1
    15    24    26   ar
    16     2     5    1
    17     5     6   ar
    18     6     7   ar
    19     7     8   ar
    20     8     9   ar
    21     9    10   ar
    22    10    11   ar
    23    11    12   ar
    24    12    13   ar
    25    19    14   ar
    26    26    20   ar
    27    13     5   ar
    28    13     8   ar
    29     3     4    1
@<TRIPOS>MOLECULE
*****
 26 29 0 0 0
SMALL
GASTEIGER

@<TRIPOS>ATOM
      1 O         -13.5994   -7.8511   16.5619 O.2     1  UNL1       -0.2696
      2 C         -13.9583   -8.1738   17.9820 C.2     1  UNL1        0.2541
      3 N         -13.1213   -7.6405   19.1068 N.am    1  UNL1       -0.2791
      4 H         -13.3568   -7.8523   20.0390 H       1  UNL1        0.1552
      5 C         -15.1542   -9.0298   18.2775 C.ar    1  UNL1        0.1102
      6 C         -15.2594  -10.5079   18.0453 C.ar    1  UNL1        0.1281
      7 N         -16.6250  -10.9495   18.4814 N.ar    1  UNL1       -0.1619
      8 N         -17.3637   -9.7442   18.9831 N.ar    1  UNL1       -0.2105
      9 C         -18.7467   -9.5739   19.5384 C.ar    1  UNL1        0.1037
     10 C         -19.2206   -8.2170   19.9677 C.ar    1  UNL1        0.0414
     11 C         -18.3115   -7.0305   19.8417 C.ar    1  UNL1        0.1022
     12 N         -16.9285   -7.2009   19.2864 N.ar    1  UNL1       -0.2248
     13 C         -16.4547   -8.5578   18.8571 C.ar    1  UNL1        0.1697
     14 C         -11.9254   -6.7846   18.8114 C.ar    1  UNL1        0.0684
     15 C         -10.5934   -7.4221   18.5481 C.ar    1  UNL1        0.0178
     16 C          -9.3976   -6.5661   18.2527 C.ar    1  UNL1        0.0220
     17 C          -9.5338   -5.0727   18.2204 C.ar    1  UNL1        0.0989
     18 N         -10.8659   -4.4352   18.4836 N.ar    1  UNL1       -0.2426
     19 C         -12.0617   -5.2912   18.7791 C.ar    1  UNL1        0.0947
     20 C         -13.3937   -4.6537   19.0423 C.ar    1  UNL1        0.0197
     21 C         -13.7828   -4.2798   20.4419 C.ar    1  UNL1        0.0016
     22 C         -15.1148   -3.6423   20.7051 C.ar    1  UNL1        0.0009
     23 C         -16.0578   -3.3787   19.5688 C.ar    1  UNL1        0.0114
     24 C         -15.6687   -3.7525   18.1692 C.ar    1  UNL1        0.0577
     25 CL        -16.6117   -3.4889   17.0328 Cl      1  UNL1       -0.0822
     26 C         -14.3367   -4.3900   17.9060 C.ar    1  UNL1        0.0129
@<TRIPOS>BOND
     1     1     2    2
     2     2     3   am
     3     3    14    1
     4    14    15   ar
     5    15    16   ar
     6    16    17   ar
     7    17    18   ar
     8    18    19   ar
     9    19    20    1
    10    20    21   ar
    11    21    22   ar
    12    22    23   ar
    13    23    24   ar
    14    24    25    1
    15    24    26   ar
    16     2     5    1
    17     5     6   ar
    18     6     7   ar
    19     7     8   ar
    20     8     9   ar
    21     9    10   ar
    22    10    11   ar
    23    11    12   ar
    24    12    13   ar
    25    19    14   ar
    26    26    20   ar
    27    13     5   ar
    28    13     8   ar
    29     3     4    1
@<TRIPOS>MOLECULE
*****
 26 29 0 0 0
SMALL
GASTEIGER

@<TRIPOS>ATOM
      1 O          -6.0689  -18.5778   19.4894 O.2     1  UNL1       -0.2696
      2 C          -6.9523  -18.8627   20.6676 C.2     1  UNL1        0.2541
      3 N          -6.3657  -18.9270   22.0467 N.am    1  UNL1       -0.2791
      4 H          -6.9455  -19.1140   22.8201 H       1  UNL1        0.1552
      5 C          -8.4224  -19.0833   20.4669 C.ar    1  UNL1        0.1102
      6 C          -9.0594  -19.7636   19.2915 C.ar    1  UNL1        0.1281
      7 N         -10.5442  -19.7631   19.5045 N.ar    1  UNL1       -0.1619
      8 N         -10.8248  -19.0825   20.8115 N.ar    1  UNL1       -0.2105
      9 C         -12.1050  -18.7911   21.5368 C.ar    1  UNL1        0.1037
     10 C         -12.0738  -18.0796   22.8569 C.ar    1  UNL1        0.0414
     11 C         -10.7624  -17.6595   23.4517 C.ar    1  UNL1        0.1022
     12 N          -9.4822  -17.9509   22.7264 N.ar    1  UNL1       -0.2248
     13 C          -9.5134  -18.6624   21.4063 C.ar    1  UNL1        0.1697
     14 C          -4.8956  -18.7063   22.2475 C.ar    1  UNL1        0.0684
     15 C          -3.9038  -19.6260   21.5992 C.ar    1  UNL1        0.0178
     16 C          -2.4337  -19.4054   21.7999 C.ar    1  UNL1        0.0220
     17 C          -1.9556  -18.2651   22.6490 C.ar    1  UNL1        0.0989
     18 N          -2.9475  -17.3454   23.2973 N.ar    1  UNL1       -0.2426
     19 C          -4.4176  -17.5660   23.0966 C.ar    1  UNL1        0.0947
     20 C          -5.4094  -16.6463   23.7449 C.ar    1  UNL1        0.0197
     21 C          -6.4865  -16.0044   22.9216 C.ar    1  UNL1        0.0016
     22 C          -7.4784  -15.0847   23.5700 C.ar    1  UNL1        0.0009
     23 C          -7.3931  -14.8069   25.0416 C.ar    1  UNL1        0.0114
     24 C          -6.3160  -15.4488   25.8648 C.ar    1  UNL1        0.0577
     25 CL         -6.2308  -15.1710   27.3364 Cl      1  UNL1       -0.0822
     26 C          -5.3242  -16.3685   25.2165 C.ar    1  UNL1        0.0129
@<TRIPOS>BOND
     1     1     2    2
     2     2     3   am
     3     3    14    1
     4    14    15   ar
     5    15    16   ar
     6    16    17   ar
     7    17    18   ar
     8    18    19   ar
     9    19    20    1
    10    20    21   ar
    11    21    22   ar
    12    22    23   ar
    13    23    24   ar
    14    24    25    1
    15    24    26   ar
    16     2     5    1
    17     5     6   ar
    18     6     7   ar
    19     7     8   ar
    20     8     9   ar
    21     9    10   ar
    22    10    11   ar
    23    11    12   ar
    24    12    13   ar
    25    19    14   ar
    26    26    20   ar
    27    13     5   ar
    28    13     8   ar
    29     3     4    1
@<TRIPOS>MOLECULE
*****
 26 29 0 0 0
SMALL
GASTEIGER

@<TRIPOS>ATOM
      1 O          -7.8938  -15.7627   21.3353 O.2     1  UNL1       -0.2696
      2 C          -7.5430  -16.5917   22.5351 C.2     1  UNL1        0.2541
      3 N          -7.8354  -18.0630   22.5415 N.am    1  UNL1       -0.2791
      4 H          -7.6051  -18.6072   23.3289 H       1  UNL1        0.1552
      5 C          -6.8997  -15.9497   23.7284 C.ar    1  UNL1        0.1102
      6 C          -5.6509  -15.1189   23.7165 C.ar    1  UNL1        0.1281
      7 N          -5.3718  -14.6815   25.1239 N.ar    1  UNL1       -0.1619
      8 N          -6.4481  -15.2420   26.0056 N.ar    1  UNL1       -0.2105
      9 C          -6.6902  -15.1400   27.4824 C.ar    1  UNL1        0.1037
     10 C          -7.8767  -15.8217   28.0967 C.ar    1  UNL1        0.0414
     11 C          -8.8211  -16.6055   27.2342 C.ar    1  UNL1        0.1022
     12 N          -8.5789  -16.7076   25.7574 N.ar    1  UNL1       -0.2248
     13 C          -7.3924  -16.0258   25.1431 C.ar    1  UNL1        0.1697
     14 C          -8.4786  -18.7050   21.3482 C.ar    1  UNL1        0.0684
     15 C          -9.9528  -18.5514   21.1174 C.ar    1  UNL1        0.0178
     16 C         -10.5960  -19.1934   19.9240 C.ar    1  UNL1        0.0220
     17 C          -9.7651  -19.9890   18.9615 C.ar    1  UNL1        0.0989
     18 N          -8.2909  -20.1427   19.1923 N.ar    1  UNL1       -0.2426
     19 C          -7.6477  -19.5006   20.3857 C.ar    1  UNL1        0.0947
     20 C          -6.1735  -19.6543   20.6164 C.ar    1  UNL1        0.0197
     21 C          -5.3612  -20.5361   19.7151 C.ar    1  UNL1        0.0016
     22 C          -3.8870  -20.6897   19.9459 C.ar    1  UNL1        0.0009
     23 C          -3.2252  -19.9615   21.0780 C.ar    1  UNL1        0.0114
     24 C          -4.0376  -19.0796   21.9793 C.ar    1  UNL1        0.0577
     25 CL         -3.3757  -18.3514   23.1114 Cl      1  UNL1       -0.0822
     26 C          -5.5117  -18.9260   21.7485 C.ar    1  UNL1        0.0129
@<TRIPOS>BOND
     1     1     2    2
     2     2     3   am
     3     3    14    1
     4    14    15   ar
     5    15    16   ar
     6    16    17   ar
     7    17    18   ar
     8    18    19   ar
     9    19    20    1
    10    20    21   ar
    11    21    22   ar
    12    22    23   ar
    13    23    24   ar
    14    24    25    1
    15    24    26   ar
    16     2     5    1
    17     5     6   ar
    18     6     7   ar
    19     7     8   ar
    20     8     9   ar
    21     9    10   ar
    22    10    11   ar
    23    11    12   ar
    24    12    13   ar
    25    19    14   ar
    26    26    20   ar
    27    13     5   ar
    28    13     8   ar
    29     3     4    1
@<TRIPOS>MOLECULE
*****
 26 29 0 0 0
SMALL
GASTEIGER

@<TRIPOS>ATOM
      1 O          -9.4276  -16.3110   21.2307 O.2     1  UNL1       -0.2696
      2 C          -8.7889  -17.0675   22.3575 C.2     1  UNL1        0.2541
      3 N          -8.4011  -18.5046   22.1713 N.am    1  UNL1       -0.2791
      4 H          -7.9819  -19.0011   22.9108 H       1  UNL1        0.1552
      5 C          -8.5379  -16.3870   23.6705 C.ar    1  UNL1        0.1102
      6 C          -9.5868  -15.8941   24.6228 C.ar    1  UNL1        0.1281
      7 N          -8.8911  -15.2825   25.8026 N.ar    1  UNL1       -0.1619
      8 N          -7.4122  -15.3974   25.5795 N.ar    1  UNL1       -0.2105
      9 C          -6.2362  -14.9686   26.4059 C.ar    1  UNL1        0.1037
     10 C          -4.8419  -15.2225   25.9147 C.ar    1  UNL1        0.0414
     11 C          -4.6236  -15.9052   24.5970 C.ar    1  UNL1        0.1022
     12 N          -5.7996  -16.3340   23.7705 N.ar    1  UNL1       -0.2248
     13 C          -7.1940  -16.0801   24.2618 C.ar    1  UNL1        0.1697
     14 C          -8.6521  -19.1850   20.8583 C.ar    1  UNL1        0.0684
     15 C         -10.0564  -19.3626   20.3619 C.ar    1  UNL1        0.0178
     16 C         -10.3073  -20.0431   19.0489 C.ar    1  UNL1        0.0220
     17 C          -9.1540  -20.5459   18.2323 C.ar    1  UNL1        0.0989
     18 N          -7.7497  -20.3683   18.7287 N.ar    1  UNL1       -0.2426
     19 C          -7.4987  -19.6878   20.0417 C.ar    1  UNL1        0.0947
     20 C          -6.0944  -19.5102   20.5380 C.ar    1  UNL1        0.0197
     21 C          -5.7769  -19.7349   21.9867 C.ar    1  UNL1        0.0016
     22 C          -4.3726  -19.5573   22.4831 C.ar    1  UNL1        0.0009
     23 C          -3.2858  -19.1549   21.5307 C.ar    1  UNL1        0.0114
     24 C          -3.6033  -18.9302   20.0821 C.ar    1  UNL1        0.0577
     25 CL         -2.5164  -18.5279   19.1297 Cl      1  UNL1       -0.0822
     26 C          -5.0076  -19.1078   19.5857 C.ar    1  UNL1        0.0129
@<TRIPOS>BOND
     1     1     2    2
     2     2     3   am
     3     3    14    1
     4    14    15   ar
     5    15    16   ar
     6    16    17   ar
     7    17    18   ar
     8    18    19   ar
     9    19    20    1
    10    20    21   ar
    11    21    22   ar
    12    22    23   ar
    13    23    24   ar
    14    24    25    1
    15    24    26   ar
    16     2     5    1
    17     5     6   ar
    18     6     7   ar
    19     7     8   ar
    20     8     9   ar
    21     9    10   ar
    22    10    11   ar
    23    11    12   ar
    24    12    13   ar
    25    19    14   ar
    26    26    20   ar
    27    13     5   ar
    28    13     8   ar
    29     3     4    1
@<TRIPOS>MOLECULE
*****
 26 29 0 0 0
SMALL
GASTEIGER

@<TRIPOS>ATOM
      1 O         -11.2854   -2.6866   16.6222 O.2     1  UNL1       -0.2696
      2 C         -11.8597   -2.1857   17.9142 C.2     1  UNL1        0.2541
      3 N         -11.8743   -3.0742   19.1228 N.am    1  UNL1       -0.2791
      4 H         -12.2512   -2.7455   19.9708 H       1  UNL1        0.1552
      5 C         -12.4194   -0.7966   17.9977 C.ar    1  UNL1        0.1102
      6 C         -11.7687    0.4491   17.4735 C.ar    1  UNL1        0.1281
      7 N         -12.6752    1.6063   17.7720 N.ar    1  UNL1       -0.1619
      8 N         -13.8862    1.0758   18.4806 N.ar    1  UNL1       -0.2105
      9 C         -15.1124    1.7531   19.0168 C.ar    1  UNL1        0.1037
     10 C         -16.1805    0.9454   19.6926 C.ar    1  UNL1        0.0414
     11 C         -16.0224   -0.5397   19.8321 C.ar    1  UNL1        0.1022
     12 N         -14.7962   -1.2171   19.2959 N.ar    1  UNL1       -0.2248
     13 C         -13.7281   -0.4093   18.6201 C.ar    1  UNL1        0.1697
     14 C         -11.3146   -4.4633   19.0393 C.ar    1  UNL1        0.0684
     15 C          -9.8322   -4.6804   19.1135 C.ar    1  UNL1        0.0178
     16 C          -9.2725   -6.0696   19.0300 C.ar    1  UNL1        0.0220
     17 C         -10.1952   -7.2416   18.8722 C.ar    1  UNL1        0.0989
     18 N         -11.6776   -7.0245   18.7979 N.ar    1  UNL1       -0.2426
     19 C         -12.2373   -5.6354   18.8815 C.ar    1  UNL1        0.0947
     20 C         -13.7196   -5.4183   18.8072 C.ar    1  UNL1        0.0197
     21 C         -14.4779   -4.9957   20.0305 C.ar    1  UNL1        0.0016
     22 C         -15.9603   -4.7787   19.9562 C.ar    1  UNL1        0.0009
     23 C         -16.6843   -4.9841   18.6587 C.ar    1  UNL1        0.0114
     24 C         -15.9260   -5.4067   17.4354 C.ar    1  UNL1        0.0577
     25 CL        -16.6500   -5.6122   16.1379 Cl      1  UNL1       -0.0822
     26 C         -14.4436   -5.6238   17.5097 C.ar    1  UNL1        0.0129
@<TRIPOS>BOND
     1     1     2    2
     2     2     3   am
     3     3    14    1
     4    14    15   ar
     5    15    16   ar
     6    16    17   ar
     7    17    18   ar
     8    18    19   ar
     9    19    20    1
    10    20    21   ar
    11    21    22   ar
    12    22    23   ar
    13    23    24   ar
    14    24    25    1
    15    24    26   ar
    16     2     5    1
    17     5     6   ar
    18     6     7   ar
    19     7     8   ar
    20     8     9   ar
    21     9    10   ar
    22    10    11   ar
    23    11    12   ar
    24    12    13   ar
    25    19    14   ar
    26    26    20   ar
    27    13     5   ar
    28    13     8   ar
    29     3     4    1
