@<TRIPOS>MOLECULE
*****
 28 30 0 0 0
SMALL
GASTEIGER

@<TRIPOS>ATOM
      1 N          -8.4932  -16.7640   24.6162 N.3     1  UNL1       -0.1594
      2 C          -9.8627  -17.2222   24.2107 C.3     1  UNL1        0.0955
      3 C         -10.0587  -17.9388   22.9077 C.3     1  UNL1        0.0208
      4 C          -8.8851  -18.1974   22.0100 C.3     1  UNL1        0.0209
      5 C          -7.5155  -17.7393   22.4154 C.3     1  UNL1        0.0208
      6 C          -7.3196  -17.0226   23.7185 C.3     1  UNL1        0.0955
      7 S          -8.2972  -16.0473   25.9192 S.O2    1  UNL1        0.0438
      8 O          -8.9063  -17.2077   26.6490 O.2     1  UNL1       -0.1573
      9 O          -7.6881  -14.8870   25.1894 O.2     1  UNL1       -0.1573
     10 C          -6.7216  -14.9419   27.6643 C.3     1  UNL1        0.0289
     11 C          -8.1012  -15.3306   27.2223 C.3     1  UNL1        0.1692
     12 C          -8.0914  -18.6724   20.8291 C.3     1  UNL1        0.0897
     13 N          -6.6511  -18.2786   20.6862 N.am    1  UNL1       -0.3008
     14 C          -5.5894  -19.3350   20.6032 C.2     1  UNL1        0.2467
     15 O          -5.9682  -20.7852   20.6632 O.2     1  UNL1       -0.2701
     16 H          -6.4026  -17.3268   20.6468 H       1  UNL1        0.1497
     17 C          -4.1491  -18.9412   20.4602 C.ar    1  UNL1        0.0640
     18 C          -3.5484  -18.7769   19.0956 C.ar    1  UNL1        0.0062
     19 C          -2.1081  -18.3831   18.9527 C.ar    1  UNL1        0.0116
     20 C          -1.2685  -18.1537   20.1743 C.ar    1  UNL1        0.0585
     21 CL          0.1718  -17.7599   20.0314 Cl      1  UNL1       -0.0822
     22 C          -1.8692  -18.3180   21.5389 C.ar    1  UNL1        0.0229
     23 C          -3.3095  -18.7118   21.6819 C.ar    1  UNL1        0.0629
     24 CL         -3.9103  -18.8761   23.0465 Cl      1  UNL1       -0.0821
     25 C          -9.9791  -18.8205   21.1945 C.3     1  UNL1        0.0017
     26 C         -11.1265  -17.9825   20.7139 C.3     1  UNL1        0.0001
     27 C         -12.5440  -17.5143   20.8603 C.3     1  UNL1        0.0000
     28 C         -11.6965  -16.9991   19.7350 C.3     1  UNL1        0.0000
@<TRIPOS>BOND
     1    10    11    1
     2    11     7    1
     3     7     8    2
     4     7     9    2
     5     7     1    1
     6     1     2    1
     7     2     3    1
     8     3     4    1
     9     4    12    1
    10    12    13    1
    11    13    14   am
    12    14    15    2
    13    14    17    1
    14    17    18   ar
    15    18    19   ar
    16    19    20   ar
    17    20    21    1
    18    20    22   ar
    19    22    23   ar
    20    23    24    1
    21     4    25    1
    22    25    26    1
    23    26    27    1
    24    27    28    1
    25     4     5    1
    26     5     6    1
    27     6     1    1
    28    23    17   ar
    29    28    26    1
    30    13    16    1
@<TRIPOS>MOLECULE
*****
 28 30 0 0 0
SMALL
GASTEIGER

@<TRIPOS>ATOM
      1 N          -2.9813  -18.6521   20.5893 N.3     1  UNL1       -0.1594
      2 C          -3.3456  -18.1987   21.9719 C.3     1  UNL1        0.0955
      3 C          -4.7733  -18.2568   22.4284 C.3     1  UNL1        0.0208
      4 C          -5.8366  -18.7683   21.5024 C.3     1  UNL1        0.0209
      5 C          -5.4722  -19.2217   20.1198 C.3     1  UNL1        0.0208
      6 C          -4.0446  -19.1636   19.6632 C.3     1  UNL1        0.0955
      7 S          -1.5536  -18.5939   20.1328 S.O2    1  UNL1        0.0438
      8 O          -1.0942  -18.6889   21.5576 O.2     1  UNL1       -0.1573
      9 O          -2.0131  -18.4990   18.7081 O.2     1  UNL1       -0.1573
     10 C           0.7424  -17.3795   20.0747 C.3     1  UNL1        0.0289
     11 C          -0.1260  -18.5358   19.6763 C.3     1  UNL1        0.1692
     12 C          -7.1897  -19.1709   20.9953 C.3     1  UNL1        0.0897
     13 N          -8.3867  -19.0742   21.8940 N.am    1  UNL1       -0.3008
     14 C          -9.6919  -18.5703   21.3531 C.2     1  UNL1        0.2467
     15 O          -9.8000  -18.1631   19.9135 O.2     1  UNL1       -0.2701
     16 H          -8.3157  -19.3415   22.8389 H       1  UNL1        0.1497
     17 C         -10.8890  -18.4736   22.2518 C.ar    1  UNL1        0.0640
     18 C         -10.8849  -19.1644   23.5833 C.ar    1  UNL1        0.0062
     19 C         -12.0819  -19.0676   24.4820 C.ar    1  UNL1        0.0116
     20 C         -13.2830  -18.2802   24.0494 C.ar    1  UNL1        0.0585
     21 CL        -14.4801  -18.1834   24.9480 Cl      1  UNL1       -0.0822
     22 C         -13.2871  -17.5893   22.7179 C.ar    1  UNL1        0.0229
     23 C         -12.0900  -17.6860   21.8191 C.ar    1  UNL1        0.0629
     24 CL        -12.0940  -16.9953   20.4876 Cl      1  UNL1       -0.0821
     25 C          -6.6709  -18.4547   22.7089 C.3     1  UNL1        0.0017
     26 C          -6.8503  -17.0315   23.1474 C.3     1  UNL1        0.0001
     27 C          -7.6249  -15.7477   23.1071 C.3     1  UNL1        0.0000
     28 C          -6.3864  -15.8503   23.9471 C.3     1  UNL1        0.0000
@<TRIPOS>BOND
     1    10    11    1
     2    11     7    1
     3     7     8    2
     4     7     9    2
     5     7     1    1
     6     1     2    1
     7     2     3    1
     8     3     4    1
     9     4    12    1
    10    12    13    1
    11    13    14   am
    12    14    15    2
    13    14    17    1
    14    17    18   ar
    15    18    19   ar
    16    19    20   ar
    17    20    21    1
    18    20    22   ar
    19    22    23   ar
    20    23    24    1
    21     4    25    1
    22    25    26    1
    23    26    27    1
    24    27    28    1
    25     4     5    1
    26     5     6    1
    27     6     1    1
    28    23    17   ar
    29    28    26    1
    30    13    16    1
@<TRIPOS>MOLECULE
*****
 28 30 0 0 0
SMALL
GASTEIGER

@<TRIPOS>ATOM
      1 N          -4.5918  -17.9971   22.6082 N.3     1  UNL1       -0.1594
      2 C          -4.0779  -17.4454   23.9049 C.3     1  UNL1        0.0955
      3 C          -4.8478  -16.3770   24.6230 C.3     1  UNL1        0.0208
      4 C          -6.1316  -15.8603   24.0444 C.3     1  UNL1        0.0209
      5 C          -6.6455  -16.4120   22.7477 C.3     1  UNL1        0.0208
      6 C          -5.8755  -17.4804   22.0296 C.3     1  UNL1        0.0955
      7 S          -3.8218  -19.0656   21.8901 S.O2    1  UNL1        0.0438
      8 O          -2.5557  -18.5884   22.5376 O.2     1  UNL1       -0.1573
      9 O          -5.0879  -19.5428   21.2426 O.2     1  UNL1       -0.1573
     10 C          -3.6546  -20.8225   19.9835 C.3     1  UNL1        0.0289
     11 C          -3.0519  -20.1340   21.1720 C.3     1  UNL1        0.1692
     12 C          -7.3886  -15.0548   23.8985 C.3     1  UNL1        0.0897
     13 N          -8.7204  -15.6856   24.1787 N.am    1  UNL1       -0.3008
     14 C          -9.6008  -16.1147   23.0425 C.2     1  UNL1        0.2467
     15 O          -9.1495  -15.9130   21.6264 O.2     1  UNL1       -0.2701
     16 H          -9.0166  -15.8180   25.1082 H       1  UNL1        0.1497
     17 C         -10.9326  -16.7456   23.3227 C.ar    1  UNL1        0.0640
     18 C         -12.1809  -16.1524   22.7397 C.ar    1  UNL1        0.0062
     19 C         -13.5126  -16.7833   23.0199 C.ar    1  UNL1        0.0116
     20 C         -13.5961  -18.0072   23.8830 C.ar    1  UNL1        0.0585
     21 CL        -14.9277  -18.6381   24.1632 Cl      1  UNL1       -0.0822
     22 C         -12.3477  -18.6004   24.4660 C.ar    1  UNL1        0.0229
     23 C         -11.0159  -17.9696   24.1859 C.ar    1  UNL1        0.0629
     24 CL         -9.7676  -18.5626   24.7688 Cl      1  UNL1       -0.0821
     25 C          -6.0543  -15.0288   25.2905 C.3     1  UNL1        0.0017
     26 C          -6.8257  -15.4339   26.5115 C.3     1  UNL1        0.0001
     27 C          -7.1015  -16.4228   27.6050 C.3     1  UNL1        0.0000
     28 C          -7.8861  -15.1464   27.5328 C.3     1  UNL1        0.0000
@<TRIPOS>BOND
     1    10    11    1
     2    11     7    1
     3     7     8    2
     4     7     9    2
     5     7     1    1
     6     1     2    1
     7     2     3    1
     8     3     4    1
     9     4    12    1
    10    12    13    1
    11    13    14   am
    12    14    15    2
    13    14    17    1
    14    17    18   ar
    15    18    19   ar
    16    19    20   ar
    17    20    21    1
    18    20    22   ar
    19    22    23   ar
    20    23    24    1
    21     4    25    1
    22    25    26    1
    23    26    27    1
    24    27    28    1
    25     4     5    1
    26     5     6    1
    27     6     1    1
    28    23    17   ar
    29    28    26    1
    30    13    16    1
@<TRIPOS>MOLECULE
*****
 28 30 0 0 0
SMALL
GASTEIGER

@<TRIPOS>ATOM
      1 N           6.4967   -4.1788   22.3155 N.3     1  UNL1       -0.1594
      2 C           5.0012   -4.0782   22.3711 C.3     1  UNL1        0.0955
      3 C           4.2383   -3.5781   21.1804 C.3     1  UNL1        0.0208
      4 C           4.9709   -3.1787   19.9339 C.3     1  UNL1        0.0209
      5 C           6.4664   -3.2793   19.8783 C.3     1  UNL1        0.0208
      6 C           7.2294   -3.7793   21.0690 C.3     1  UNL1        0.0955
      7 S           7.2597   -4.6788   23.5062 S.O2    1  UNL1        0.0438
      8 O           8.1197   -5.5139   22.6046 O.2     1  UNL1       -0.1573
      9 O           6.3997   -3.8437   24.4079 O.2     1  UNL1       -0.1573
     10 C           7.5781   -6.4252   25.4032 C.3     1  UNL1        0.0289
     11 C           8.0226   -5.1788   24.6970 C.3     1  UNL1        0.1692
     12 C           5.2134   -2.6847   18.5385 C.3     1  UNL1        0.0897
     13 N           5.8080   -1.3256   18.3167 N.am    1  UNL1       -0.3008
     14 C           5.2445   -0.4240   17.2586 C.2     1  UNL1        0.2467
     15 O           4.0865   -0.8817   16.4222 O.2     1  UNL1       -0.2701
     16 H           6.5680   -1.0253   18.8657 H       1  UNL1        0.1497
     17 C           5.8391    0.9351   17.0368 C.ar    1  UNL1        0.0640
     18 C           7.1025    1.0804   16.2413 C.ar    1  UNL1        0.0062
     19 C           7.6970    2.4395   16.0196 C.ar    1  UNL1        0.0116
     20 C           7.0282    3.6534   16.5934 C.ar    1  UNL1        0.0585
     21 CL          7.6227    5.0126   16.3717 Cl      1  UNL1       -0.0822
     22 C           5.7648    3.5082   17.3889 C.ar    1  UNL1        0.0229
     23 C           5.1702    2.1490   17.6106 C.ar    1  UNL1        0.0629
     24 CL          3.9069    2.0037   18.4061 Cl      1  UNL1       -0.0821
     25 C           3.5595   -2.9066   19.5050 C.3     1  UNL1        0.0017
     26 C           2.8449   -1.6872   20.0073 C.3     1  UNL1        0.0001
     27 C           1.6161   -0.8281   20.0528 C.3     1  UNL1        0.0000
     28 C           2.8358   -0.4342   20.8319 C.3     1  UNL1        0.0000
@<TRIPOS>BOND
     1    10    11    1
     2    11     7    1
     3     7     8    2
     4     7     9    2
     5     7     1    1
     6     1     2    1
     7     2     3    1
     8     3     4    1
     9     4    12    1
    10    12    13    1
    11    13    14   am
    12    14    15    2
    13    14    17    1
    14    17    18   ar
    15    18    19   ar
    16    19    20   ar
    17    20    21    1
    18    20    22   ar
    19    22    23   ar
    20    23    24    1
    21     4    25    1
    22    25    26    1
    23    26    27    1
    24    27    28    1
    25     4     5    1
    26     5     6    1
    27     6     1    1
    28    23    17   ar
    29    28    26    1
    30    13    16    1
@<TRIPOS>MOLECULE
*****
 28 30 0 0 0
SMALL
GASTEIGER

@<TRIPOS>ATOM
      1 N           3.3145    1.5868   36.9720 N.3     1  UNL1       -0.1594
      2 C           4.2728    0.4418   37.1153 C.3     1  UNL1        0.0955
      3 C           5.0469   -0.0419   35.9250 C.3     1  UNL1        0.0208
      4 C           4.8627    0.6194   34.5914 C.3     1  UNL1        0.0209
      5 C           3.9044    1.7644   34.4481 C.3     1  UNL1        0.0208
      6 C           3.1304    2.2481   35.6384 C.3     1  UNL1        0.0955
      7 S           2.5405    2.0705   38.1623 S.O2    1  UNL1        0.0438
      8 O           1.6582    2.8807   37.2594 O.2     1  UNL1       -0.1573
      9 O           3.4227    1.2603   39.0653 O.2     1  UNL1       -0.1573
     10 C           0.3371    2.1381   39.5374 C.3     1  UNL1        0.0289
     11 C           1.7664    2.5541   39.3526 C.3     1  UNL1        0.1692
     12 C           5.0317    0.9193   33.1314 C.3     1  UNL1        0.0897
     13 N           3.8266    1.1516   32.2691 N.am    1  UNL1       -0.3008
     14 C           3.7911    0.6137   30.8692 C.2     1  UNL1        0.2467
     15 O           4.9607   -0.1563   30.3318 O.2     1  UNL1       -0.2701
     16 H           3.0589    1.6570   32.6218 H       1  UNL1        0.1497
     17 C           2.5859    0.8460   30.0069 C.ar    1  UNL1        0.0640
     18 C           1.6743   -0.2962   29.6686 C.ar    1  UNL1        0.0062
     19 C           0.4691   -0.0639   28.8063 C.ar    1  UNL1        0.0116
     20 C           0.1755    1.3106   28.2823 C.ar    1  UNL1        0.0585
     21 CL         -1.0296    1.5429   27.4199 Cl      1  UNL1       -0.0822
     22 C           1.0871    2.4528   28.6205 C.ar    1  UNL1        0.0229
     23 C           2.2923    2.2205   29.4828 C.ar    1  UNL1        0.0629
     24 CL          3.2040    3.3626   29.8211 Cl      1  UNL1       -0.0821
     25 C           5.8797   -0.4215   34.2277 C.3     1  UNL1        0.0017
     26 C           5.4530   -1.6699   33.5142 C.3     1  UNL1        0.0001
     27 C           4.4120   -2.7113   33.2280 C.3     1  UNL1        0.0000
     28 C           5.7548   -2.7911   32.5644 C.3     1  UNL1        0.0000
@<TRIPOS>BOND
     1    10    11    1
     2    11     7    1
     3     7     8    2
     4     7     9    2
     5     7     1    1
     6     1     2    1
     7     2     3    1
     8     3     4    1
     9     4    12    1
    10    12    13    1
    11    13    14   am
    12    14    15    2
    13    14    17    1
    14    17    18   ar
    15    18    19   ar
    16    19    20   ar
    17    20    21    1
    18    20    22   ar
    19    22    23   ar
    20    23    24    1
    21     4    25    1
    22    25    26    1
    23    26    27    1
    24    27    28    1
    25     4     5    1
    26     5     6    1
    27     6     1    1
    28    23    17   ar
    29    28    26    1
    30    13    16    1
@<TRIPOS>MOLECULE
*****
 28 30 0 0 0
SMALL
GASTEIGER

@<TRIPOS>ATOM
      1 N           3.2046   -1.3223   18.9659 N.3     1  UNL1       -0.1594
      2 C           3.2662   -0.1615   18.0179 C.3     1  UNL1        0.0955
      3 C           2.2899    0.9694   18.1525 C.3     1  UNL1        0.0208
      4 C           1.2521    0.9394   19.2350 C.3     1  UNL1        0.0209
      5 C           1.1905   -0.2214   20.1830 C.3     1  UNL1        0.0208
      6 C           2.1668   -1.3522   20.0484 C.3     1  UNL1        0.0955
      7 S           4.1809   -2.4531   18.8313 S.O2    1  UNL1        0.0438
      8 O           3.7179   -3.0092   20.1452 O.2     1  UNL1       -0.1573
      9 O           4.6440   -1.8970   17.5174 O.2     1  UNL1       -0.1573
     10 C           4.6761   -5.0027   18.7695 C.3     1  UNL1        0.0289
     11 C           5.1572   -3.5839   18.6967 C.3     1  UNL1        0.1692
     12 C           0.0961    1.3637   20.0917 C.3     1  UNL1        0.0897
     13 N           0.1346    1.1296   21.5728 N.am    1  UNL1       -0.3008
     14 C           0.1816    2.2954   22.5154 C.2     1  UNL1        0.2467
     15 O           0.1901    3.6954   21.9769 O.2     1  UNL1       -0.2701
     16 H           0.1290    0.2107   21.9262 H       1  UNL1        0.1497
     17 C           0.2201    2.0613   23.9966 C.ar    1  UNL1        0.0640
     18 C          -0.9294    2.4989   24.8552 C.ar    1  UNL1        0.0062
     19 C          -0.8908    2.2647   26.3363 C.ar    1  UNL1        0.0116
     20 C           0.2971    1.5930   26.9588 C.ar    1  UNL1        0.0585
     21 CL          0.3356    1.3587   28.4398 Cl      1  UNL1       -0.0822
     22 C           1.4466    1.1553   26.1001 C.ar    1  UNL1        0.0229
     23 C           1.4081    1.3895   24.6190 C.ar    1  UNL1        0.0629
     24 CL          2.5575    0.9519   23.7603 Cl      1  UNL1       -0.0821
     25 C           0.9122    2.2476   18.5845 C.3     1  UNL1        0.0017
     26 C           1.8347    3.4209   18.7327 C.3     1  UNL1        0.0001
     27 C           2.7007    4.2919   19.5937 C.3     1  UNL1        0.0000
     28 C           2.5668    4.5824   18.1282 C.3     1  UNL1        0.0000
@<TRIPOS>BOND
     1    10    11    1
     2    11     7    1
     3     7     8    2
     4     7     9    2
     5     7     1    1
     6     1     2    1
     7     2     3    1
     8     3     4    1
     9     4    12    1
    10    12    13    1
    11    13    14   am
    12    14    15    2
    13    14    17    1
    14    17    18   ar
    15    18    19   ar
    16    19    20   ar
    17    20    21    1
    18    20    22   ar
    19    22    23   ar
    20    23    24    1
    21     4    25    1
    22    25    26    1
    23    26    27    1
    24    27    28    1
    25     4     5    1
    26     5     6    1
    27     6     1    1
    28    23    17   ar
    29    28    26    1
    30    13    16    1
@<TRIPOS>MOLECULE
*****
 28 30 0 0 0
SMALL
GASTEIGER

@<TRIPOS>ATOM
      1 N           3.1927   -1.2924   19.0200 N.3     1  UNL1       -0.1594
      2 C           3.2536   -0.1484   18.0518 C.3     1  UNL1        0.0955
      3 C           2.2719    0.9804   18.1618 C.3     1  UNL1        0.0208
      4 C           1.2293    0.9652   19.2401 C.3     1  UNL1        0.0209
      5 C           1.1684   -0.1788   20.2083 C.3     1  UNL1        0.0208
      6 C           2.1501   -1.3076   20.0983 C.3     1  UNL1        0.0955
      7 S           4.1744   -2.4212   18.9099 S.O2    1  UNL1        0.0438
      8 O           4.5987   -1.9207   17.5610 O.2     1  UNL1       -0.1573
      9 O           3.7502   -2.9216   20.2588 O.2     1  UNL1       -0.1573
     10 C           4.6670   -4.9670   18.7494 C.3     1  UNL1        0.0289
     11 C           5.1561   -3.5499   18.7999 C.3     1  UNL1        0.1692
     12 C           0.0677    1.3997   20.0839 C.3     1  UNL1        0.0897
     13 N           0.0979    1.1867   21.5684 N.am    1  UNL1       -0.3008
     14 C           0.1256    2.3660   22.4949 C.2     1  UNL1        0.2467
     15 O           0.1230    3.7583   21.9368 O.2     1  UNL1       -0.2701
     16 H           0.0996    0.2728   21.9346 H       1  UNL1        0.1497
     17 C           0.1558    2.1530   23.9794 C.ar    1  UNL1        0.0640
     18 C           1.3140    1.4391   24.6112 C.ar    1  UNL1        0.0062
     19 C           1.3441    1.2261   26.0957 C.ar    1  UNL1        0.0116
     20 C           0.2163    1.7270   26.9484 C.ar    1  UNL1        0.0585
     21 CL          0.2465    1.5140   28.4328 Cl      1  UNL1       -0.0822
     22 C          -0.9418    2.4409   26.3166 C.ar    1  UNL1        0.0229
     23 C          -0.9720    2.6539   24.8321 C.ar    1  UNL1        0.0629
     24 CL         -2.1301    3.3678   24.2002 Cl      1  UNL1       -0.0821
     25 C           0.8868    2.2601   18.5649 C.3     1  UNL1        0.0017
     26 C           1.7934    3.4459   18.7129 C.3     1  UNL1        0.0001
     27 C           2.4823    4.6370   18.1157 C.3     1  UNL1        0.0000
     28 C           2.6748    4.3087   19.5666 C.3     1  UNL1        0.0000
@<TRIPOS>BOND
     1    10    11    1
     2    11     7    1
     3     7     8    2
     4     7     9    2
     5     7     1    1
     6     1     2    1
     7     2     3    1
     8     3     4    1
     9     4    12    1
    10    12    13    1
    11    13    14   am
    12    14    15    2
    13    14    17    1
    14    17    18   ar
    15    18    19   ar
    16    19    20   ar
    17    20    21    1
    18    20    22   ar
    19    22    23   ar
    20    23    24    1
    21     4    25    1
    22    25    26    1
    23    26    27    1
    24    27    28    1
    25     4     5    1
    26     5     6    1
    27     6     1    1
    28    23    17   ar
    29    28    26    1
    30    13    16    1
@<TRIPOS>MOLECULE
*****
 28 30 0 0 0
SMALL
GASTEIGER

@<TRIPOS>ATOM
      1 N          -3.0378    3.7246   24.7005 N.3     1  UNL1       -0.1594
      2 C          -3.1730    3.6280   26.1912 C.3     1  UNL1        0.0955
      3 C          -2.0685    3.0239   27.0068 C.3     1  UNL1        0.0208
      4 C          -0.8289    2.5165   26.3318 C.3     1  UNL1        0.0209
      5 C          -0.6937    2.6131   24.8410 C.3     1  UNL1        0.0208
      6 C          -1.7982    3.2172   24.0254 C.3     1  UNL1        0.0955
      7 S          -4.1423    4.3287   23.8848 S.O2    1  UNL1        0.0438
      8 O          -4.7549    2.9708   23.7087 O.2     1  UNL1       -0.1573
      9 O          -3.5297    5.6865   24.0609 O.2     1  UNL1       -0.1573
     10 C          -6.4714    4.1270   22.7515 C.3     1  UNL1        0.0289
     11 C          -5.2467    4.9327   23.0691 C.3     1  UNL1        0.1692
     12 C           0.5274    1.9013   26.1528 C.3     1  UNL1        0.0897
     13 N           0.8035    1.0267   24.9659 N.am    1  UNL1       -0.3008
     14 C           2.1742    0.9995   24.3569 C.2     1  UNL1        0.2467
     15 O           3.2685    1.8469   24.9350 O.2     1  UNL1       -0.2701
     16 H           0.0852    0.4705   24.5865 H       1  UNL1        0.1497
     17 C           2.4503    0.1249   23.1700 C.ar    1  UNL1        0.0640
     18 C           1.8073    0.4282   21.8491 C.ar    1  UNL1        0.0062
     19 C           2.0835   -0.4464   20.6623 C.ar    1  UNL1        0.0116
     20 C           3.0025   -1.6243   20.7961 C.ar    1  UNL1        0.0585
     21 CL          3.2787   -2.4989   19.6093 Cl      1  UNL1       -0.0822
     22 C           3.6455   -1.9276   22.1170 C.ar    1  UNL1        0.0229
     23 C           3.3694   -1.0530   23.3039 C.ar    1  UNL1        0.0629
     24 CL          4.0123   -1.3562   24.6248 Cl      1  UNL1       -0.0821
     25 C          -0.4930    2.2062   27.7604 C.3     1  UNL1        0.0017
     26 C          -0.9751    0.9300   28.3840 C.3     1  UNL1        0.0001
     27 C          -1.8245    0.2178   29.3946 C.3     1  UNL1        0.0000
     28 C          -0.9605   -0.5683   28.4536 C.3     1  UNL1        0.0000
@<TRIPOS>BOND
     1    10    11    1
     2    11     7    1
     3     7     8    2
     4     7     9    2
     5     7     1    1
     6     1     2    1
     7     2     3    1
     8     3     4    1
     9     4    12    1
    10    12    13    1
    11    13    14   am
    12    14    15    2
    13    14    17    1
    14    17    18   ar
    15    18    19   ar
    16    19    20   ar
    17    20    21    1
    18    20    22   ar
    19    22    23   ar
    20    23    24    1
    21     4    25    1
    22    25    26    1
    23    26    27    1
    24    27    28    1
    25     4     5    1
    26     5     6    1
    27     6     1    1
    28    23    17   ar
    29    28    26    1
    30    13    16    1
@<TRIPOS>MOLECULE
*****
 28 30 0 0 0
SMALL
GASTEIGER

@<TRIPOS>ATOM
      1 N           3.2193   -1.2351   19.0482 N.3     1  UNL1       -0.1594
      2 C           3.1047   -0.1462   18.0229 C.3     1  UNL1        0.0955
      3 C           2.1822    1.0126   18.2594 C.3     1  UNL1        0.0208
      4 C           1.3742    1.0826   19.5212 C.3     1  UNL1        0.0209
      5 C           1.4888   -0.0062   20.5465 C.3     1  UNL1        0.0208
      6 C           2.4113   -1.1651   20.3100 C.3     1  UNL1        0.0955
      7 S           4.1419   -2.3939   18.8117 S.O2    1  UNL1        0.0438
      8 O           3.7100   -3.0032   20.1126 O.2     1  UNL1       -0.1573
      9 O           4.5738   -1.7846   17.5108 O.2     1  UNL1       -0.1573
     10 C           4.5831   -4.9542   18.8077 C.3     1  UNL1        0.0289
     11 C           5.0645   -3.5528   18.5752 C.3     1  UNL1        0.1692
     12 C           0.4101    1.5923   20.5512 C.3     1  UNL1        0.0897
     13 N          -1.0047    1.9060   20.1640 N.am    1  UNL1       -0.3008
     14 C          -1.6432    3.1823   20.6258 C.2     1  UNL1        0.2467
     15 O          -0.8670    4.1448   21.4749 O.2     1  UNL1       -0.2701
     16 H          -1.5142    1.2742   19.6067 H       1  UNL1        0.1497
     17 C          -3.0580    3.4960   20.2386 C.ar    1  UNL1        0.0640
     18 C          -3.4015    3.7605   18.8025 C.ar    1  UNL1        0.0062
     19 C          -4.8163    4.0742   18.4153 C.ar    1  UNL1        0.0116
     20 C          -5.8876    4.1235   19.4640 C.ar    1  UNL1        0.0585
     21 CL         -7.3024    4.4372   19.0769 Cl      1  UNL1       -0.0822
     22 C          -5.5441    3.8591   20.9001 C.ar    1  UNL1        0.0229
     23 C          -4.1293    3.5453   21.2874 C.ar    1  UNL1        0.0629
     24 CL         -3.7858    3.2809   22.7233 Cl      1  UNL1       -0.0821
     25 C           0.9248    2.3485   18.8536 C.3     1  UNL1        0.0017
     26 C           1.8338    3.5410   18.8177 C.3     1  UNL1        0.0001
     27 C           2.4970    4.6463   18.0506 C.3     1  UNL1        0.0000
     28 C           2.7454    4.5013   19.5227 C.3     1  UNL1        0.0000
@<TRIPOS>BOND
     1    10    11    1
     2    11     7    1
     3     7     8    2
     4     7     9    2
     5     7     1    1
     6     1     2    1
     7     2     3    1
     8     3     4    1
     9     4    12    1
    10    12    13    1
    11    13    14   am
    12    14    15    2
    13    14    17    1
    14    17    18   ar
    15    18    19   ar
    16    19    20   ar
    17    20    21    1
    18    20    22   ar
    19    22    23   ar
    20    23    24    1
    21     4    25    1
    22    25    26    1
    23    26    27    1
    24    27    28    1
    25     4     5    1
    26     5     6    1
    27     6     1    1
    28    23    17   ar
    29    28    26    1
    30    13    16    1
