@<TRIPOS>MOLECULE
*****
 32 36 0 0 0
SMALL
GASTEIGER

@<TRIPOS>ATOM
      1 C          -7.9991  -17.0308   23.9368 C.ar    1  UNL1        0.1012
      2 C          -6.8294  -17.5349   23.1445 C.ar    1  UNL1        0.1010
      3 N          -5.5796  -16.9730   23.7547 N.ar    1  UNL1       -0.2205
      4 C          -5.9768  -16.1216   24.9240 C.ar    1  UNL1        0.1795
      5 S          -5.4499  -15.2482   26.0238 S.2     1  UNL1       -0.0480
      6 C          -6.6196  -14.7441   26.8160 C.ar    1  UNL1        0.0573
      7 C          -7.8694  -15.3060   26.2059 C.ar    1  UNL1        0.0890
      8 N          -7.4722  -16.1573   25.0366 N.ar    1  UNL1       -0.2818
      9 C         -11.5680  -17.0963   22.2023 C.ar    1  UNL1        0.2724
     10 N         -12.3288  -17.9732   23.1521 N.ar    1  UNL1       -0.2094
     11 C         -11.6463  -18.5360   24.3636 C.ar    1  UNL1        0.1035
     12 C         -10.2031  -18.2219   24.6252 C.ar    1  UNL1        0.0414
     13 C          -9.4423  -17.3449   23.6753 C.ar    1  UNL1        0.1033
     14 N         -10.1248  -16.7822   22.4639 N.ar    1  UNL1       -0.2094
     15 C         -12.9329  -15.9708   19.7794 C.3     1  UNL1        0.1853
     16 S         -12.2505  -16.5335   20.9908 S.O2    1  UNL1        0.0441
     17 O         -11.0948  -15.6024   20.7724 O.2     1  UNL1       -0.1656
     18 O         -13.4060  -17.4646   21.2093 O.2     1  UNL1       -0.1656
     19 C          -6.8975  -18.4416   21.9517 C.ar    1  UNL1        0.0222
     20 C          -8.0831  -18.3865   21.0343 C.ar    1  UNL1        0.0017
     21 C          -8.1513  -19.2932   19.8414 C.ar    1  UNL1        0.0032
     22 C          -7.0339  -20.2553   19.5658 C.ar    1  UNL1        0.0369
     23 C          -5.8483  -20.3105   20.4830 C.ar    1  UNL1        0.1391
     24 C          -5.7802  -19.4037   21.6760 C.ar    1  UNL1        0.0385
     25 O          -4.7309  -21.2725   20.2073 O.3     1  UNL1       -0.4706
     26 C          -3.4147  -20.7666   19.6961 C.3     1  UNL1        0.2320
     27 C          -2.8561  -19.4740   20.2129 C.ar    1  UNL1        0.0212
     28 C          -2.6919  -18.3047   19.2879 C.ar    1  UNL1       -0.0007
     29 C          -2.1333  -17.0120   19.8047 C.ar    1  UNL1       -0.0002
     30 C          -1.7389  -16.8888   21.2467 C.ar    1  UNL1       -0.0000
     31 C          -1.9030  -18.0581   22.1717 C.ar    1  UNL1       -0.0002
     32 C          -2.4616  -19.3507   21.6549 C.ar    1  UNL1       -0.0007
@<TRIPOS>BOND
     1    15    16    1
     2    16    17    2
     3    16    18    2
     4    16     9    1
     5     9    10   ar
     6    10    11   ar
     7    11    12   ar
     8    12    13   ar
     9    13     1    1
    10     1     2   ar
    11     2    19    1
    12    19    20   ar
    13    20    21   ar
    14    21    22   ar
    15    22    23   ar
    16    23    25    1
    17    25    26    1
    18    26    27    1
    19    27    28   ar
    20    28    29   ar
    21    29    30   ar
    22    30    31   ar
    23    31    32   ar
    24    23    24   ar
    25     2     3   ar
    26     3     4   ar
    27     4     5   ar
    28     5     6   ar
    29     6     7   ar
    30     7     8   ar
    31    13    14   ar
    32    14     9   ar
    33     8     1   ar
    34    24    19   ar
    35     8     4   ar
    36    32    27   ar
@<TRIPOS>MOLECULE
*****
 32 36 0 0 0
SMALL
GASTEIGER

@<TRIPOS>ATOM
      1 C         -15.7160   -7.3544   18.4828 C.ar    1  UNL1        0.1012
      2 C         -16.7207   -6.4913   19.1871 C.ar    1  UNL1        0.1010
      3 N         -17.8341   -7.3740   19.6678 N.ar    1  UNL1       -0.2205
      4 C         -17.5177   -8.7826   19.2607 C.ar    1  UNL1        0.1795
      5 S         -18.0103  -10.1987   19.3062 S.2     1  UNL1       -0.0480
      6 C         -17.0057  -11.0617   18.6020 C.ar    1  UNL1        0.0573
      7 C         -15.8922  -10.1790   18.1212 C.ar    1  UNL1        0.0890
      8 N         -16.2087   -8.7704   18.5283 N.ar    1  UNL1       -0.2818
      9 C         -11.8460   -6.8083   17.7939 C.ar    1  UNL1        0.2724
     10 N         -11.8953   -5.9431   16.5696 N.ar    1  UNL1       -0.2094
     11 C         -13.2183   -5.5483   15.9829 C.ar    1  UNL1        0.1035
     12 C         -14.4918   -6.0188   16.6207 C.ar    1  UNL1        0.0414
     13 C         -14.4425   -6.8840   17.8451 C.ar    1  UNL1        0.1033
     14 N         -13.1196   -7.2787   18.4317 N.ar    1  UNL1       -0.2094
     15 C          -9.2002   -7.5977   18.9673 C.3     1  UNL1        0.1853
     16 S         -10.5231   -7.2030   18.3806 S.O2    1  UNL1        0.0441
     17 O         -10.4385   -8.3503   17.4179 O.2     1  UNL1       -0.1656
     18 O         -10.6077   -6.0558   19.3432 O.2     1  UNL1       -0.1656
     19 C         -16.6280   -5.0063   19.3772 C.ar    1  UNL1        0.0222
     20 C         -17.8256   -4.1408   19.1183 C.ar    1  UNL1        0.0017
     21 C         -17.7330   -2.6559   19.3084 C.ar    1  UNL1        0.0032
     22 C         -16.4428   -2.0363   19.7575 C.ar    1  UNL1        0.0369
     23 C         -15.2453   -2.9016   20.0165 C.ar    1  UNL1        0.1391
     24 C         -15.3380   -4.3867   19.8263 C.ar    1  UNL1        0.0385
     25 O         -13.9552   -2.2820   20.4655 O.3     1  UNL1       -0.4706
     26 C         -12.6514   -2.7880   19.9233 C.3     1  UNL1        0.2320
     27 C         -12.0154   -2.1105   18.7459 C.ar    1  UNL1        0.0212
     28 C         -12.4188   -0.7140   18.3758 C.ar    1  UNL1       -0.0007
     29 C         -11.7827   -0.0366   17.1983 C.ar    1  UNL1       -0.0002
     30 C         -10.7431   -0.7558   16.3908 C.ar    1  UNL1       -0.0000
     31 C         -10.3397   -2.1523   16.7608 C.ar    1  UNL1       -0.0002
     32 C         -10.9758   -2.8297   17.9383 C.ar    1  UNL1       -0.0007
@<TRIPOS>BOND
     1    15    16    1
     2    16    17    2
     3    16    18    2
     4    16     9    1
     5     9    10   ar
     6    10    11   ar
     7    11    12   ar
     8    12    13   ar
     9    13     1    1
    10     1     2   ar
    11     2    19    1
    12    19    20   ar
    13    20    21   ar
    14    21    22   ar
    15    22    23   ar
    16    23    25    1
    17    25    26    1
    18    26    27    1
    19    27    28   ar
    20    28    29   ar
    21    29    30   ar
    22    30    31   ar
    23    31    32   ar
    24    23    24   ar
    25     2     3   ar
    26     3     4   ar
    27     4     5   ar
    28     5     6   ar
    29     6     7   ar
    30     7     8   ar
    31    13    14   ar
    32    14     9   ar
    33     8     1   ar
    34    24    19   ar
    35     8     4   ar
    36    32    27   ar
@<TRIPOS>MOLECULE
*****
 32 36 0 0 0
SMALL
GASTEIGER

@<TRIPOS>ATOM
      1 C          -5.2122  -17.3495   23.1241 C.ar    1  UNL1        0.1012
      2 C          -6.5208  -17.9359   22.6839 C.ar    1  UNL1        0.1010
      3 N          -7.6066  -17.3258   23.5199 N.ar    1  UNL1       -0.2205
      4 C          -6.9691  -16.3624   24.4767 C.ar    1  UNL1        0.1795
      5 S          -7.2462  -15.3900   25.5847 S.2     1  UNL1       -0.0480
      6 C          -5.9376  -14.8036   26.0248 C.ar    1  UNL1        0.0573
      7 C          -4.8518  -15.4136   25.1888 C.ar    1  UNL1        0.0890
      8 N          -5.4893  -16.3771   24.2321 N.ar    1  UNL1       -0.2818
      9 C          -2.2694  -17.8756   20.5139 C.ar    1  UNL1        0.2724
     10 N          -1.1656  -18.3347   21.4198 N.ar    1  UNL1       -0.2094
     11 C          -1.4106  -18.4655   22.8939 C.ar    1  UNL1        0.1035
     12 C          -2.7595  -18.1371   23.4620 C.ar    1  UNL1        0.0414
     13 C          -3.8633  -17.6779   22.5560 C.ar    1  UNL1        0.1033
     14 N          -3.6182  -17.5472   21.0820 N.ar    1  UNL1       -0.2094
     15 C          -1.7794  -17.6140   17.5657 C.3     1  UNL1        0.1853
     16 S          -2.0244  -17.7448   19.0398 S.O2    1  UNL1        0.0441
     17 O          -0.6186  -18.2324   19.2302 O.2     1  UNL1       -0.1656
     18 O          -3.4300  -17.2572   18.8494 O.2     1  UNL1       -0.1656
     19 C          -6.7103  -18.9536   21.5985 C.ar    1  UNL1        0.0222
     20 C          -5.7811  -20.1271   21.5000 C.ar    1  UNL1        0.0017
     21 C          -5.9705  -21.1448   20.4146 C.ar    1  UNL1        0.0032
     22 C          -7.0893  -20.9891   19.4275 C.ar    1  UNL1        0.0369
     23 C          -8.0185  -19.8158   19.5259 C.ar    1  UNL1        0.1391
     24 C          -7.8290  -18.7980   20.6115 C.ar    1  UNL1        0.0385
     25 O          -9.1373  -19.6601   18.5389 O.3     1  UNL1       -0.4706
     26 C         -10.5615  -19.7704   18.9960 C.3     1  UNL1        0.2320
     27 C         -11.0557  -18.9140   20.1240 C.ar    1  UNL1        0.0212
     28 C         -11.3729  -17.4676   19.8843 C.ar    1  UNL1       -0.0007
     29 C         -11.8670  -16.6111   21.0123 C.ar    1  UNL1       -0.0002
     30 C         -12.0439  -17.2011   22.3801 C.ar    1  UNL1       -0.0000
     31 C         -11.7267  -18.6474   22.6197 C.ar    1  UNL1       -0.0002
     32 C         -11.2326  -19.5039   21.4917 C.ar    1  UNL1       -0.0007
@<TRIPOS>BOND
     1    15    16    1
     2    16    17    2
     3    16    18    2
     4    16     9    1
     5     9    10   ar
     6    10    11   ar
     7    11    12   ar
     8    12    13   ar
     9    13     1    1
    10     1     2   ar
    11     2    19    1
    12    19    20   ar
    13    20    21   ar
    14    21    22   ar
    15    22    23   ar
    16    23    25    1
    17    25    26    1
    18    26    27    1
    19    27    28   ar
    20    28    29   ar
    21    29    30   ar
    22    30    31   ar
    23    31    32   ar
    24    23    24   ar
    25     2     3   ar
    26     3     4   ar
    27     4     5   ar
    28     5     6   ar
    29     6     7   ar
    30     7     8   ar
    31    13    14   ar
    32    14     9   ar
    33     8     1   ar
    34    24    19   ar
    35     8     4   ar
    36    32    27   ar
@<TRIPOS>MOLECULE
*****
 32 36 0 0 0
SMALL
GASTEIGER

@<TRIPOS>ATOM
      1 C          -5.5812  -18.1315   22.1966 C.ar    1  UNL1        0.1012
      2 C          -6.2028  -19.3412   21.5638 C.ar    1  UNL1        0.1010
      3 N          -5.0972  -20.2167   21.0526 N.ar    1  UNL1       -0.2205
      4 C          -3.7923  -19.5481   21.3695 C.ar    1  UNL1        0.1795
      5 S          -2.3027  -19.6760   21.2494 S.2     1  UNL1       -0.0480
      6 C          -1.6811  -18.4664   21.8822 C.ar    1  UNL1        0.0573
      7 C          -2.7867  -17.5908   22.3933 C.ar    1  UNL1        0.0890
      8 N          -4.0915  -18.2594   22.0765 N.ar    1  UNL1       -0.2818
      9 C          -6.9099  -15.5985   24.9476 C.ar    1  UNL1        0.2724
     10 N          -7.7967  -14.7182   24.1178 N.ar    1  UNL1       -0.2094
     11 C          -7.9450  -14.9757   22.6474 C.ar    1  UNL1        0.1035
     12 C          -7.2065  -16.1134   22.0070 C.ar    1  UNL1        0.0414
     13 C          -6.3197  -16.9938   22.8370 C.ar    1  UNL1        0.1033
     14 N          -6.1714  -16.7363   24.3072 N.ar    1  UNL1       -0.2094
     15 C          -6.6134  -15.0836   27.8882 C.3     1  UNL1        0.1853
     16 S          -6.7616  -15.3411   26.4179 S.O2    1  UNL1        0.0441
     17 O          -5.4128  -14.7312   26.1751 O.2     1  UNL1       -0.1656
     18 O          -8.1104  -15.9509   26.6607 O.2     1  UNL1       -0.1656
     19 C          -7.6719  -19.6255   21.4603 C.ar    1  UNL1        0.0222
     20 C          -8.3541  -19.5720   20.1254 C.ar    1  UNL1        0.0017
     21 C          -9.8232  -19.8563   20.0220 C.ar    1  UNL1        0.0032
     22 C         -10.6103  -20.1940   21.2534 C.ar    1  UNL1        0.0369
     23 C          -9.9282  -20.2476   22.5883 C.ar    1  UNL1        0.1391
     24 C          -8.4590  -19.9633   22.6917 C.ar    1  UNL1        0.0385
     25 O         -10.7154  -20.5853   23.8197 O.3     1  UNL1       -0.4706
     26 C         -11.4390  -19.5048   24.5671 C.3     1  UNL1        0.2320
     27 C         -11.7716  -18.2126   23.8821 C.ar    1  UNL1        0.0212
     28 C         -13.1649  -17.9641   23.3850 C.ar    1  UNL1       -0.0007
     29 C         -13.4976  -16.6718   22.6999 C.ar    1  UNL1       -0.0002
     30 C         -12.4368  -15.6279   22.5119 C.ar    1  UNL1       -0.0000
     31 C         -11.0436  -15.8764   23.0090 C.ar    1  UNL1       -0.0002
     32 C         -10.7110  -17.1687   23.6941 C.ar    1  UNL1       -0.0007
@<TRIPOS>BOND
     1    15    16    1
     2    16    17    2
     3    16    18    2
     4    16     9    1
     5     9    10   ar
     6    10    11   ar
     7    11    12   ar
     8    12    13   ar
     9    13     1    1
    10     1     2   ar
    11     2    19    1
    12    19    20   ar
    13    20    21   ar
    14    21    22   ar
    15    22    23   ar
    16    23    25    1
    17    25    26    1
    18    26    27    1
    19    27    28   ar
    20    28    29   ar
    21    29    30   ar
    22    30    31   ar
    23    31    32   ar
    24    23    24   ar
    25     2     3   ar
    26     3     4   ar
    27     4     5   ar
    28     5     6   ar
    29     6     7   ar
    30     7     8   ar
    31    13    14   ar
    32    14     9   ar
    33     8     1   ar
    34    24    19   ar
    35     8     4   ar
    36    32    27   ar
@<TRIPOS>MOLECULE
*****
 32 36 0 0 0
SMALL
GASTEIGER

@<TRIPOS>ATOM
      1 C          -4.1087  -18.0161   21.6248 C.ar    1  UNL1        0.1012
      2 C          -5.0113  -18.7257   20.6594 C.ar    1  UNL1        0.1010
      3 N          -4.2177  -19.0351   19.4246 N.ar    1  UNL1       -0.2205
      4 C          -2.8248  -18.5166   19.6269 C.ar    1  UNL1        0.1795
      5 S          -1.4735  -18.3874   18.9887 S.2     1  UNL1       -0.0480
      6 C          -0.5710  -17.6777   19.9541 C.ar    1  UNL1        0.0573
      7 C          -1.3645  -17.3684   21.1888 C.ar    1  UNL1        0.0890
      8 N          -2.7574  -17.8868   20.9866 N.ar    1  UNL1       -0.2818
      9 C          -6.1586  -16.2820   24.5473 C.ar    1  UNL1        0.2724
     10 N          -5.2541  -16.5349   25.7168 N.ar    1  UNL1       -0.2094
     11 C          -3.9677  -17.2816   25.5223 C.ar    1  UNL1        0.1035
     12 C          -3.5859  -17.7753   24.1583 C.ar    1  UNL1        0.0414
     13 C          -4.4905  -17.5223   22.9888 C.ar    1  UNL1        0.1033
     14 N          -5.7768  -16.7757   23.1833 N.ar    1  UNL1       -0.2094
     15 C          -8.7314  -14.7888   24.9362 C.3     1  UNL1        0.1853
     16 S          -7.4450  -15.5354   24.7417 S.O2    1  UNL1        0.0441
     17 O          -7.4685  -15.1953   23.2809 O.2     1  UNL1       -0.1656
     18 O          -7.4216  -15.8755   26.2024 O.2     1  UNL1       -0.1656
     19 C          -6.4540  -19.0662   20.8886 C.ar    1  UNL1        0.0222
     20 C          -7.3950  -19.1669   19.7247 C.ar    1  UNL1        0.0017
     21 C          -8.8376  -19.5074   19.9538 C.ar    1  UNL1        0.0032
     22 C          -9.3395  -19.7473   21.3470 C.ar    1  UNL1        0.0369
     23 C          -8.3986  -19.6467   22.5108 C.ar    1  UNL1        0.1391
     24 C          -6.9559  -19.3062   22.2816 C.ar    1  UNL1        0.0385
     25 O          -8.9005  -19.8866   23.9039 O.3     1  UNL1       -0.4706
     26 C          -9.6312  -18.8000   24.6353 C.3     1  UNL1        0.2320
     27 C         -10.7908  -18.1062   23.9842 C.ar    1  UNL1        0.0212
     28 C         -12.1884  -18.5956   24.2235 C.ar    1  UNL1       -0.0007
     29 C         -13.3479  -17.9018   23.5724 C.ar    1  UNL1       -0.0002
     30 C         -13.1099  -16.7184   22.6819 C.ar    1  UNL1       -0.0000
     31 C         -11.7124  -16.2290   22.4426 C.ar    1  UNL1       -0.0002
     32 C         -10.5528  -16.9228   23.0937 C.ar    1  UNL1       -0.0007
@<TRIPOS>BOND
     1    15    16    1
     2    16    17    2
     3    16    18    2
     4    16     9    1
     5     9    10   ar
     6    10    11   ar
     7    11    12   ar
     8    12    13   ar
     9    13     1    1
    10     1     2   ar
    11     2    19    1
    12    19    20   ar
    13    20    21   ar
    14    21    22   ar
    15    22    23   ar
    16    23    25    1
    17    25    26    1
    18    26    27    1
    19    27    28   ar
    20    28    29   ar
    21    29    30   ar
    22    30    31   ar
    23    31    32   ar
    24    23    24   ar
    25     2     3   ar
    26     3     4   ar
    27     4     5   ar
    28     5     6   ar
    29     6     7   ar
    30     7     8   ar
    31    13    14   ar
    32    14     9   ar
    33     8     1   ar
    34    24    19   ar
    35     8     4   ar
    36    32    27   ar
@<TRIPOS>MOLECULE
*****
 32 36 0 0 0
SMALL
GASTEIGER

@<TRIPOS>ATOM
      1 C           5.3830   -2.7219   23.7365 C.ar    1  UNL1        0.1012
      2 C           4.3896   -2.3685   22.6695 C.ar    1  UNL1        0.1010
      3 N           3.4581   -1.3338   23.2279 N.ar    1  UNL1       -0.2205
      4 C           3.8757   -1.0478   24.6399 C.ar    1  UNL1        0.1795
      5 S           3.5580   -0.2316   25.8577 S.2     1  UNL1       -0.0480
      6 C           4.5514   -0.5850   26.9246 C.ar    1  UNL1        0.0573
      7 C           5.4829   -1.6197   26.3663 C.ar    1  UNL1        0.0890
      8 N           5.0653   -1.9057   24.9543 N.ar    1  UNL1       -0.2818
      9 C           7.7259   -5.8426   24.4591 C.ar    1  UNL1        0.2724
     10 N           8.7285   -5.7068   23.3517 N.ar    1  UNL1       -0.2094
     11 C           8.6160   -4.5760   22.3725 C.ar    1  UNL1        0.1035
     12 C           7.5008   -3.5810   22.5008 C.ar    1  UNL1        0.0414
     13 C           6.4981   -3.7169   23.6083 C.ar    1  UNL1        0.1033
     14 N           6.6107   -4.8476   24.5873 N.ar    1  UNL1       -0.2094
     15 C           7.9510   -8.1042   26.4173 C.3     1  UNL1        0.1853
     16 S           7.8384   -6.9734   25.4382 S.O2    1  UNL1        0.0441
     17 O           6.9379   -6.2406   26.3880 O.2     1  UNL1       -0.1656
     18 O           8.7389   -7.7061   24.4884 O.2     1  UNL1       -0.1656
     19 C           4.3370   -2.9479   21.2871 C.ar    1  UNL1        0.0222
     20 C           3.9397   -4.3808   21.0889 C.ar    1  UNL1        0.0017
     21 C           3.8871   -4.9602   19.7065 C.ar    1  UNL1        0.0032
     22 C           4.2319   -4.1069   18.5219 C.ar    1  UNL1        0.0369
     23 C           4.6293   -2.6741   18.7200 C.ar    1  UNL1        0.1391
     24 C           4.6818   -2.0946   20.1026 C.ar    1  UNL1        0.0385
     25 O           4.9740   -1.8208   17.5355 O.3     1  UNL1       -0.4706
     26 C           3.9528   -0.8823   16.9645 C.3     1  UNL1        0.2320
     27 C           3.4815    0.2928   17.7688 C.ar    1  UNL1        0.0212
     28 C           2.0607    0.3539   18.2459 C.ar    1  UNL1       -0.0007
     29 C           1.5894    1.5291   19.0502 C.ar    1  UNL1       -0.0002
     30 C           2.5390    2.6432   19.3774 C.ar    1  UNL1       -0.0000
     31 C           3.9597    2.5821   18.9003 C.ar    1  UNL1       -0.0002
     32 C           4.4310    1.4070   18.0960 C.ar    1  UNL1       -0.0007
@<TRIPOS>BOND
     1    15    16    1
     2    16    17    2
     3    16    18    2
     4    16     9    1
     5     9    10   ar
     6    10    11   ar
     7    11    12   ar
     8    12    13   ar
     9    13     1    1
    10     1     2   ar
    11     2    19    1
    12    19    20   ar
    13    20    21   ar
    14    21    22   ar
    15    22    23   ar
    16    23    25    1
    17    25    26    1
    18    26    27    1
    19    27    28   ar
    20    28    29   ar
    21    29    30   ar
    22    30    31   ar
    23    31    32   ar
    24    23    24   ar
    25     2     3   ar
    26     3     4   ar
    27     4     5   ar
    28     5     6   ar
    29     6     7   ar
    30     7     8   ar
    31    13    14   ar
    32    14     9   ar
    33     8     1   ar
    34    24    19   ar
    35     8     4   ar
    36    32    27   ar
@<TRIPOS>MOLECULE
*****
 32 36 0 0 0
SMALL
GASTEIGER

@<TRIPOS>ATOM
      1 C           7.0846   -4.3063   24.2499 C.ar    1  UNL1        0.1012
      2 C           6.6977   -3.4308   25.4049 C.ar    1  UNL1        0.1010
      3 N           6.8879   -4.2181   26.6674 N.ar    1  UNL1       -0.2205
      4 C           7.3923   -5.5802   26.2928 C.ar    1  UNL1        0.1795
      5 S           7.8215   -6.9086   26.8416 S.2     1  UNL1       -0.0480
      6 C           8.2083   -7.7841   25.6866 C.ar    1  UNL1        0.0573
      7 C           8.0182   -6.9968   24.4241 C.ar    1  UNL1        0.0890
      8 N           7.5138   -5.6347   24.7987 N.ar    1  UNL1       -0.2818
      9 C           5.7892   -3.8182   20.5306 C.ar    1  UNL1        0.2724
     10 N           6.9763   -3.1506   19.9022 N.ar    1  UNL1       -0.2094
     11 C           8.1997   -2.8681   20.7231 C.ar    1  UNL1        0.1035
     12 C           8.2357   -3.2534   22.1724 C.ar    1  UNL1        0.0414
     13 C           7.0485   -3.9211   22.8007 C.ar    1  UNL1        0.1033
     14 N           5.8253   -4.2035   21.9798 N.ar    1  UNL1       -0.2094
     15 C           3.3426   -4.3831   18.8889 C.3     1  UNL1        0.1853
     16 S           4.5659   -4.1007   19.7097 S.O2    1  UNL1        0.0441
     17 O           5.0971   -3.2223   18.6159 O.2     1  UNL1       -0.1656
     18 O           4.0347   -4.9790   20.8035 O.2     1  UNL1       -0.1656
     19 C           6.2069   -2.0164   25.3134 C.ar    1  UNL1        0.0222
     20 C           7.1866   -0.8804   25.3220 C.ar    1  UNL1        0.0017
     21 C           6.6958    0.5339   25.2305 C.ar    1  UNL1        0.0032
     22 C           5.2252    0.8126   25.1303 C.ar    1  UNL1        0.0369
     23 C           4.2456   -0.3233   25.1216 C.ar    1  UNL1        0.1391
     24 C           4.7365   -1.7377   25.2132 C.ar    1  UNL1        0.0385
     25 O           2.7751   -0.0446   25.0214 O.3     1  UNL1       -0.4706
     26 C           2.2636    0.9250   23.9978 C.3     1  UNL1        0.2320
     27 C           1.9071    0.4449   22.6221 C.ar    1  UNL1        0.0212
     28 C           0.7107    1.0113   21.9166 C.ar    1  UNL1       -0.0007
     29 C           0.3542    0.5312   20.5409 C.ar    1  UNL1       -0.0002
     30 C           1.1943   -0.5153   19.8707 C.ar    1  UNL1       -0.0000
     31 C           2.3907   -1.0816   20.5763 C.ar    1  UNL1       -0.0002
     32 C           2.7472   -0.6016   21.9519 C.ar    1  UNL1       -0.0007
@<TRIPOS>BOND
     1    15    16    1
     2    16    17    2
     3    16    18    2
     4    16     9    1
     5     9    10   ar
     6    10    11   ar
     7    11    12   ar
     8    12    13   ar
     9    13     1    1
    10     1     2   ar
    11     2    19    1
    12    19    20   ar
    13    20    21   ar
    14    21    22   ar
    15    22    23   ar
    16    23    25    1
    17    25    26    1
    18    26    27    1
    19    27    28   ar
    20    28    29   ar
    21    29    30   ar
    22    30    31   ar
    23    31    32   ar
    24    23    24   ar
    25     2     3   ar
    26     3     4   ar
    27     4     5   ar
    28     5     6   ar
    29     6     7   ar
    30     7     8   ar
    31    13    14   ar
    32    14     9   ar
    33     8     1   ar
    34    24    19   ar
    35     8     4   ar
    36    32    27   ar
@<TRIPOS>MOLECULE
*****
 32 36 0 0 0
SMALL
GASTEIGER

@<TRIPOS>ATOM
      1 C          -5.5796  -17.3359   23.1172 C.ar    1  UNL1        0.1012
      2 C          -7.0080  -17.3659   22.6601 C.ar    1  UNL1        0.1010
      3 N          -7.8026  -16.4701   23.5636 N.ar    1  UNL1       -0.2205
      4 C          -6.8653  -15.8865   24.5790 C.ar    1  UNL1        0.1795
      5 S          -6.7772  -14.9721   25.7648 S.2     1  UNL1       -0.0480
      6 C          -5.3488  -14.9422   26.2218 C.ar    1  UNL1        0.0573
      7 C          -4.5542  -15.8380   25.3184 C.ar    1  UNL1        0.0890
      8 N          -5.4915  -16.4216   24.3030 N.ar    1  UNL1       -0.2818
      9 C          -2.1922  -18.0944   21.1937 C.ar    1  UNL1        0.2724
     10 N          -2.1594  -19.5927   21.2572 N.ar    1  UNL1       -0.2094
     11 C          -3.2668  -20.3388   21.9407 C.ar    1  UNL1        0.1035
     12 C          -4.4069  -19.5865   22.5607 C.ar    1  UNL1        0.0414
     13 C          -4.4395  -18.0881   22.4972 C.ar    1  UNL1        0.1033
     14 N          -3.3322  -17.3421   21.8137 N.ar    1  UNL1       -0.2094
     15 C           0.0225  -16.6023   19.8266 C.3     1  UNL1        0.1853
     16 S          -1.0848  -17.3483   20.5101 S.O2    1  UNL1        0.0441
     17 O          -1.3703  -16.1458   21.3601 O.2     1  UNL1       -0.1656
     18 O          -0.7993  -18.5508   19.6602 O.2     1  UNL1       -0.1656
     19 C          -7.5471  -18.1533   21.5030 C.ar    1  UNL1        0.0222
     20 C          -6.6113  -18.9230   20.6185 C.ar    1  UNL1        0.0017
     21 C          -7.1504  -19.7104   19.4614 C.ar    1  UNL1        0.0032
     22 C          -8.6253  -19.7284   19.1885 C.ar    1  UNL1        0.0369
     23 C          -9.5611  -18.9588   20.0728 C.ar    1  UNL1        0.1391
     24 C          -9.0219  -18.1713   21.2301 C.ar    1  UNL1        0.0385
     25 O         -11.0360  -18.9768   19.7999 O.3     1  UNL1       -0.4706
     26 C         -11.9469  -18.0423   20.5393 C.3     1  UNL1        0.2320
     27 C         -12.2431  -18.2759   21.9911 C.ar    1  UNL1        0.0212
     28 C         -11.3554  -19.1719   22.8031 C.ar    1  UNL1       -0.0007
     29 C         -11.6516  -19.4055   24.2548 C.ar    1  UNL1       -0.0002
     30 C         -12.8357  -18.7431   24.8947 C.ar    1  UNL1       -0.0000
     31 C         -13.7233  -17.8472   24.0827 C.ar    1  UNL1       -0.0002
     32 C         -13.4271  -17.6135   22.6310 C.ar    1  UNL1       -0.0007
@<TRIPOS>BOND
     1    15    16    1
     2    16    17    2
     3    16    18    2
     4    16     9    1
     5     9    10   ar
     6    10    11   ar
     7    11    12   ar
     8    12    13   ar
     9    13     1    1
    10     1     2   ar
    11     2    19    1
    12    19    20   ar
    13    20    21   ar
    14    21    22   ar
    15    22    23   ar
    16    23    25    1
    17    25    26    1
    18    26    27    1
    19    27    28   ar
    20    28    29   ar
    21    29    30   ar
    22    30    31   ar
    23    31    32   ar
    24    23    24   ar
    25     2     3   ar
    26     3     4   ar
    27     4     5   ar
    28     5     6   ar
    29     6     7   ar
    30     7     8   ar
    31    13    14   ar
    32    14     9   ar
    33     8     1   ar
    34    24    19   ar
    35     8     4   ar
    36    32    27   ar
@<TRIPOS>MOLECULE
*****
 32 36 0 0 0
SMALL
GASTEIGER

@<TRIPOS>ATOM
      1 C          -4.1994  -18.0154   21.6872 C.ar    1  UNL1        0.1012
      2 C          -5.1136  -18.8037   20.7966 C.ar    1  UNL1        0.1010
      3 N          -4.3708  -19.1182   19.5319 N.ar    1  UNL1       -0.2205
      4 C          -2.9977  -18.5244   19.6409 C.ar    1  UNL1        0.1795
      5 S          -1.6900  -18.3518   18.9265 S.2     1  UNL1       -0.0480
      6 C          -0.7760  -17.5635   19.8171 C.ar    1  UNL1        0.0573
      7 C          -1.5186  -17.2489   21.0818 C.ar    1  UNL1        0.0890
      8 N          -2.8918  -17.8428   20.9729 N.ar    1  UNL1       -0.2818
      9 C          -6.1822  -16.2839   24.6571 C.ar    1  UNL1        0.2724
     10 N          -5.2038  -16.4442   25.7826 N.ar    1  UNL1       -0.2094
     11 C          -3.8904  -17.1283   25.5431 C.ar    1  UNL1        0.1035
     12 C          -3.5557  -17.6520   24.1779 C.ar    1  UNL1        0.0414
     13 C          -4.5342  -17.4917   23.0523 C.ar    1  UNL1        0.1033
     14 N          -5.8474  -16.8076   23.2920 N.ar    1  UNL1       -0.2094
     15 C          -8.8088  -14.9158   25.1363 C.3     1  UNL1        0.1853
     16 S          -7.4955  -15.5998   24.8967 S.O2    1  UNL1        0.0441
     17 O          -7.6919  -15.4584   23.4163 O.2     1  UNL1       -0.1656
     18 O          -7.2991  -15.7413   26.3770 O.2     1  UNL1       -0.1656
     19 C          -6.5229  -19.2066   21.1149 C.ar    1  UNL1        0.0222
     20 C          -6.8555  -19.7690   22.4652 C.ar    1  UNL1        0.0017
     21 C          -8.2647  -20.1719   22.7835 C.ar    1  UNL1        0.0032
     22 C          -9.3417  -20.0125   21.7514 C.ar    1  UNL1        0.0369
     23 C          -9.0092  -19.4502   20.4012 C.ar    1  UNL1        0.1391
     24 C          -7.5997  -19.0473   20.0829 C.ar    1  UNL1        0.0385
     25 O         -10.0860  -19.2909   19.3692 O.3     1  UNL1       -0.4706
     26 C         -10.9766  -18.0842   19.3947 C.3     1  UNL1        0.2320
     27 C         -11.4819  -17.5525   20.7031 C.ar    1  UNL1        0.0212
     28 C         -10.9129  -16.2846   21.2675 C.ar    1  UNL1       -0.0007
     29 C         -11.4182  -15.7529   22.5759 C.ar    1  UNL1       -0.0002
     30 C         -12.4927  -16.4892   23.3199 C.ar    1  UNL1       -0.0000
     31 C         -13.0617  -17.7571   22.7555 C.ar    1  UNL1       -0.0002
     32 C         -12.5563  -18.2888   21.4471 C.ar    1  UNL1       -0.0007
@<TRIPOS>BOND
     1    15    16    1
     2    16    17    2
     3    16    18    2
     4    16     9    1
     5     9    10   ar
     6    10    11   ar
     7    11    12   ar
     8    12    13   ar
     9    13     1    1
    10     1     2   ar
    11     2    19    1
    12    19    20   ar
    13    20    21   ar
    14    21    22   ar
    15    22    23   ar
    16    23    25    1
    17    25    26    1
    18    26    27    1
    19    27    28   ar
    20    28    29   ar
    21    29    30   ar
    22    30    31   ar
    23    31    32   ar
    24    23    24   ar
    25     2     3   ar
    26     3     4   ar
    27     4     5   ar
    28     5     6   ar
    29     6     7   ar
    30     7     8   ar
    31    13    14   ar
    32    14     9   ar
    33     8     1   ar
    34    24    19   ar
    35     8     4   ar
    36    32    27   ar
