@<TRIPOS>MOLECULE
*****
 32 35 0 0 0
SMALL
GASTEIGER

@<TRIPOS>ATOM
      1 N           0.6870    3.4797   20.9286 N.pl3   1  UNL1       -0.2983
      2 H           1.1420    4.2546   21.3307 H       1  UNL1        0.1536
      3 C           0.6182    1.6746   23.3238 C.3     1  UNL1        0.0323
      4 C           1.3395    1.2445   22.0809 C.ar    1  UNL1       -0.0087
      5 C           2.0264   -0.0882   22.0357 C.ar    1  UNL1       -0.0031
      6 C           2.7477   -0.5184   20.7928 C.ar    1  UNL1       -0.0004
      7 C           2.7821    0.3841   19.5952 C.ar    1  UNL1       -0.0031
      8 C           2.0952    1.7168   19.6405 C.ar    1  UNL1       -0.0087
      9 C           2.1296    2.6194   18.4429 C.3     1  UNL1        0.0323
     10 C           1.3739    2.1470   20.8833 C.ar    1  UNL1        0.0413
     11 C           3.4346   -1.8512   20.7476 C.ar    1  UNL1        0.0031
     12 C           4.1554   -2.3649   21.9586 C.ar    1  UNL1        0.0207
     13 C           4.8423   -3.6975   21.9135 C.ar    1  UNL1        0.0989
     14 N           4.8085   -4.5166   20.6572 N.ar    1  UNL1       -0.2423
     15 C           4.0877   -4.0029   19.4462 C.ar    1  UNL1        0.0989
     16 C           3.4008   -2.6701   19.4914 C.ar    1  UNL1        0.0207
     17 C          -0.6932    3.6317   20.3610 C.ar    1  UNL1        0.1366
     18 C          -0.9028    4.4132   19.0979 C.ar    1  UNL1        0.0552
     19 C          -2.2830    4.5653   18.5304 C.ar    1  UNL1        0.1047
     20 N          -3.4535    3.9358   19.2260 N.ar    1  UNL1       -0.2119
     21 C          -3.2438    3.1543   20.4890 C.ar    1  UNL1        0.2218
     22 N          -1.8636    3.0023   21.0565 N.ar    1  UNL1       -0.1985
     23 N          -4.4143    2.5248   21.1846 N.pl3   1  UNL1       -0.2825
     24 H          -4.6566    1.5901   20.9925 H       1  UNL1        0.1551
     25 C          -5.2155    3.3194   22.1728 C.ar    1  UNL1        0.0505
     26 C          -6.3567    4.1711   21.7012 C.ar    1  UNL1        0.0154
     27 C          -7.1579    4.9658   22.6894 C.ar    1  UNL1        0.0115
     28 C          -6.8179    4.9087   24.1493 C.ar    1  UNL1        0.0685
     29 C          -5.6768    4.0571   24.6209 C.ar    1  UNL1        0.0115
     30 C          -4.8756    3.2624   23.6327 C.ar    1  UNL1        0.0154
     31 C          -7.6192    5.7034   25.1375 C.1     1  UNL1        0.1004
     32 N          -8.4204    6.4980   26.1258 N.1     1  UNL1       -0.1908
@<TRIPOS>BOND
     1     3     4    1
     2     4     5   ar
     3     5     6   ar
     4     6    11    1
     5    11    12   ar
     6    12    13   ar
     7    13    14   ar
     8    14    15   ar
     9    15    16   ar
    10     6     7   ar
    11     7     8   ar
    12     8     9    1
    13     8    10   ar
    14    10     1    1
    15     1    17    1
    16    17    18   ar
    17    18    19   ar
    18    19    20   ar
    19    20    21   ar
    20    21    23    1
    21    23    25    1
    22    25    26   ar
    23    26    27   ar
    24    27    28   ar
    25    28    31    1
    26    31    32    3
    27    28    29   ar
    28    29    30   ar
    29    21    22   ar
    30    10     4   ar
    31    22    17   ar
    32    16    11   ar
    33    30    25   ar
    34     1     2    1
    35    23    24    1
@<TRIPOS>MOLECULE
*****
 32 35 0 0 0
SMALL
GASTEIGER

@<TRIPOS>ATOM
      1 N          -0.9923    3.9898   20.6711 N.pl3   1  UNL1       -0.2983
      2 H          -0.6254    4.8843   20.8565 H       1  UNL1        0.1536
      3 C          -0.3091    3.4927   17.7926 C.3     1  UNL1        0.0323
      4 C           0.2688    2.6150   18.8630 C.ar    1  UNL1       -0.0087
      5 C           1.1884    1.4888   18.4941 C.ar    1  UNL1       -0.0031
      6 C           1.7663    0.6112   19.5645 C.ar    1  UNL1       -0.0004
      7 C           1.4247    0.8597   21.0037 C.ar    1  UNL1       -0.0031
      8 C           0.5052    1.9859   21.3726 C.ar    1  UNL1       -0.0087
      9 C           0.1635    2.2345   22.8119 C.3     1  UNL1        0.0323
     10 C          -0.0728    2.8636   20.3022 C.ar    1  UNL1        0.0413
     11 C           2.6858   -0.5151   19.1955 C.ar    1  UNL1        0.0031
     12 C           3.5071   -0.4331   17.9430 C.ar    1  UNL1        0.0207
     13 C           4.4266   -1.5593   17.5741 C.ar    1  UNL1        0.0989
     14 N           4.5249   -2.7675   18.4576 N.ar    1  UNL1       -0.2423
     15 C           3.7037   -2.8495   19.7102 C.ar    1  UNL1        0.0989
     16 C           2.7841   -1.7232   20.0791 C.ar    1  UNL1        0.0207
     17 C          -2.4710    3.7531   20.7576 C.ar    1  UNL1        0.1366
     18 C          -3.3296    3.9188   19.5388 C.ar    1  UNL1        0.0552
     19 C          -4.8083    3.6820   19.6253 C.ar    1  UNL1        0.1047
     20 N          -5.4284    3.2795   20.9306 N.ar    1  UNL1       -0.2119
     21 C          -4.5697    3.1138   22.1492 C.ar    1  UNL1        0.2218
     22 N          -3.0911    3.3506   22.0628 N.ar    1  UNL1       -0.1985
     23 N          -5.1898    2.7113   23.4545 N.pl3   1  UNL1       -0.2825
     24 H          -5.5468    1.8011   23.5699 H       1  UNL1        0.1551
     25 C          -5.2658    3.6956   24.5838 C.ar    1  UNL1        0.0505
     26 C          -4.2474    3.6544   25.6844 C.ar    1  UNL1        0.0154
     27 C          -4.3233    4.6387   26.8138 C.ar    1  UNL1        0.0115
     28 C          -5.4177    5.6642   26.8425 C.ar    1  UNL1        0.0685
     29 C          -6.4361    5.7053   25.7419 C.ar    1  UNL1        0.0115
     30 C          -6.3601    4.7211   24.6126 C.ar    1  UNL1        0.0154
     31 C          -5.4937    6.6485   27.9718 C.1     1  UNL1        0.1004
     32 N          -5.5697    7.6328   29.1012 N.1     1  UNL1       -0.1908
@<TRIPOS>BOND
     1     3     4    1
     2     4     5   ar
     3     5     6   ar
     4     6    11    1
     5    11    12   ar
     6    12    13   ar
     7    13    14   ar
     8    14    15   ar
     9    15    16   ar
    10     6     7   ar
    11     7     8   ar
    12     8     9    1
    13     8    10   ar
    14    10     1    1
    15     1    17    1
    16    17    18   ar
    17    18    19   ar
    18    19    20   ar
    19    20    21   ar
    20    21    23    1
    21    23    25    1
    22    25    26   ar
    23    26    27   ar
    24    27    28   ar
    25    28    31    1
    26    31    32    3
    27    28    29   ar
    28    29    30   ar
    29    21    22   ar
    30    10     4   ar
    31    22    17   ar
    32    16    11   ar
    33    30    25   ar
    34     1     2    1
    35    23    24    1
@<TRIPOS>MOLECULE
*****
 32 35 0 0 0
SMALL
GASTEIGER

@<TRIPOS>ATOM
      1 N           0.3872    3.6967   21.5548 N.pl3   1  UNL1       -0.2983
      2 H           1.2127    4.0965   21.1972 H       1  UNL1        0.1536
      3 C          -0.1748    5.3667   23.9829 C.3     1  UNL1        0.0323
      4 C           0.1070    3.9007   24.1297 C.ar    1  UNL1       -0.0087
      5 C           0.1078    3.2698   25.4905 C.ar    1  UNL1       -0.0031
      6 C           0.3895    1.8038   25.6374 C.ar    1  UNL1       -0.0004
      7 C           0.6706    0.9688   24.4234 C.ar    1  UNL1       -0.0031
      8 C           0.6698    1.5998   23.0626 C.ar    1  UNL1       -0.0087
      9 C           0.9508    0.7647   21.8485 C.3     1  UNL1        0.0323
     10 C           0.3880    3.0657   22.9158 C.ar    1  UNL1        0.0413
     11 C           0.3903    1.1729   26.9983 C.ar    1  UNL1        0.0031
     12 C           1.6702    0.6541   27.5837 C.ar    1  UNL1        0.0207
     13 C           1.6710    0.0232   28.9445 C.ar    1  UNL1        0.0989
     14 N           0.3919   -0.0890   29.7200 N.ar    1  UNL1       -0.2423
     15 C          -0.8880    0.4297   29.1346 C.ar    1  UNL1        0.0989
     16 C          -0.8888    1.0607   27.7737 C.ar    1  UNL1        0.0207
     17 C          -0.8713    3.7183   20.7389 C.ar    1  UNL1        0.1366
     18 C          -0.8542    4.2814   19.3487 C.ar    1  UNL1        0.0552
     19 C          -2.1127    4.3031   18.5328 C.ar    1  UNL1        0.1047
     20 N          -3.3882    3.7616   19.1071 N.ar    1  UNL1       -0.2119
     21 C          -3.4053    3.1985   20.4972 C.ar    1  UNL1        0.2218
     22 N          -2.1468    3.1768   21.3132 N.ar    1  UNL1       -0.1985
     23 N          -4.6809    2.6570   21.0716 N.pl3   1  UNL1       -0.2825
     24 H          -5.0321    1.7913   20.7609 H       1  UNL1        0.1551
     25 C          -5.4212    3.4345   22.1192 C.ar    1  UNL1        0.0505
     26 C          -6.5754    4.3091   21.7282 C.ar    1  UNL1        0.0154
     27 C          -7.3157    5.0866   22.7758 C.ar    1  UNL1        0.0115
     28 C          -6.9018    4.9894   24.2144 C.ar    1  UNL1        0.0685
     29 C          -5.7476    4.1147   24.6052 C.ar    1  UNL1        0.0115
     30 C          -5.0073    3.3373   23.5576 C.ar    1  UNL1        0.0154
     31 C          -7.6421    5.7668   25.2620 C.1     1  UNL1        0.1004
     32 N          -8.3824    6.5443   26.3096 N.1     1  UNL1       -0.1908
@<TRIPOS>BOND
     1     3     4    1
     2     4     5   ar
     3     5     6   ar
     4     6    11    1
     5    11    12   ar
     6    12    13   ar
     7    13    14   ar
     8    14    15   ar
     9    15    16   ar
    10     6     7   ar
    11     7     8   ar
    12     8     9    1
    13     8    10   ar
    14    10     1    1
    15     1    17    1
    16    17    18   ar
    17    18    19   ar
    18    19    20   ar
    19    20    21   ar
    20    21    23    1
    21    23    25    1
    22    25    26   ar
    23    26    27   ar
    24    27    28   ar
    25    28    31    1
    26    31    32    3
    27    28    29   ar
    28    29    30   ar
    29    21    22   ar
    30    10     4   ar
    31    22    17   ar
    32    16    11   ar
    33    30    25   ar
    34     1     2    1
    35    23    24    1
@<TRIPOS>MOLECULE
*****
 32 35 0 0 0
SMALL
GASTEIGER

@<TRIPOS>ATOM
      1 N           5.0761   -3.5105   19.7589 N.pl3   1  UNL1       -0.2983
      2 H           4.6651   -4.2151   19.2078 H       1  UNL1        0.1536
      3 C           3.7860   -1.4279   18.0273 C.3     1  UNL1        0.0323
      4 C           3.5736   -1.4053   19.5120 C.ar    1  UNL1       -0.0087
      5 C           2.7162   -0.3415   20.1309 C.ar    1  UNL1       -0.0031
      6 C           2.5038   -0.3189   21.6156 C.ar    1  UNL1       -0.0004
      7 C           3.1489   -1.3601   22.4814 C.ar    1  UNL1       -0.0031
      8 C           4.0063   -2.4239   21.8625 C.ar    1  UNL1       -0.0087
      9 C           4.6514   -3.4652   22.7284 C.3     1  UNL1        0.0323
     10 C           4.2186   -2.4465   20.3778 C.ar    1  UNL1        0.0413
     11 C           1.6464    0.7450   22.2345 C.ar    1  UNL1        0.0031
     12 C           0.8306    1.6525   21.3621 C.ar    1  UNL1        0.0207
     13 C          -0.0268    2.7164   21.9809 C.ar    1  UNL1        0.0989
     14 N          -0.0685    2.8728   23.4721 N.ar    1  UNL1       -0.2423
     15 C           0.7472    1.9654   24.3446 C.ar    1  UNL1        0.0989
     16 C           1.6047    0.9015   23.7257 C.ar    1  UNL1        0.0207
     17 C           6.5597   -3.5006   19.9798 C.ar    1  UNL1        0.1366
     18 C           7.3817   -2.3409   19.5006 C.ar    1  UNL1        0.0552
     19 C           8.8653   -2.3311   19.7215 C.ar    1  UNL1        0.1047
     20 N           9.5270   -3.4810   20.4215 N.ar    1  UNL1       -0.2119
     21 C           8.7050   -4.6406   20.9007 C.ar    1  UNL1        0.2218
     22 N           7.2214   -4.6504   20.6799 N.ar    1  UNL1       -0.1985
     23 N           9.3667   -5.7905   21.6008 N.pl3   1  UNL1       -0.2825
     24 H           9.9674   -6.3904   21.1024 H       1  UNL1        0.1551
     25 C           9.1131   -6.0262   23.0603 C.ar    1  UNL1        0.0505
     26 C           8.9900   -7.4266   23.5835 C.ar    1  UNL1        0.0154
     27 C           8.7364   -7.6624   25.0430 C.ar    1  UNL1        0.0115
     28 C           8.6058   -6.4976   25.9793 C.ar    1  UNL1        0.0685
     29 C           8.7289   -5.0973   25.4560 C.ar    1  UNL1        0.0115
     30 C           8.9825   -4.8616   23.9965 C.ar    1  UNL1        0.0154
     31 C           8.3522   -6.7334   27.4388 C.1     1  UNL1        0.1004
     32 N           8.0986   -6.9691   28.8982 N.1     1  UNL1       -0.1908
@<TRIPOS>BOND
     1     3     4    1
     2     4     5   ar
     3     5     6   ar
     4     6    11    1
     5    11    12   ar
     6    12    13   ar
     7    13    14   ar
     8    14    15   ar
     9    15    16   ar
    10     6     7   ar
    11     7     8   ar
    12     8     9    1
    13     8    10   ar
    14    10     1    1
    15     1    17    1
    16    17    18   ar
    17    18    19   ar
    18    19    20   ar
    19    20    21   ar
    20    21    23    1
    21    23    25    1
    22    25    26   ar
    23    26    27   ar
    24    27    28   ar
    25    28    31    1
    26    31    32    3
    27    28    29   ar
    28    29    30   ar
    29    21    22   ar
    30    10     4   ar
    31    22    17   ar
    32    16    11   ar
    33    30    25   ar
    34     1     2    1
    35    23    24    1
@<TRIPOS>MOLECULE
*****
 32 35 0 0 0
SMALL
GASTEIGER

@<TRIPOS>ATOM
      1 N           4.5709   -2.3328   19.3981 N.pl3   1  UNL1       -0.2983
      2 H           4.3486   -3.2300   19.0593 H       1  UNL1        0.1536
      3 C           3.8997   -0.8757   16.8630 C.3     1  UNL1        0.0323
      4 C           3.1925   -0.5260   18.1387 C.ar    1  UNL1       -0.0087
      5 C           2.1497    0.5521   18.1470 C.ar    1  UNL1       -0.0031
      6 C           1.4425    0.9018   19.4228 C.ar    1  UNL1       -0.0004
      7 C           1.7781    0.1733   20.6903 C.ar    1  UNL1       -0.0031
      8 C           2.8209   -0.9049   20.6820 C.ar    1  UNL1       -0.0087
      9 C           3.1565   -1.6334   21.9496 C.3     1  UNL1        0.0323
     10 C           3.5281   -1.2545   19.4063 C.ar    1  UNL1        0.0413
     11 C           0.3996    1.9800   19.4310 C.ar    1  UNL1        0.0031
     12 C          -0.4007    2.2399   20.6727 C.ar    1  UNL1        0.0207
     13 C          -1.4435    3.3180   20.6810 C.ar    1  UNL1        0.0989
     14 N          -1.6860    4.1364   19.4475 N.ar    1  UNL1       -0.2423
     15 C          -0.8857    3.8765   18.2057 C.ar    1  UNL1        0.0989
     16 C           0.1572    2.7983   18.1975 C.ar    1  UNL1        0.0207
     17 C           5.9524   -2.0438   19.9060 C.ar    1  UNL1        0.1366
     18 C           6.4190   -0.6250   20.0447 C.ar    1  UNL1        0.0552
     19 C           7.8005   -0.3360   20.5527 C.ar    1  UNL1        0.1047
     20 N           8.7154   -1.4660   20.9218 N.ar    1  UNL1       -0.2119
     21 C           8.2488   -2.8848   20.7831 C.ar    1  UNL1        0.2218
     22 N           6.8673   -3.1737   20.2752 N.ar    1  UNL1       -0.1985
     23 N           9.1637   -4.0147   21.1523 N.pl3   1  UNL1       -0.2825
     24 H          10.0048   -4.1486   20.6584 H       1  UNL1        0.1551
     25 C           8.7971   -4.9407   22.2740 C.ar    1  UNL1        0.0505
     26 C           9.1864   -6.3879   22.2095 C.ar    1  UNL1        0.0154
     27 C           8.8198   -7.3138   23.3312 C.ar    1  UNL1        0.0115
     28 C           8.0639   -6.7926   24.5174 C.ar    1  UNL1        0.0685
     29 C           7.6747   -5.3454   24.5819 C.ar    1  UNL1        0.0115
     30 C           8.0413   -4.4195   23.4602 C.ar    1  UNL1        0.0154
     31 C           7.6973   -7.7185   25.6392 C.1     1  UNL1        0.1004
     32 N           7.3307   -8.6444   26.7609 N.1     1  UNL1       -0.1908
@<TRIPOS>BOND
     1     3     4    1
     2     4     5   ar
     3     5     6   ar
     4     6    11    1
     5    11    12   ar
     6    12    13   ar
     7    13    14   ar
     8    14    15   ar
     9    15    16   ar
    10     6     7   ar
    11     7     8   ar
    12     8     9    1
    13     8    10   ar
    14    10     1    1
    15     1    17    1
    16    17    18   ar
    17    18    19   ar
    18    19    20   ar
    19    20    21   ar
    20    21    23    1
    21    23    25    1
    22    25    26   ar
    23    26    27   ar
    24    27    28   ar
    25    28    31    1
    26    31    32    3
    27    28    29   ar
    28    29    30   ar
    29    21    22   ar
    30    10     4   ar
    31    22    17   ar
    32    16    11   ar
    33    30    25   ar
    34     1     2    1
    35    23    24    1
@<TRIPOS>MOLECULE
*****
 32 35 0 0 0
SMALL
GASTEIGER

@<TRIPOS>ATOM
      1 N           1.9020    3.9136   20.9000 N.pl3   1  UNL1       -0.2983
      2 H           2.5309    4.6044   21.2108 H       1  UNL1        0.1536
      3 C           3.0264    2.7287   18.3837 C.3     1  UNL1        0.0323
      4 C           2.8851    1.8817   19.6137 C.ar    1  UNL1       -0.0087
      5 C           3.3060    0.4423   19.5854 C.ar    1  UNL1       -0.0031
      6 C           3.1648   -0.4047   20.8154 C.ar    1  UNL1       -0.0004
      7 C           2.6026    0.1877   22.0735 C.ar    1  UNL1       -0.0031
      8 C           2.1817    1.6272   22.1017 C.ar    1  UNL1       -0.0087
      9 C           1.6195    2.2197   23.3599 C.3     1  UNL1        0.0323
     10 C           2.3230    2.4741   20.8718 C.ar    1  UNL1        0.0413
     11 C           3.5857   -1.8442   20.7871 C.ar    1  UNL1        0.0031
     12 C           4.1810   -2.4757   22.0106 C.ar    1  UNL1        0.0207
     13 C           4.6020   -3.9151   21.9824 C.ar    1  UNL1        0.0989
     14 N           4.4276   -4.7231   20.7306 N.ar    1  UNL1       -0.2423
     15 C           3.8322   -4.0917   19.5072 C.ar    1  UNL1        0.0989
     16 C           3.4113   -2.6522   19.5354 C.ar    1  UNL1        0.0207
     17 C           0.5229    4.3006   20.4548 C.ar    1  UNL1        0.1366
     18 C           0.2973    5.6164   19.7706 C.ar    1  UNL1        0.0552
     19 C          -1.0819    6.0034   19.3253 C.ar    1  UNL1        0.1047
     20 N          -2.2353    5.0746   19.5642 N.ar    1  UNL1       -0.2119
     21 C          -2.0096    3.7589   20.2483 C.ar    1  UNL1        0.2218
     22 N          -0.6305    3.3719   20.6935 N.ar    1  UNL1       -0.1985
     23 N          -3.1631    2.8301   20.4871 N.pl3   1  UNL1       -0.2825
     24 H          -3.1313    1.9076   20.1448 H       1  UNL1        0.1551
     25 C          -4.3650    3.3070   21.2474 C.ar    1  UNL1        0.0505
     26 C          -5.5480    3.8608   20.5098 C.ar    1  UNL1        0.0154
     27 C          -6.7498    4.3376   21.2701 C.ar    1  UNL1        0.0115
     28 C          -6.7687    4.2608   22.7681 C.ar    1  UNL1        0.0685
     29 C          -5.5858    3.7070   23.5056 C.ar    1  UNL1        0.0115
     30 C          -4.3839    3.2302   22.7453 C.ar    1  UNL1        0.0154
     31 C          -7.9706    4.7376   23.5284 C.1     1  UNL1        0.1004
     32 N          -9.1725    5.2145   24.2888 N.1     1  UNL1       -0.1908
@<TRIPOS>BOND
     1     3     4    1
     2     4     5   ar
     3     5     6   ar
     4     6    11    1
     5    11    12   ar
     6    12    13   ar
     7    13    14   ar
     8    14    15   ar
     9    15    16   ar
    10     6     7   ar
    11     7     8   ar
    12     8     9    1
    13     8    10   ar
    14    10     1    1
    15     1    17    1
    16    17    18   ar
    17    18    19   ar
    18    19    20   ar
    19    20    21   ar
    20    21    23    1
    21    23    25    1
    22    25    26   ar
    23    26    27   ar
    24    27    28   ar
    25    28    31    1
    26    31    32    3
    27    28    29   ar
    28    29    30   ar
    29    21    22   ar
    30    10     4   ar
    31    22    17   ar
    32    16    11   ar
    33    30    25   ar
    34     1     2    1
    35    23    24    1
@<TRIPOS>MOLECULE
*****
 32 35 0 0 0
SMALL
GASTEIGER

@<TRIPOS>ATOM
      1 N           6.5022   -6.0986   28.0652 N.pl3   1  UNL1       -0.2983
      2 H           5.6376   -6.5491   28.2022 H       1  UNL1        0.1536
      3 C           6.1202   -3.2162   27.3266 C.3     1  UNL1        0.0323
      4 C           6.6977   -4.1758   26.3289 C.ar    1  UNL1       -0.0087
      5 C           7.0842   -3.6943   24.9619 C.ar    1  UNL1       -0.0031
      6 C           7.6618   -4.6540   23.9641 C.ar    1  UNL1       -0.0004
      7 C           7.8528   -6.0952   24.3334 C.ar    1  UNL1       -0.0031
      8 C           7.4663   -6.5767   25.7004 C.ar    1  UNL1       -0.0087
      9 C           7.6573   -8.0180   26.0697 C.3     1  UNL1        0.0323
     10 C           6.8887   -5.6170   26.6981 C.ar    1  UNL1        0.0413
     11 C           8.0483   -4.1724   22.5971 C.ar    1  UNL1        0.0031
     12 C           7.3350   -3.0038   21.9842 C.ar    1  UNL1        0.0207
     13 C           7.7215   -2.5222   20.6172 C.ar    1  UNL1        0.0989
     14 N           8.8213   -3.2092   19.8631 N.ar    1  UNL1       -0.2423
     15 C           9.5345   -4.3777   20.4760 C.ar    1  UNL1        0.0989
     16 C           9.1480   -4.8594   21.8431 C.ar    1  UNL1        0.0207
     17 C           7.4331   -5.8940   29.2234 C.ar    1  UNL1        0.1366
     18 C           8.6031   -6.8125   29.4166 C.ar    1  UNL1        0.0552
     19 C           9.5340   -6.6079   30.5749 C.ar    1  UNL1        0.1047
     20 N           9.2949   -5.4846   31.5399 N.ar    1  UNL1       -0.2119
     21 C           8.1249   -4.5661   31.3467 C.ar    1  UNL1        0.2218
     22 N           7.1940   -4.7708   30.1884 N.ar    1  UNL1       -0.1985
     23 N           7.8857   -3.4429   32.3117 N.pl3   1  UNL1       -0.2825
     24 H           8.5169   -3.2860   33.0507 H       1  UNL1        0.1551
     25 C           6.6847   -2.5587   32.1506 C.ar    1  UNL1        0.0505
     26 C           6.7618   -1.3406   31.2786 C.ar    1  UNL1        0.0154
     27 C           5.5608   -0.4564   31.1176 C.ar    1  UNL1        0.0115
     28 C           4.2829   -0.7903   31.8286 C.ar    1  UNL1        0.0685
     29 C           4.2059   -2.0083   32.7005 C.ar    1  UNL1        0.0115
     30 C           5.4069   -2.8925   32.8616 C.ar    1  UNL1        0.0154
     31 C           3.0819    0.0939   31.6675 C.1     1  UNL1        0.1004
     32 N           1.8810    0.9781   31.5065 N.1     1  UNL1       -0.1908
@<TRIPOS>BOND
     1     3     4    1
     2     4     5   ar
     3     5     6   ar
     4     6    11    1
     5    11    12   ar
     6    12    13   ar
     7    13    14   ar
     8    14    15   ar
     9    15    16   ar
    10     6     7   ar
    11     7     8   ar
    12     8     9    1
    13     8    10   ar
    14    10     1    1
    15     1    17    1
    16    17    18   ar
    17    18    19   ar
    18    19    20   ar
    19    20    21   ar
    20    21    23    1
    21    23    25    1
    22    25    26   ar
    23    26    27   ar
    24    27    28   ar
    25    28    31    1
    26    31    32    3
    27    28    29   ar
    28    29    30   ar
    29    21    22   ar
    30    10     4   ar
    31    22    17   ar
    32    16    11   ar
    33    30    25   ar
    34     1     2    1
    35    23    24    1
@<TRIPOS>MOLECULE
*****
 32 35 0 0 0
SMALL
GASTEIGER

@<TRIPOS>ATOM
      1 N           1.9782    2.3304   26.6936 N.pl3   1  UNL1       -0.2983
      2 H           2.2395    3.2763   26.6141 H       1  UNL1        0.1536
      3 C           0.3517    2.1740   24.1776 C.3     1  UNL1        0.0323
      4 C           1.5404    1.2773   24.3592 C.ar    1  UNL1       -0.0087
      5 C           1.9159    0.3025   23.2828 C.ar    1  UNL1       -0.0031
      6 C           3.1046   -0.5942   23.4644 C.ar    1  UNL1       -0.0004
      7 C           3.9179   -0.5160   24.7223 C.ar    1  UNL1       -0.0031
      8 C           3.5424    0.4589   25.7987 C.ar    1  UNL1       -0.0087
      9 C           4.3556    0.5372   27.0567 C.3     1  UNL1        0.0323
     10 C           2.3537    1.3555   25.6171 C.ar    1  UNL1        0.0413
     11 C           3.4801   -1.5691   22.3879 C.ar    1  UNL1        0.0031
     12 C           3.0275   -1.3389   20.9765 C.ar    1  UNL1        0.0207
     13 C           3.4029   -2.3137   19.9001 C.ar    1  UNL1        0.0989
     14 N           4.2310   -3.5188   20.2350 N.ar    1  UNL1       -0.2423
     15 C           4.6837   -3.7489   21.6465 C.ar    1  UNL1        0.0989
     16 C           4.3082   -2.7740   22.7229 C.ar    1  UNL1        0.0207
     17 C           1.2045    1.8642   27.8911 C.ar    1  UNL1        0.1366
     18 C           0.1852    0.7731   27.7472 C.ar    1  UNL1        0.0552
     19 C          -0.5885    0.3069   28.9447 C.ar    1  UNL1        0.1047
     20 N          -0.3428    0.9316   30.2861 N.ar    1  UNL1       -0.2119
     21 C           0.6766    2.0226   30.4300 C.ar    1  UNL1        0.2218
     22 N           1.4502    2.4888   29.2325 N.ar    1  UNL1       -0.1985
     23 N           0.9223    2.6473   31.7714 N.pl3   1  UNL1       -0.2825
     24 H           0.4381    3.4646   32.0300 H       1  UNL1        0.1551
     25 C           1.9058    2.0268   32.7189 C.ar    1  UNL1        0.0505
     26 C           2.0822    2.5956   34.0957 C.ar    1  UNL1        0.0154
     27 C           3.0657    1.9751   35.0431 C.ar    1  UNL1        0.0115
     28 C           3.8729    0.7858   34.6138 C.ar    1  UNL1        0.0685
     29 C           3.6965    0.2171   33.2371 C.ar    1  UNL1        0.0115
     30 C           2.7129    0.8376   32.2896 C.ar    1  UNL1        0.0154
     31 C           4.8564    0.1653   35.5613 C.1     1  UNL1        0.1004
     32 N           5.8399   -0.4552   36.5087 N.1     1  UNL1       -0.1908
@<TRIPOS>BOND
     1     3     4    1
     2     4     5   ar
     3     5     6   ar
     4     6    11    1
     5    11    12   ar
     6    12    13   ar
     7    13    14   ar
     8    14    15   ar
     9    15    16   ar
    10     6     7   ar
    11     7     8   ar
    12     8     9    1
    13     8    10   ar
    14    10     1    1
    15     1    17    1
    16    17    18   ar
    17    18    19   ar
    18    19    20   ar
    19    20    21   ar
    20    21    23    1
    21    23    25    1
    22    25    26   ar
    23    26    27   ar
    24    27    28   ar
    25    28    31    1
    26    31    32    3
    27    28    29   ar
    28    29    30   ar
    29    21    22   ar
    30    10     4   ar
    31    22    17   ar
    32    16    11   ar
    33    30    25   ar
    34     1     2    1
    35    23    24    1
@<TRIPOS>MOLECULE
*****
 32 35 0 0 0
SMALL
GASTEIGER

@<TRIPOS>ATOM
      1 N          -0.5682    4.7538   23.0674 N.pl3   1  UNL1       -0.2983
      2 H          -0.8054    5.7078   23.1200 H       1  UNL1        0.1536
      3 C          -2.7113    3.4450   24.7089 C.3     1  UNL1        0.0323
      4 C          -1.2761    3.3471   25.1338 C.ar    1  UNL1       -0.0087
      5 C          -0.9124    2.5948   26.3795 C.ar    1  UNL1       -0.0031
      6 C           0.5229    2.4968   26.8044 C.ar    1  UNL1       -0.0004
      7 C           1.5944    3.1512   25.9837 C.ar    1  UNL1       -0.0031
      8 C           1.2307    3.9035   24.7380 C.ar    1  UNL1       -0.0087
      9 C           2.3022    4.5579   23.9172 C.3     1  UNL1        0.0323
     10 C          -0.2046    4.0014   24.3131 C.ar    1  UNL1        0.0413
     11 C           0.8865    1.7445   28.0501 C.ar    1  UNL1        0.0031
     12 C           0.6341    2.3561   29.3963 C.ar    1  UNL1        0.0207
     13 C           0.9977    1.6038   30.6420 C.ar    1  UNL1        0.0989
     14 N           1.6139    0.2398   30.5416 N.ar    1  UNL1       -0.2423
     15 C           1.8664   -0.3718   29.1954 C.ar    1  UNL1        0.0989
     16 C           1.5027    0.3806   27.9497 C.ar    1  UNL1        0.0207
     17 C          -0.5706    4.0525   21.7414 C.ar    1  UNL1        0.1366
     18 C          -0.8487    4.8240   20.4854 C.ar    1  UNL1        0.0552
     19 C          -0.8510    4.1227   19.1594 C.ar    1  UNL1        0.1047
     20 N          -0.5753    2.6498   19.0895 N.ar    1  UNL1       -0.2119
     21 C          -0.2973    1.8784   20.3455 C.ar    1  UNL1        0.2218
     22 N          -0.2949    2.5797   21.6714 N.ar    1  UNL1       -0.1985
     23 N          -0.0216    0.4055   20.2756 N.pl3   1  UNL1       -0.2825
     24 H          -0.6944   -0.2370   20.5974 H       1  UNL1        0.1551
     25 C           1.2793   -0.0882   19.7152 C.ar    1  UNL1        0.0505
     26 C           1.8201    0.4994   18.4454 C.ar    1  UNL1        0.0154
     27 C           3.1210    0.0056   17.8851 C.ar    1  UNL1        0.0115
     28 C           3.8811   -1.0756   18.5946 C.ar    1  UNL1        0.0685
     29 C           3.3402   -1.6631   19.8643 C.ar    1  UNL1        0.0115
     30 C           2.0394   -1.1694   20.4247 C.ar    1  UNL1        0.0154
     31 C           5.1819   -1.5693   18.0342 C.1     1  UNL1        0.1004
     32 N           6.4828   -2.0630   17.4739 N.1     1  UNL1       -0.1908
@<TRIPOS>BOND
     1     3     4    1
     2     4     5   ar
     3     5     6   ar
     4     6    11    1
     5    11    12   ar
     6    12    13   ar
     7    13    14   ar
     8    14    15   ar
     9    15    16   ar
    10     6     7   ar
    11     7     8   ar
    12     8     9    1
    13     8    10   ar
    14    10     1    1
    15     1    17    1
    16    17    18   ar
    17    18    19   ar
    18    19    20   ar
    19    20    21   ar
    20    21    23    1
    21    23    25    1
    22    25    26   ar
    23    26    27   ar
    24    27    28   ar
    25    28    31    1
    26    31    32    3
    27    28    29   ar
    28    29    30   ar
    29    21    22   ar
    30    10     4   ar
    31    22    17   ar
    32    16    11   ar
    33    30    25   ar
    34     1     2    1
    35    23    24    1
