@<TRIPOS>MOLECULE
*****
 34 38 0 0 0
SMALL
GASTEIGER

@<TRIPOS>ATOM
      1 N          -8.3514  -17.8427   22.9730 N.3     1  UNL1       -0.2641
      2 C          -9.8413  -17.9200   23.1281 C.3     1  UNL1        0.0981
      3 C         -10.4367  -18.6255   24.3103 C.3     1  UNL1        0.0224
      4 C         -11.9266  -18.7028   24.4654 C.3     1  UNL1        0.0065
      5 C         -12.8212  -18.0746   23.4383 C.3     1  UNL1        0.0277
      6 C         -12.2259  -17.3690   22.2561 C.ar    1  UNL1       -0.0073
      7 C         -13.1205  -16.7407   21.2290 C.ar    1  UNL1       -0.0015
      8 C         -12.5251  -16.0351   20.0468 C.ar    1  UNL1        0.0203
      9 C         -11.0351  -15.9578   19.8916 C.ar    1  UNL1        0.0985
     10 N         -10.1405  -16.5861   20.9187 N.ar    1  UNL1       -0.2471
     11 C         -10.7359  -17.2917   22.1010 C.ar    1  UNL1        0.0695
     12 C          -7.6443  -16.5337   23.1643 C.3     1  UNL1        0.0992
     13 C          -5.9267  -15.6036   24.8774 C.ar    1  UNL1       -0.0093
     14 C          -5.6020  -15.1217   26.2603 C.ar    1  UNL1       -0.0032
     15 C          -6.6702  -15.0879   27.3129 C.ar    1  UNL1       -0.0003
     16 C          -8.0630  -15.5361   26.9826 C.ar    1  UNL1       -0.0003
     17 C          -8.3877  -16.0180   25.5997 C.ar    1  UNL1       -0.0032
     18 C          -7.3196  -16.0518   24.5472 C.ar    1  UNL1       -0.0088
     19 N          -4.7170  -14.4950   22.8632 N.3     1  UNL1       -0.3175
     20 C          -4.8586  -15.6374   23.8249 C.3     1  UNL1        0.0919
     21 H          -3.9466  -14.6839   22.2219 H       1  UNL1        0.1192
     22 H          -4.5262  -13.6368   23.3804 H       1  UNL1        0.1192
     23 C          -7.5685  -19.0743   22.6265 C.3     1  UNL1        0.0888
     24 C          -6.3395  -18.9665   21.7731 C.3     1  UNL1        0.0748
     25 C          -4.9905  -18.8305   22.4147 C.3     1  UNL1        0.0432
     26 C          -3.7616  -18.7227   21.5613 C.ar    1  UNL1       -0.0234
     27 C          -2.4126  -18.5866   22.2029 C.ar    1  UNL1       -0.0045
     28 C          -1.1838  -18.4788   21.3495 C.ar    1  UNL1       -0.0003
     29 C          -1.3039  -18.5071   19.8546 C.ar    1  UNL1       -0.0003
     30 C          -2.6529  -18.6432   19.2130 C.ar    1  UNL1       -0.0032
     31 C          -3.8817  -18.7510   20.0664 C.ar    1  UNL1       -0.0103
     32 C          -5.2308  -18.8871   19.4249 C.3     1  UNL1        0.0953
     33 N          -6.4597  -18.9948   20.2782 N.3     1  UNL1       -0.2934
     34 H          -6.9101  -19.8773   20.0357 H       1  UNL1        0.1236
@<TRIPOS>BOND
     1    19    20    1
     2    20    13    1
     3    13    14   ar
     4    14    15   ar
     5    15    16   ar
     6    16    17   ar
     7    17    18   ar
     8    18    12    1
     9    12     1    1
    10     1    23    1
    11    24    23    1
    12    24    25    1
    13    25    26    1
    14    26    27   ar
    15    27    28   ar
    16    28    29   ar
    17    29    30   ar
    18    30    31   ar
    19    31    32    1
    20    32    33    1
    21     2     1    1
    22     2     3    1
    23     3     4    1
    24     4     5    1
    25     5     6    1
    26     6     7   ar
    27     7     8   ar
    28     8     9   ar
    29     9    10   ar
    30    10    11   ar
    31    18    13   ar
    32    33    24    1
    33    11     2    1
    34    31    26   ar
    35    11     6   ar
    36    19    21    1
    37    19    22    1
    38    33    34    1
@<TRIPOS>MOLECULE
*****
 34 38 0 0 0
SMALL
GASTEIGER

@<TRIPOS>ATOM
      1 N          -8.5977  -17.0585   22.4713 N.3     1  UNL1       -0.2641
      2 C         -10.0396  -16.9360   22.0764 C.3     1  UNL1        0.0981
      3 C         -10.4116  -16.2360   20.8030 C.3     1  UNL1        0.0224
      4 C         -11.8535  -16.1135   20.4081 C.3     1  UNL1        0.0065
      5 C         -12.9234  -16.6910   21.2865 C.3     1  UNL1        0.0277
      6 C         -12.5514  -17.3910   22.5599 C.ar    1  UNL1       -0.0073
      7 C         -13.6213  -17.9685   23.4385 C.ar    1  UNL1       -0.0015
      8 C         -13.2494  -18.6686   24.7119 C.ar    1  UNL1        0.0203
      9 C         -11.8075  -18.7911   25.1068 C.ar    1  UNL1        0.0985
     10 N         -10.7376  -18.2136   24.2283 N.ar    1  UNL1       -0.2471
     11 C         -11.1095  -17.5135   22.9549 C.ar    1  UNL1        0.0695
     12 C          -7.8400  -15.8476   22.9289 C.3     1  UNL1        0.0992
     13 C          -6.0626  -15.5638   24.8026 C.ar    1  UNL1       -0.0093
     14 C          -5.7197  -15.3976   26.2534 C.ar    1  UNL1       -0.0032
     15 C          -6.8111  -15.3489   27.2813 C.ar    1  UNL1       -0.0003
     16 C          -8.2454  -15.4665   26.8583 C.ar    1  UNL1       -0.0003
     17 C          -8.5884  -15.6327   25.4075 C.ar    1  UNL1       -0.0032
     18 C          -7.4970  -15.6814   24.3797 C.ar    1  UNL1       -0.0088
     19 N          -4.7480  -14.4434   22.8620 N.3     1  UNL1       -0.3175
     20 C          -4.9713  -15.6125   23.7748 C.3     1  UNL1        0.0919
     21 H          -3.9721  -14.6471   22.2320 H       1  UNL1        0.1192
     22 H          -4.5274  -13.6163   23.4166 H       1  UNL1        0.1192
     23 C          -7.9136  -18.3919   22.4087 C.3     1  UNL1        0.0888
     24 C          -6.6271  -18.5400   21.6517 C.3     1  UNL1        0.0748
     25 C          -5.3201  -18.5435   22.3876 C.3     1  UNL1        0.0432
     26 C          -4.0335  -18.6916   21.6307 C.ar    1  UNL1       -0.0234
     27 C          -2.7265  -18.6951   22.3666 C.ar    1  UNL1       -0.0045
     28 C          -1.4400  -18.8432   21.6096 C.ar    1  UNL1       -0.0003
     29 C          -1.4606  -18.9878   20.1167 C.ar    1  UNL1       -0.0003
     30 C          -2.7676  -18.9843   19.3808 C.ar    1  UNL1       -0.0032
     31 C          -4.0541  -18.8362   20.1378 C.ar    1  UNL1       -0.0103
     32 C          -5.3612  -18.8328   19.4019 C.3     1  UNL1        0.0953
     33 N          -6.6477  -18.6847   20.1589 N.3     1  UNL1       -0.2934
     34 H          -7.2085  -19.5108   19.9508 H       1  UNL1        0.1236
@<TRIPOS>BOND
     1    19    20    1
     2    20    13    1
     3    13    14   ar
     4    14    15   ar
     5    15    16   ar
     6    16    17   ar
     7    17    18   ar
     8    18    12    1
     9    12     1    1
    10     1    23    1
    11    24    23    1
    12    24    25    1
    13    25    26    1
    14    26    27   ar
    15    27    28   ar
    16    28    29   ar
    17    29    30   ar
    18    30    31   ar
    19    31    32    1
    20    32    33    1
    21     2     1    1
    22     2     3    1
    23     3     4    1
    24     4     5    1
    25     5     6    1
    26     6     7   ar
    27     7     8   ar
    28     8     9   ar
    29     9    10   ar
    30    10    11   ar
    31    18    13   ar
    32    33    24    1
    33    11     2    1
    34    31    26   ar
    35    11     6   ar
    36    19    21    1
    37    19    22    1
    38    33    34    1
@<TRIPOS>MOLECULE
*****
 34 38 0 0 0
SMALL
GASTEIGER

@<TRIPOS>ATOM
      1 N          -7.4457  -17.8385   22.4003 N.3     1  UNL1       -0.2641
      2 C          -8.5049  -18.3540   21.4718 C.3     1  UNL1        0.0981
      3 C          -8.1166  -19.1267   20.2462 C.3     1  UNL1        0.0224
      4 C          -9.1759  -19.6422   19.3176 C.3     1  UNL1        0.0065
      5 C         -10.6235  -19.3850   19.6146 C.3     1  UNL1        0.0277
      6 C         -11.0118  -18.6123   20.8402 C.ar    1  UNL1       -0.0073
      7 C         -12.4595  -18.3550   21.1373 C.ar    1  UNL1       -0.0015
      8 C         -12.8478  -17.5824   22.3629 C.ar    1  UNL1        0.0203
      9 C         -11.7885  -17.0669   23.2914 C.ar    1  UNL1        0.0985
     10 N         -10.3409  -17.3241   22.9944 N.ar    1  UNL1       -0.2471
     11 C          -9.9525  -18.0968   21.7688 C.ar    1  UNL1        0.0695
     12 C          -7.4922  -16.4166   22.8755 C.3     1  UNL1        0.0992
     13 C          -5.9488  -15.6351   24.8139 C.ar    1  UNL1       -0.0093
     14 C          -5.7450  -15.3228   26.2668 C.ar    1  UNL1       -0.0032
     15 C          -6.8806  -15.4797   27.2342 C.ar    1  UNL1       -0.0003
     16 C          -8.2201  -15.9489   26.7487 C.ar    1  UNL1       -0.0003
     17 C          -8.4239  -16.2612   25.2958 C.ar    1  UNL1       -0.0032
     18 C          -7.2883  -16.1043   24.3284 C.ar    1  UNL1       -0.0088
     19 N          -4.8390  -14.3731   22.8327 N.3     1  UNL1       -0.3175
     20 C          -4.8132  -15.4782   23.8466 C.3     1  UNL1        0.0919
     21 H          -3.9946  -14.4155   22.2621 H       1  UNL1        0.1192
     22 H          -4.8810  -13.4734   23.3115 H       1  UNL1        0.1192
     23 C          -6.3399  -18.7450   22.8537 C.3     1  UNL1        0.0888
     24 C          -5.0573  -18.8091   22.0786 C.3     1  UNL1        0.0748
     25 C          -4.0958  -17.6587   22.1230 C.3     1  UNL1        0.0432
     26 C          -2.8131  -17.7228   21.3480 C.ar    1  UNL1       -0.0234
     27 C          -1.8517  -16.5723   21.3924 C.ar    1  UNL1       -0.0045
     28 C          -0.5691  -16.6365   20.6173 C.ar    1  UNL1       -0.0003
     29 C          -0.2479  -17.8511   19.7979 C.ar    1  UNL1       -0.0003
     30 C          -1.2093  -19.0016   19.7535 C.ar    1  UNL1       -0.0032
     31 C          -2.4920  -18.9374   20.5285 C.ar    1  UNL1       -0.0103
     32 C          -3.4535  -20.0879   20.4841 C.3     1  UNL1        0.0953
     33 N          -4.7361  -20.0238   21.2592 N.3     1  UNL1       -0.2934
     34 H          -4.7336  -20.8183   21.8988 H       1  UNL1        0.1236
@<TRIPOS>BOND
     1    19    20    1
     2    20    13    1
     3    13    14   ar
     4    14    15   ar
     5    15    16   ar
     6    16    17   ar
     7    17    18   ar
     8    18    12    1
     9    12     1    1
    10     1    23    1
    11    24    23    1
    12    24    25    1
    13    25    26    1
    14    26    27   ar
    15    27    28   ar
    16    28    29   ar
    17    29    30   ar
    18    30    31   ar
    19    31    32    1
    20    32    33    1
    21     2     1    1
    22     2     3    1
    23     3     4    1
    24     4     5    1
    25     5     6    1
    26     6     7   ar
    27     7     8   ar
    28     8     9   ar
    29     9    10   ar
    30    10    11   ar
    31    18    13   ar
    32    33    24    1
    33    11     2    1
    34    31    26   ar
    35    11     6   ar
    36    19    21    1
    37    19    22    1
    38    33    34    1
@<TRIPOS>MOLECULE
*****
 34 38 0 0 0
SMALL
GASTEIGER

@<TRIPOS>ATOM
      1 N          -7.4721  -17.7280   22.3730 N.3     1  UNL1       -0.2641
      2 C          -8.4808  -18.2265   21.3810 C.3     1  UNL1        0.0981
      3 C          -8.1089  -19.3108   20.4136 C.3     1  UNL1        0.0224
      4 C          -9.1176  -19.8094   19.4217 C.3     1  UNL1        0.0065
      5 C         -10.4983  -19.2236   19.3971 C.3     1  UNL1        0.0277
      6 C         -10.8702  -18.1392   20.3645 C.ar    1  UNL1       -0.0073
      7 C         -12.2509  -17.5534   20.3400 C.ar    1  UNL1       -0.0015
      8 C         -12.6228  -16.4690   21.3073 C.ar    1  UNL1        0.0203
      9 C         -11.6141  -15.9705   22.2993 C.ar    1  UNL1        0.0985
     10 N         -10.2334  -16.5563   22.3239 N.ar    1  UNL1       -0.2471
     11 C          -9.8615  -17.6407   21.3565 C.ar    1  UNL1        0.0695
     12 C          -7.5626  -16.3242   22.8936 C.3     1  UNL1        0.0992
     13 C          -8.1580  -16.3605   25.4223 C.ar    1  UNL1       -0.0093
     14 C          -7.7941  -16.0640   26.8470 C.ar    1  UNL1       -0.0032
     15 C          -6.4707  -15.4347   27.1676 C.ar    1  UNL1       -0.0003
     16 C          -5.5114  -15.1019   26.0635 C.ar    1  UNL1       -0.0003
     17 C          -5.8753  -15.3984   24.6389 C.ar    1  UNL1       -0.0032
     18 C          -7.1986  -16.0277   24.3183 C.ar    1  UNL1       -0.0088
     19 N          -9.5734  -18.4703   24.8790 N.3     1  UNL1       -0.3175
     20 C          -9.4813  -16.9898   25.1017 C.3     1  UNL1        0.0919
     21 H         -10.5399  -18.7238   24.6736 H       1  UNL1        0.1192
     22 H          -9.2645  -18.9603   25.7186 H       1  UNL1        0.1192
     23 C          -6.3729  -18.6332   22.8443 C.3     1  UNL1        0.0888
     24 C          -4.9638  -18.4049   22.3835 C.3     1  UNL1        0.0748
     25 C          -4.6239  -18.5151   20.9267 C.3     1  UNL1        0.0432
     26 C          -3.2147  -18.2868   20.4659 C.ar    1  UNL1       -0.0234
     27 C          -2.8748  -18.3971   19.0091 C.ar    1  UNL1       -0.0045
     28 C          -1.4658  -18.1687   18.5484 C.ar    1  UNL1       -0.0003
     29 C          -0.3966  -17.8300   19.5445 C.ar    1  UNL1       -0.0003
     30 C          -0.7365  -17.7197   21.0013 C.ar    1  UNL1       -0.0032
     31 C          -2.1455  -17.9481   21.4620 C.ar    1  UNL1       -0.0103
     32 C          -2.4855  -17.8378   22.9188 C.3     1  UNL1        0.0953
     33 N          -3.8946  -18.0662   23.3796 N.3     1  UNL1       -0.2934
     34 H          -4.1920  -17.2125   23.8519 H       1  UNL1        0.1236
@<TRIPOS>BOND
     1    19    20    1
     2    20    13    1
     3    13    14   ar
     4    14    15   ar
     5    15    16   ar
     6    16    17   ar
     7    17    18   ar
     8    18    12    1
     9    12     1    1
    10     1    23    1
    11    24    23    1
    12    24    25    1
    13    25    26    1
    14    26    27   ar
    15    27    28   ar
    16    28    29   ar
    17    29    30   ar
    18    30    31   ar
    19    31    32    1
    20    32    33    1
    21     2     1    1
    22     2     3    1
    23     3     4    1
    24     4     5    1
    25     5     6    1
    26     6     7   ar
    27     7     8   ar
    28     8     9   ar
    29     9    10   ar
    30    10    11   ar
    31    18    13   ar
    32    33    24    1
    33    11     2    1
    34    31    26   ar
    35    11     6   ar
    36    19    21    1
    37    19    22    1
    38    33    34    1
@<TRIPOS>MOLECULE
*****
 34 38 0 0 0
SMALL
GASTEIGER

@<TRIPOS>ATOM
      1 N          -7.5861  -18.7770   21.8338 N.3     1  UNL1       -0.2641
      2 C          -6.4773  -19.5112   21.1398 C.3     1  UNL1        0.0981
      3 C          -6.7956  -20.5099   20.0669 C.3     1  UNL1        0.0224
      4 C          -5.6868  -21.2441   19.3729 C.3     1  UNL1        0.0065
      5 C          -4.2598  -20.9795   19.7518 C.3     1  UNL1        0.0277
      6 C          -3.9416  -19.9807   20.8247 C.ar    1  UNL1       -0.0073
      7 C          -2.5145  -19.7161   21.2037 C.ar    1  UNL1       -0.0015
      8 C          -2.1963  -18.7173   22.2766 C.ar    1  UNL1        0.0203
      9 C          -3.3050  -17.9831   22.9706 C.ar    1  UNL1        0.0985
     10 N          -4.7320  -18.2477   22.5917 N.ar    1  UNL1       -0.2471
     11 C          -5.0503  -19.2466   21.5187 C.ar    1  UNL1        0.0695
     12 C          -8.7039  -19.5420   22.4782 C.3     1  UNL1        0.0992
     13 C         -10.8608  -18.8096   23.7278 C.ar    1  UNL1       -0.0093
     14 C         -12.2579  -18.2643   23.6976 C.ar    1  UNL1       -0.0032
     15 C         -12.8950  -17.9060   22.3877 C.ar    1  UNL1       -0.0003
     16 C         -12.1351  -18.0930   21.1081 C.ar    1  UNL1       -0.0003
     17 C         -10.7381  -18.6383   21.1383 C.ar    1  UNL1       -0.0032
     18 C         -10.1009  -18.9966   22.4481 C.ar    1  UNL1       -0.0088
     19 N         -10.1077  -20.6064   25.4465 N.3     1  UNL1       -0.3175
     20 C         -10.2237  -19.1679   25.0376 C.3     1  UNL1        0.0919
     21 H          -9.6527  -20.6653   26.3575 H       1  UNL1        0.1192
     22 H          -9.5531  -21.1125   24.7561 H       1  UNL1        0.1192
     23 C          -7.5771  -17.2779   21.8834 C.3     1  UNL1        0.0888
     24 C          -7.1999  -16.5716   23.1519 C.3     1  UNL1        0.0748
     25 C          -8.1847  -16.4779   24.2794 C.3     1  UNL1        0.0432
     26 C          -7.8075  -15.7717   25.5479 C.ar    1  UNL1       -0.0234
     27 C          -8.7922  -15.6779   26.6755 C.ar    1  UNL1       -0.0045
     28 C          -8.4150  -14.9717   27.9439 C.ar    1  UNL1       -0.0003
     29 C          -7.0530  -14.3592   28.0848 C.ar    1  UNL1       -0.0003
     30 C          -6.0683  -14.4530   26.9572 C.ar    1  UNL1       -0.0032
     31 C          -6.4455  -15.1592   25.6888 C.ar    1  UNL1       -0.0103
     32 C          -5.4607  -15.2529   24.5612 C.3     1  UNL1        0.0953
     33 N          -5.8379  -15.9592   23.2928 N.3     1  UNL1       -0.2934
     34 H          -5.1618  -16.7116   23.1624 H       1  UNL1        0.1236
@<TRIPOS>BOND
     1    19    20    1
     2    20    13    1
     3    13    14   ar
     4    14    15   ar
     5    15    16   ar
     6    16    17   ar
     7    17    18   ar
     8    18    12    1
     9    12     1    1
    10     1    23    1
    11    24    23    1
    12    24    25    1
    13    25    26    1
    14    26    27   ar
    15    27    28   ar
    16    28    29   ar
    17    29    30   ar
    18    30    31   ar
    19    31    32    1
    20    32    33    1
    21     2     1    1
    22     2     3    1
    23     3     4    1
    24     4     5    1
    25     5     6    1
    26     6     7   ar
    27     7     8   ar
    28     8     9   ar
    29     9    10   ar
    30    10    11   ar
    31    18    13   ar
    32    33    24    1
    33    11     2    1
    34    31    26   ar
    35    11     6   ar
    36    19    21    1
    37    19    22    1
    38    33    34    1
@<TRIPOS>MOLECULE
*****
 34 38 0 0 0
SMALL
GASTEIGER

@<TRIPOS>ATOM
      1 N          -8.0681  -18.9916   22.1145 N.3     1  UNL1       -0.2641
      2 C          -8.4534  -18.4904   23.4748 C.3     1  UNL1        0.0981
      3 C          -9.5468  -19.1716   24.2431 C.3     1  UNL1        0.0224
      4 C          -9.9321  -18.6705   25.6033 C.3     1  UNL1        0.0065
      5 C          -9.2240  -17.4881   26.1953 C.3     1  UNL1        0.0277
      6 C          -8.1306  -16.8068   25.4270 C.ar    1  UNL1       -0.0073
      7 C          -7.4225  -15.6244   26.0190 C.ar    1  UNL1       -0.0015
      8 C          -6.3291  -14.9431   25.2507 C.ar    1  UNL1        0.0203
      9 C          -5.9438  -15.4443   23.8904 C.ar    1  UNL1        0.0985
     10 N          -6.6518  -16.6267   23.2984 N.ar    1  UNL1       -0.2471
     11 C          -7.7453  -17.3080   24.0667 C.ar    1  UNL1        0.0695
     12 C          -8.8377  -18.5477   20.9059 C.3     1  UNL1        0.0992
     13 C         -10.3004  -16.4249   21.2293 C.ar    1  UNL1       -0.0093
     14 C         -11.6493  -15.7891   21.3910 C.ar    1  UNL1       -0.0032
     15 C         -12.8845  -16.6402   21.3908 C.ar    1  UNL1       -0.0003
     16 C         -12.7707  -18.1271   21.2290 C.ar    1  UNL1       -0.0003
     17 C         -11.4218  -18.7629   21.0674 C.ar    1  UNL1       -0.0032
     18 C         -10.1866  -17.9119   21.0675 C.ar    1  UNL1       -0.0088
     19 N          -9.0493  -14.2750   20.4795 N.3     1  UNL1       -0.3175
     20 C          -9.0652  -15.5739   21.2295 C.3     1  UNL1        0.0919
     21 H          -8.1372  -13.8313   20.5872 H       1  UNL1        0.1192
     22 H          -9.7729  -13.6592   20.8507 H       1  UNL1        0.1192
     23 C          -6.9132  -19.9366   21.9627 C.3     1  UNL1        0.0888
     24 C          -5.5261  -19.4003   21.7665 C.3     1  UNL1        0.0748
     25 C          -4.9680  -19.2523   20.3821 C.3     1  UNL1        0.0432
     26 C          -3.5809  -18.7161   20.1859 C.ar    1  UNL1       -0.0234
     27 C          -3.0229  -18.5681   18.8015 C.ar    1  UNL1       -0.0045
     28 C          -1.6359  -18.0319   18.6053 C.ar    1  UNL1       -0.0003
     29 C          -0.8068  -17.6436   19.7936 C.ar    1  UNL1       -0.0003
     30 C          -1.3648  -17.7916   21.1780 C.ar    1  UNL1       -0.0032
     31 C          -2.7519  -18.3278   21.3742 C.ar    1  UNL1       -0.0103
     32 C          -3.3100  -18.4758   22.7587 C.3     1  UNL1        0.0953
     33 N          -4.6970  -19.0121   22.9548 N.3     1  UNL1       -0.2934
     34 H          -5.2210  -18.2962   23.4582 H       1  UNL1        0.1236
@<TRIPOS>BOND
     1    19    20    1
     2    20    13    1
     3    13    14   ar
     4    14    15   ar
     5    15    16   ar
     6    16    17   ar
     7    17    18   ar
     8    18    12    1
     9    12     1    1
    10     1    23    1
    11    24    23    1
    12    24    25    1
    13    25    26    1
    14    26    27   ar
    15    27    28   ar
    16    28    29   ar
    17    29    30   ar
    18    30    31   ar
    19    31    32    1
    20    32    33    1
    21     2     1    1
    22     2     3    1
    23     3     4    1
    24     4     5    1
    25     5     6    1
    26     6     7   ar
    27     7     8   ar
    28     8     9   ar
    29     9    10   ar
    30    10    11   ar
    31    18    13   ar
    32    33    24    1
    33    11     2    1
    34    31    26   ar
    35    11     6   ar
    36    19    21    1
    37    19    22    1
    38    33    34    1
@<TRIPOS>MOLECULE
*****
 34 38 0 0 0
SMALL
GASTEIGER

@<TRIPOS>ATOM
      1 N          -7.7670  -17.7521   22.7086 N.3     1  UNL1       -0.2641
      2 C          -9.1470  -18.0529   22.2035 C.3     1  UNL1        0.0981
      3 C         -10.3452  -17.6595   23.0156 C.3     1  UNL1        0.0224
      4 C         -11.7252  -17.9602   22.5106 C.3     1  UNL1        0.0065
      5 C         -11.9071  -18.6544   21.1934 C.3     1  UNL1        0.0277
      6 C         -10.7089  -19.0478   20.3813 C.ar    1  UNL1       -0.0073
      7 C         -10.8907  -19.7420   19.0640 C.ar    1  UNL1       -0.0015
      8 C          -9.6925  -20.1354   18.2519 C.ar    1  UNL1        0.0203
      9 C          -8.3125  -19.8346   18.7569 C.ar    1  UNL1        0.0985
     10 N          -8.1307  -19.1405   20.0741 N.ar    1  UNL1       -0.2471
     11 C          -9.3289  -18.7470   20.8863 C.ar    1  UNL1        0.0695
     12 C          -7.3934  -16.3473   23.0786 C.3     1  UNL1        0.0992
     13 C          -5.8623  -15.4673   24.9843 C.ar    1  UNL1       -0.0093
     14 C          -5.6623  -15.0991   26.4245 C.ar    1  UNL1       -0.0032
     15 C          -6.7933  -15.2426   27.3994 C.ar    1  UNL1       -0.0003
     16 C          -8.1242  -15.7543   26.9340 C.ar    1  UNL1       -0.0003
     17 C          -8.3243  -16.1226   25.4938 C.ar    1  UNL1       -0.0032
     18 C          -7.1934  -15.9791   24.5189 C.ar    1  UNL1       -0.0088
     19 N          -4.8646  -14.3971   22.8375 N.3     1  UNL1       -0.3175
     20 C          -4.7314  -15.3238   24.0094 C.3     1  UNL1        0.0919
     21 H          -4.0082  -14.4238   22.2839 H       1  UNL1        0.1192
     22 H          -5.0237  -13.4467   23.1719 H       1  UNL1        0.1192
     23 C          -6.7606  -18.8561   22.8436 C.3     1  UNL1        0.0888
     24 C          -5.3442  -18.6382   22.4004 C.3     1  UNL1        0.0748
     25 C          -5.0085  -18.6311   20.9385 C.3     1  UNL1        0.0432
     26 C          -3.5921  -18.4132   20.4952 C.ar    1  UNL1       -0.0234
     27 C          -3.2564  -18.4061   19.0333 C.ar    1  UNL1       -0.0045
     28 C          -1.8401  -18.1882   18.5901 C.ar    1  UNL1       -0.0003
     29 C          -0.7595  -17.9774   19.6088 C.ar    1  UNL1       -0.0003
     30 C          -1.0952  -17.9845   21.0707 C.ar    1  UNL1       -0.0032
     31 C          -2.5115  -18.2024   21.5139 C.ar    1  UNL1       -0.0103
     32 C          -2.8473  -18.2095   22.9759 C.3     1  UNL1        0.0953
     33 N          -4.2636  -18.4274   23.4191 N.3     1  UNL1       -0.2934
     34 H          -4.5302  -17.6088   23.9660 H       1  UNL1        0.1236
@<TRIPOS>BOND
     1    19    20    1
     2    20    13    1
     3    13    14   ar
     4    14    15   ar
     5    15    16   ar
     6    16    17   ar
     7    17    18   ar
     8    18    12    1
     9    12     1    1
    10     1    23    1
    11    24    23    1
    12    24    25    1
    13    25    26    1
    14    26    27   ar
    15    27    28   ar
    16    28    29   ar
    17    29    30   ar
    18    30    31   ar
    19    31    32    1
    20    32    33    1
    21     2     1    1
    22     2     3    1
    23     3     4    1
    24     4     5    1
    25     5     6    1
    26     6     7   ar
    27     7     8   ar
    28     8     9   ar
    29     9    10   ar
    30    10    11   ar
    31    18    13   ar
    32    33    24    1
    33    11     2    1
    34    31    26   ar
    35    11     6   ar
    36    19    21    1
    37    19    22    1
    38    33    34    1
@<TRIPOS>MOLECULE
*****
 34 38 0 0 0
SMALL
GASTEIGER

@<TRIPOS>ATOM
      1 N          -5.7937  -18.2375   22.2433 N.3     1  UNL1       -0.2641
      2 C          -4.8134  -18.8908   21.3147 C.3     1  UNL1        0.0981
      3 C          -5.1642  -20.1858   20.6440 C.3     1  UNL1        0.0224
      4 C          -4.1839  -20.8391   19.7154 C.3     1  UNL1        0.0065
      5 C          -2.8528  -20.1975   19.4577 C.3     1  UNL1        0.0277
      6 C          -2.5021  -18.9025   20.1284 C.ar    1  UNL1       -0.0073
      7 C          -1.1709  -18.2608   19.8706 C.ar    1  UNL1       -0.0015
      8 C          -0.8202  -16.9658   20.5414 C.ar    1  UNL1        0.0203
      9 C          -1.8005  -16.3125   21.4699 C.ar    1  UNL1        0.0985
     10 N          -3.1315  -16.9541   21.7277 N.ar    1  UNL1       -0.2471
     11 C          -3.4824  -18.2492   21.0569 C.ar    1  UNL1        0.0695
     12 C          -5.6711  -16.7755   22.5556 C.3     1  UNL1        0.0992
     13 C          -7.3903  -15.6154   24.1205 C.ar    1  UNL1       -0.0093
     14 C          -7.7729  -15.1038   25.4776 C.ar    1  UNL1       -0.0032
     15 C          -6.8189  -15.2406   26.6271 C.ar    1  UNL1       -0.0003
     16 C          -5.4824  -15.8891   26.4193 C.ar    1  UNL1       -0.0003
     17 C          -5.0998  -16.4007   25.0622 C.ar    1  UNL1       -0.0032
     18 C          -6.0537  -16.2639   23.9128 C.ar    1  UNL1       -0.0088
     19 N          -7.9232  -14.7495   21.7297 N.3     1  UNL1       -0.3175
     20 C          -8.3443  -15.4786   22.9710 C.3     1  UNL1        0.0919
     21 H          -8.6898  -14.7528   21.0569 H       1  UNL1        0.1192
     22 H          -7.1111  -15.2129   21.3221 H       1  UNL1        0.1192
     23 C          -6.8966  -19.0461   22.8594 C.3     1  UNL1        0.0888
     24 C          -8.3268  -18.7423   22.5241 C.3     1  UNL1        0.0748
     25 C          -9.3725  -18.7753   23.5990 C.3     1  UNL1        0.0432
     26 C         -10.8027  -18.4715   23.2636 C.ar    1  UNL1       -0.0234
     27 C         -11.8483  -18.5045   24.3385 C.ar    1  UNL1       -0.0045
     28 C         -13.2784  -18.2007   24.0031 C.ar    1  UNL1       -0.0003
     29 C         -13.6628  -17.8639   22.5929 C.ar    1  UNL1       -0.0003
     30 C         -12.6171  -17.8310   21.5180 C.ar    1  UNL1       -0.0032
     31 C         -11.1871  -18.1348   21.8534 C.ar    1  UNL1       -0.0103
     32 C         -10.1413  -18.1018   20.7785 C.3     1  UNL1        0.0953
     33 N          -8.7112  -18.4056   21.1138 N.3     1  UNL1       -0.2934
     34 H          -8.1658  -17.5857   20.8478 H       1  UNL1        0.1236
@<TRIPOS>BOND
     1    19    20    1
     2    20    13    1
     3    13    14   ar
     4    14    15   ar
     5    15    16   ar
     6    16    17   ar
     7    17    18   ar
     8    18    12    1
     9    12     1    1
    10     1    23    1
    11    24    23    1
    12    24    25    1
    13    25    26    1
    14    26    27   ar
    15    27    28   ar
    16    28    29   ar
    17    29    30   ar
    18    30    31   ar
    19    31    32    1
    20    32    33    1
    21     2     1    1
    22     2     3    1
    23     3     4    1
    24     4     5    1
    25     5     6    1
    26     6     7   ar
    27     7     8   ar
    28     8     9   ar
    29     9    10   ar
    30    10    11   ar
    31    18    13   ar
    32    33    24    1
    33    11     2    1
    34    31    26   ar
    35    11     6   ar
    36    19    21    1
    37    19    22    1
    38    33    34    1
