@<TRIPOS>MOLECULE
*****
 27 31 0 0 0
SMALL
GASTEIGER

@<TRIPOS>ATOM
      1 C          -6.7498  -17.6504   22.8662 C.3     1  UNL1        0.0545
      2 C          -6.2939  -16.7971   24.0126 C.ar    1  UNL1       -0.0179
      3 C          -7.4285  -16.0043   24.5907 C.ar    1  UNL1       -0.0039
      4 C          -7.1860  -15.0837   25.7498 C.ar    1  UNL1       -0.0003
      5 C          -5.8090  -14.9558   26.3308 C.ar    1  UNL1       -0.0000
      6 C          -4.6745  -15.7485   25.7527 C.ar    1  UNL1       -0.0003
      7 C          -4.9169  -16.6692   24.5936 C.ar    1  UNL1       -0.0037
      8 C          -3.6557  -17.3630   24.1716 C.2     1  UNL1       -0.0003
      9 C          -3.4599  -18.3560   23.0645 C.2     1  UNL1       -0.0003
     10 C          -4.4771  -18.9004   22.1059 C.ar    1  UNL1       -0.0037
     11 C          -3.8606  -19.8774   21.1491 C.ar    1  UNL1       -0.0003
     12 C          -4.7082  -20.5404   20.1041 C.ar    1  UNL1       -0.0000
     13 C          -6.1723  -20.2264   20.0159 C.ar    1  UNL1       -0.0003
     14 C          -6.7888  -19.2494   20.9726 C.ar    1  UNL1       -0.0039
     15 C          -5.9413  -18.5864   22.0176 C.ar    1  UNL1       -0.0179
     16 O          -9.0484  -19.8359   23.6340 O.2     1  UNL1       -0.2912
     17 C          -9.2634  -18.5595   22.8759 C.2     1  UNL1        0.1757
     18 C         -10.5728  -18.0636   22.3377 C.ar    1  UNL1        0.0331
     19 C         -11.9584  -18.6365   22.3833 C.ar    1  UNL1        0.0026
     20 C         -13.0965  -17.8982   21.7433 C.ar    1  UNL1        0.0001
     21 C         -12.8492  -16.5872   21.0577 C.ar    1  UNL1       -0.0002
     22 C         -11.4636  -16.0143   21.0122 C.ar    1  UNL1       -0.0019
     23 C         -10.3254  -16.7526   21.6522 C.ar    1  UNL1        0.0074
     24 C          -8.8633  -16.4382   21.7667 C.3     1  UNL1        0.1406
     25 O          -8.1777  -15.2207   21.2207 O.3     1  UNL1       -0.3796
     26 C          -8.2069  -17.5549   22.5230 C.3     1  UNL1        0.1010
     27 H          -7.2317  -15.2607   21.4312 H       1  UNL1        0.2108
@<TRIPOS>BOND
     1    16    17    2
     2    17    18    1
     3    18    19   ar
     4    19    20   ar
     5    20    21   ar
     6    21    22   ar
     7    22    23   ar
     8    23    24    1
     9    24    25    1
    10    24    26    1
    11    26     1    1
    12     1     2    1
    13     2     3   ar
    14     3     4   ar
    15     4     5   ar
    16     5     6   ar
    17     6     7   ar
    18     7     8    1
    19     8     9    2
    20     9    10    1
    21    10    11   ar
    22    11    12   ar
    23    12    13   ar
    24    13    14   ar
    25    14    15   ar
    26    26    17    1
    27    15     1    1
    28    23    18   ar
    29     7     2   ar
    30    15    10   ar
    31    25    27    1
@<TRIPOS>MOLECULE
*****
 27 31 0 0 0
SMALL
GASTEIGER

@<TRIPOS>ATOM
      1 C          -6.7438  -17.6368   22.8707 C.3     1  UNL1        0.0545
      2 C          -5.9314  -18.5701   22.0227 C.ar    1  UNL1       -0.0179
      3 C          -6.7755  -19.2345   20.9759 C.ar    1  UNL1       -0.0039
      4 C          -6.1548  -20.2091   20.0194 C.ar    1  UNL1       -0.0003
      5 C          -4.6900  -20.5191   20.1097 C.ar    1  UNL1       -0.0000
      6 C          -3.8459  -19.8547   21.1566 C.ar    1  UNL1       -0.0003
      7 C          -4.4666  -18.8801   22.1130 C.ar    1  UNL1       -0.0037
      8 C          -3.4524  -18.3336   23.0737 C.2     1  UNL1       -0.0003
      9 C          -3.6526  -17.3420   24.1813 C.2     1  UNL1       -0.0003
     10 C          -4.9164  -16.6520   24.6017 C.ar    1  UNL1       -0.0037
     11 C          -4.6783  -15.7316   25.7619 C.ar    1  UNL1       -0.0003
     12 C          -5.8160  -14.9423   26.3388 C.ar    1  UNL1       -0.0000
     13 C          -7.1916  -15.0735   25.7556 C.ar    1  UNL1       -0.0003
     14 C          -7.4297  -15.9940   24.5954 C.ar    1  UNL1       -0.0039
     15 C          -6.2922  -16.7832   24.0185 C.ar    1  UNL1       -0.0179
     16 O          -9.0390  -19.8257   23.6394 O.2     1  UNL1       -0.2912
     17 C          -9.2555  -18.5512   22.8786 C.2     1  UNL1        0.1757
     18 C         -10.5652  -18.0591   22.3375 C.ar    1  UNL1        0.0331
     19 C         -11.9496  -18.6348   22.3822 C.ar    1  UNL1        0.0026
     20 C         -13.0884  -17.9002   21.7391 C.ar    1  UNL1        0.0001
     21 C         -12.8429  -16.5900   21.0514 C.ar    1  UNL1       -0.0002
     22 C         -11.4584  -16.0143   21.0068 C.ar    1  UNL1       -0.0019
     23 C         -10.3196  -16.7489   21.6498 C.ar    1  UNL1        0.0074
     24 C          -8.8583  -16.4312   21.7658 C.3     1  UNL1        0.1406
     25 O          -8.1745  -15.2134   21.2185 O.3     1  UNL1       -0.3796
     26 C          -8.2006  -17.5451   22.5253 C.3     1  UNL1        0.1010
     27 H          -7.2287  -15.2509   21.4304 H       1  UNL1        0.2108
@<TRIPOS>BOND
     1    16    17    2
     2    17    18    1
     3    18    19   ar
     4    19    20   ar
     5    20    21   ar
     6    21    22   ar
     7    22    23   ar
     8    23    24    1
     9    24    25    1
    10    24    26    1
    11    26     1    1
    12     1     2    1
    13     2     3   ar
    14     3     4   ar
    15     4     5   ar
    16     5     6   ar
    17     6     7   ar
    18     7     8    1
    19     8     9    2
    20     9    10    1
    21    10    11   ar
    22    11    12   ar
    23    12    13   ar
    24    13    14   ar
    25    14    15   ar
    26    26    17    1
    27    15     1    1
    28    23    18   ar
    29     7     2   ar
    30    15    10   ar
    31    25    27    1
@<TRIPOS>MOLECULE
*****
 27 31 0 0 0
SMALL
GASTEIGER

@<TRIPOS>ATOM
      1 C          -6.7574  -17.6450   22.8614 C.3     1  UNL1        0.0545
      2 C          -6.3013  -16.7912   24.0073 C.ar    1  UNL1       -0.0179
      3 C          -7.4357  -15.9982   24.5854 C.ar    1  UNL1       -0.0039
      4 C          -7.1929  -15.0770   25.7440 C.ar    1  UNL1       -0.0003
      5 C          -5.8157  -14.9487   26.3244 C.ar    1  UNL1       -0.0000
      6 C          -4.6813  -15.7416   25.7462 C.ar    1  UNL1       -0.0003
      7 C          -4.9241  -16.6628   24.5877 C.ar    1  UNL1       -0.0037
      8 C          -3.6629  -17.3567   24.1655 C.2     1  UNL1       -0.0003
      9 C          -3.4674  -18.3501   23.0588 C.2     1  UNL1       -0.0003
     10 C          -4.4849  -18.8951   22.1008 C.ar    1  UNL1       -0.0037
     11 C          -3.8686  -19.8724   21.1442 C.ar    1  UNL1       -0.0003
     12 C          -4.7165  -20.5360   20.0998 C.ar    1  UNL1       -0.0000
     13 C          -6.1807  -20.2222   20.0120 C.ar    1  UNL1       -0.0003
     14 C          -6.7969  -19.2448   20.9685 C.ar    1  UNL1       -0.0039
     15 C          -5.9491  -18.5813   22.0129 C.ar    1  UNL1       -0.0179
     16 O          -8.1868  -15.2145   21.2184 O.2     1  UNL1       -0.2912
     17 C          -8.8716  -16.4327   21.7635 C.2     1  UNL1        0.1757
     18 C         -10.3337  -16.7475   21.6491 C.ar    1  UNL1        0.0331
     19 C         -11.4725  -16.0092   21.0100 C.ar    1  UNL1        0.0026
     20 C         -12.8577  -16.5827   21.0555 C.ar    1  UNL1        0.0001
     21 C         -13.1044  -17.8945   21.7399 C.ar    1  UNL1       -0.0002
     22 C         -11.9657  -18.6328   22.3790 C.ar    1  UNL1       -0.0019
     23 C         -10.5804  -18.0593   22.3335 C.ar    1  UNL1        0.0074
     24 C          -9.2707  -18.5551   22.8710 C.3     1  UNL1        0.1406
     25 O          -9.0550  -19.8321   23.6279 O.3     1  UNL1       -0.3796
     26 C          -8.2146  -17.5498   22.5187 C.3     1  UNL1        0.1010
     27 H          -8.1170  -19.9154   23.8608 H       1  UNL1        0.2108
@<TRIPOS>BOND
     1    16    17    2
     2    17    18    1
     3    18    19   ar
     4    19    20   ar
     5    20    21   ar
     6    21    22   ar
     7    22    23   ar
     8    23    24    1
     9    24    25    1
    10    24    26    1
    11    26     1    1
    12     1     2    1
    13     2     3   ar
    14     3     4   ar
    15     4     5   ar
    16     5     6   ar
    17     6     7   ar
    18     7     8    1
    19     8     9    2
    20     9    10    1
    21    10    11   ar
    22    11    12   ar
    23    12    13   ar
    24    13    14   ar
    25    14    15   ar
    26    26    17    1
    27    15     1    1
    28    23    18   ar
    29     7     2   ar
    30    15    10   ar
    31    25    27    1
@<TRIPOS>MOLECULE
*****
 27 31 0 0 0
SMALL
GASTEIGER

@<TRIPOS>ATOM
      1 C          -6.7433  -17.6266   22.8727 C.3     1  UNL1        0.0545
      2 C          -5.9287  -18.5601   22.0271 C.ar    1  UNL1       -0.0179
      3 C          -6.7705  -19.2263   20.9796 C.ar    1  UNL1       -0.0039
      4 C          -6.1474  -20.2014   20.0252 C.ar    1  UNL1       -0.0003
      5 C          -4.6825  -20.5102   20.1183 C.ar    1  UNL1       -0.0000
      6 C          -3.8407  -19.8440   21.1658 C.ar    1  UNL1       -0.0003
      7 C          -4.4638  -18.8689   22.1202 C.ar    1  UNL1       -0.0037
      8 C          -3.4517  -18.3204   23.0820 C.2     1  UNL1       -0.0003
      9 C          -3.6545  -17.3278   24.1881 C.2     1  UNL1       -0.0003
     10 C          -4.9196  -16.6384   24.6057 C.ar    1  UNL1       -0.0037
     11 C          -4.6841  -15.7165   25.7653 C.ar    1  UNL1       -0.0003
     12 C          -5.8234  -14.9275   26.3394 C.ar    1  UNL1       -0.0000
     13 C          -7.1980  -15.0604   25.7541 C.ar    1  UNL1       -0.0003
     14 C          -7.4334  -15.9823   24.5945 C.ar    1  UNL1       -0.0039
     15 C          -6.2942  -16.7713   24.0203 C.ar    1  UNL1       -0.0179
     16 O          -8.1734  -15.2051   21.2171 O.2     1  UNL1       -0.2912
     17 C          -8.8569  -16.4234   21.7637 C.2     1  UNL1        0.1757
     18 C         -10.3178  -16.7424   21.6453 C.ar    1  UNL1        0.0331
     19 C         -11.4563  -16.0092   21.0000 C.ar    1  UNL1        0.0026
     20 C         -12.8401  -16.5863   21.0425 C.ar    1  UNL1        0.0001
     21 C         -13.0857  -17.8965   21.7303 C.ar    1  UNL1       -0.0002
     22 C         -11.9473  -18.6297   22.3756 C.ar    1  UNL1       -0.0019
     23 C         -10.5633  -18.0527   22.3331 C.ar    1  UNL1        0.0074
     24 C          -9.2542  -18.5433   22.8766 C.3     1  UNL1        0.1406
     25 O          -9.0377  -19.8173   23.6383 O.3     1  UNL1       -0.3796
     26 C          -8.1996  -17.5364   22.5247 C.3     1  UNL1        0.1010
     27 H          -8.1003  -19.8974   23.8747 H       1  UNL1        0.2108
@<TRIPOS>BOND
     1    16    17    2
     2    17    18    1
     3    18    19   ar
     4    19    20   ar
     5    20    21   ar
     6    21    22   ar
     7    22    23   ar
     8    23    24    1
     9    24    25    1
    10    24    26    1
    11    26     1    1
    12     1     2    1
    13     2     3   ar
    14     3     4   ar
    15     4     5   ar
    16     5     6   ar
    17     6     7   ar
    18     7     8    1
    19     8     9    2
    20     9    10    1
    21    10    11   ar
    22    11    12   ar
    23    12    13   ar
    24    13    14   ar
    25    14    15   ar
    26    26    17    1
    27    15     1    1
    28    23    18   ar
    29     7     2   ar
    30    15    10   ar
    31    25    27    1
@<TRIPOS>MOLECULE
*****
 27 31 0 0 0
SMALL
GASTEIGER

@<TRIPOS>ATOM
      1 C          -8.8027  -17.7672   22.2179 C.3     1  UNL1        0.0545
      2 C         -10.1593  -17.3774   21.7103 C.ar    1  UNL1       -0.0179
      3 C         -10.8367  -16.4151   22.6403 C.ar    1  UNL1       -0.0039
      4 C         -12.2073  -15.8984   22.3169 C.ar    1  UNL1       -0.0003
      5 C         -12.9004  -16.3440   21.0635 C.ar    1  UNL1       -0.0000
      6 C         -12.2229  -17.3063   20.1335 C.ar    1  UNL1       -0.0003
      7 C         -10.8524  -17.8230   20.4569 C.ar    1  UNL1       -0.0037
      8 C         -10.3600  -18.7685   19.4015 C.2     1  UNL1       -0.0003
      9 C          -9.0530  -19.5018   19.3389 C.2     1  UNL1       -0.0003
     10 C          -7.9155  -19.4708   20.3162 C.ar    1  UNL1       -0.0037
     11 C          -6.7882  -20.3556   19.8733 C.ar    1  UNL1       -0.0003
     12 C          -5.5494  -20.4685   20.7116 C.ar    1  UNL1       -0.0000
     13 C          -5.4380  -19.6966   21.9928 C.ar    1  UNL1       -0.0003
     14 C          -6.5653  -18.8117   22.4358 C.ar    1  UNL1       -0.0039
     15 C          -7.8041  -18.6989   21.5975 C.ar    1  UNL1       -0.0179
     16 O          -9.8603  -18.6310   25.1819 O.2     1  UNL1       -0.2912
     17 C          -8.8762  -17.5398   24.8802 C.2     1  UNL1        0.1757
     18 C          -8.2056  -16.6541   25.8880 C.ar    1  UNL1        0.0331
     19 C          -8.2986  -16.5855   27.3836 C.ar    1  UNL1        0.0026
     20 C          -7.4909  -15.5725   28.1395 C.ar    1  UNL1        0.0001
     21 C          -6.5902  -14.6281   27.4001 C.ar    1  UNL1       -0.0002
     22 C          -6.4972  -14.6967   25.9045 C.ar    1  UNL1       -0.0019
     23 C          -7.3049  -15.7097   25.1485 C.ar    1  UNL1        0.0074
     24 C          -7.4189  -16.0117   23.6837 C.3     1  UNL1        0.1406
     25 O          -6.6898  -15.3064   22.5786 O.3     1  UNL1       -0.3796
     26 C          -8.3901  -17.1428   23.5178 C.3     1  UNL1        0.1010
     27 H          -6.9416  -15.6944   21.7260 H       1  UNL1        0.2108
@<TRIPOS>BOND
     1    16    17    2
     2    17    18    1
     3    18    19   ar
     4    19    20   ar
     5    20    21   ar
     6    21    22   ar
     7    22    23   ar
     8    23    24    1
     9    24    25    1
    10    24    26    1
    11    26     1    1
    12     1     2    1
    13     2     3   ar
    14     3     4   ar
    15     4     5   ar
    16     5     6   ar
    17     6     7   ar
    18     7     8    1
    19     8     9    2
    20     9    10    1
    21    10    11   ar
    22    11    12   ar
    23    12    13   ar
    24    13    14   ar
    25    14    15   ar
    26    26    17    1
    27    15     1    1
    28    23    18   ar
    29     7     2   ar
    30    15    10   ar
    31    25    27    1
@<TRIPOS>MOLECULE
*****
 27 31 0 0 0
SMALL
GASTEIGER

@<TRIPOS>ATOM
      1 C          -8.8057  -17.7670   22.2182 C.3     1  UNL1        0.0545
      2 C          -7.8077  -18.6984   21.5964 C.ar    1  UNL1       -0.0179
      3 C          -6.5685  -18.8122   22.4338 C.ar    1  UNL1       -0.0039
      4 C          -5.4417  -19.6969   21.9893 C.ar    1  UNL1       -0.0003
      5 C          -5.5542  -20.4678   20.7075 C.ar    1  UNL1       -0.0000
      6 C          -6.7935  -20.3540   19.8701 C.ar    1  UNL1       -0.0003
      7 C          -7.9202  -19.4693   20.3146 C.ar    1  UNL1       -0.0037
      8 C          -9.0585  -19.4991   19.3381 C.2     1  UNL1       -0.0003
      9 C         -10.3653  -18.7656   19.4021 C.2     1  UNL1       -0.0003
     10 C         -10.8566  -17.8208   20.4586 C.ar    1  UNL1       -0.0037
     11 C         -12.2273  -17.3036   20.1366 C.ar    1  UNL1       -0.0003
     12 C         -12.9039  -16.3418   21.0680 C.ar    1  UNL1       -0.0000
     13 C         -12.2098  -15.8974   22.3212 C.ar    1  UNL1       -0.0003
     14 C         -10.8392  -16.4147   22.6432 C.ar    1  UNL1       -0.0039
     15 C         -10.1626  -17.3764   21.7120 C.ar    1  UNL1       -0.0179
     16 O          -9.8648  -18.6300   25.1819 O.2     1  UNL1       -0.2912
     17 C          -8.8788  -17.5404   24.8806 C.2     1  UNL1        0.1757
     18 C          -8.2066  -16.6562   25.8888 C.ar    1  UNL1        0.0331
     19 C          -8.2994  -16.5880   27.3844 C.ar    1  UNL1        0.0026
     20 C          -7.4900  -15.5766   28.1407 C.ar    1  UNL1        0.0001
     21 C          -6.5878  -14.6334   27.4016 C.ar    1  UNL1       -0.0002
     22 C          -6.4949  -14.7017   25.9060 C.ar    1  UNL1       -0.0019
     23 C          -7.3043  -15.7130   25.1496 C.ar    1  UNL1        0.0074
     24 C          -7.4189  -16.0143   23.6847 C.3     1  UNL1        0.1406
     25 O          -6.6886  -15.3099   22.5798 O.3     1  UNL1       -0.3796
     26 C          -8.3920  -17.1437   23.5184 C.3     1  UNL1        0.1010
     27 H          -6.9411  -15.6972   21.7271 H       1  UNL1        0.2108
@<TRIPOS>BOND
     1    16    17    2
     2    17    18    1
     3    18    19   ar
     4    19    20   ar
     5    20    21   ar
     6    21    22   ar
     7    22    23   ar
     8    23    24    1
     9    24    25    1
    10    24    26    1
    11    26     1    1
    12     1     2    1
    13     2     3   ar
    14     3     4   ar
    15     4     5   ar
    16     5     6   ar
    17     6     7   ar
    18     7     8    1
    19     8     9    2
    20     9    10    1
    21    10    11   ar
    22    11    12   ar
    23    12    13   ar
    24    13    14   ar
    25    14    15   ar
    26    26    17    1
    27    15     1    1
    28    23    18   ar
    29     7     2   ar
    30    15    10   ar
    31    25    27    1
@<TRIPOS>MOLECULE
*****
 27 31 0 0 0
SMALL
GASTEIGER

@<TRIPOS>ATOM
      1 C          -8.8150  -17.8059   22.1809 C.3     1  UNL1        0.0545
      2 C          -7.8188  -18.7457   21.5692 C.ar    1  UNL1       -0.0179
      3 C          -6.5862  -18.8648   22.4156 C.ar    1  UNL1       -0.0039
      4 C          -5.4621  -19.7583   21.9820 C.ar    1  UNL1       -0.0003
      5 C          -5.5705  -20.5325   20.7019 C.ar    1  UNL1       -0.0000
      6 C          -6.8031  -20.4134   19.8554 C.ar    1  UNL1       -0.0003
      7 C          -7.9272  -19.5200   20.2890 C.ar    1  UNL1       -0.0037
      8 C          -9.0587  -19.5457   19.3046 C.2     1  UNL1       -0.0003
      9 C         -10.3611  -18.8035   19.3570 C.2     1  UNL1       -0.0003
     10 C         -10.8538  -17.8522   20.4070 C.ar    1  UNL1       -0.0037
     11 C         -12.2187  -17.3271   20.0736 C.ar    1  UNL1       -0.0003
     12 C         -12.8956  -16.3580   20.9971 C.ar    1  UNL1       -0.0000
     13 C         -12.2076  -15.9140   22.2538 C.ar    1  UNL1       -0.0003
     14 C         -10.8426  -16.4391   22.5871 C.ar    1  UNL1       -0.0039
     15 C         -10.1657  -17.4082   21.6638 C.ar    1  UNL1       -0.0179
     16 O          -6.5982  -15.4413   22.5609 O.2     1  UNL1       -0.2912
     17 C          -7.3876  -16.0943   23.6566 C.2     1  UNL1        0.1757
     18 C          -7.2965  -15.7749   25.1194 C.ar    1  UNL1        0.0331
     19 C          -6.4614  -14.7891   25.8815 C.ar    1  UNL1        0.0026
     20 C          -6.5890  -14.6928   27.3729 C.ar    1  UNL1        0.0001
     21 C          -7.5517  -15.5822   28.1024 C.ar    1  UNL1       -0.0002
     22 C          -8.3868  -16.5681   27.3403 C.ar    1  UNL1       -0.0019
     23 C          -8.2592  -16.6644   25.8488 C.ar    1  UNL1        0.0074
     24 C          -8.9452  -17.5334   24.8369 C.3     1  UNL1        0.1406
     25 O          -9.9871  -18.5725   25.1286 O.3     1  UNL1       -0.3796
     26 C          -8.4065  -17.1811   23.4820 C.3     1  UNL1        0.1010
     27 H         -10.2671  -18.9912   24.2996 H       1  UNL1        0.2108
@<TRIPOS>BOND
     1    16    17    2
     2    17    18    1
     3    18    19   ar
     4    19    20   ar
     5    20    21   ar
     6    21    22   ar
     7    22    23   ar
     8    23    24    1
     9    24    25    1
    10    24    26    1
    11    26     1    1
    12     1     2    1
    13     2     3   ar
    14     3     4   ar
    15     4     5   ar
    16     5     6   ar
    17     6     7   ar
    18     7     8    1
    19     8     9    2
    20     9    10    1
    21    10    11   ar
    22    11    12   ar
    23    12    13   ar
    24    13    14   ar
    25    14    15   ar
    26    26    17    1
    27    15     1    1
    28    23    18   ar
    29     7     2   ar
    30    15    10   ar
    31    25    27    1
@<TRIPOS>MOLECULE
*****
 27 31 0 0 0
SMALL
GASTEIGER

@<TRIPOS>ATOM
      1 C          -8.8147  -17.8058   22.1809 C.3     1  UNL1        0.0545
      2 C         -10.1654  -17.4081   21.6637 C.ar    1  UNL1       -0.0179
      3 C         -10.8423  -16.4391   22.5871 C.ar    1  UNL1       -0.0039
      4 C         -12.2072  -15.9140   22.2537 C.ar    1  UNL1       -0.0003
      5 C         -12.8953  -16.3580   20.9969 C.ar    1  UNL1       -0.0000
      6 C         -12.2184  -17.3270   20.0735 C.ar    1  UNL1       -0.0003
      7 C         -10.8534  -17.8520   20.4069 C.ar    1  UNL1       -0.0037
      8 C         -10.3607  -18.8033   19.3570 C.2     1  UNL1       -0.0003
      9 C          -9.0583  -19.5455   19.3044 C.2     1  UNL1       -0.0003
     10 C          -7.9268  -19.5198   20.2890 C.ar    1  UNL1       -0.0037
     11 C          -6.8027  -20.4132   19.8553 C.ar    1  UNL1       -0.0003
     12 C          -5.5700  -20.5323   20.7019 C.ar    1  UNL1       -0.0000
     13 C          -5.4617  -19.7581   21.9819 C.ar    1  UNL1       -0.0003
     14 C          -6.5858  -18.8647   22.4156 C.ar    1  UNL1       -0.0039
     15 C          -7.8184  -18.7455   21.5691 C.ar    1  UNL1       -0.0179
     16 O          -6.5974  -15.4417   22.5610 O.2     1  UNL1       -0.2912
     17 C          -7.3871  -16.0943   23.6567 C.2     1  UNL1        0.1757
     18 C          -7.2961  -15.7749   25.1194 C.ar    1  UNL1        0.0331
     19 C          -6.4609  -14.7892   25.8816 C.ar    1  UNL1        0.0026
     20 C          -6.5887  -14.6927   27.3730 C.ar    1  UNL1        0.0001
     21 C          -7.5517  -15.5819   28.1024 C.ar    1  UNL1       -0.0002
     22 C          -8.3870  -16.5676   27.3402 C.ar    1  UNL1       -0.0019
     23 C          -8.2592  -16.6641   25.8488 C.ar    1  UNL1        0.0074
     24 C          -8.9452  -17.5331   24.8368 C.3     1  UNL1        0.1406
     25 O          -9.9874  -18.5718   25.1284 O.3     1  UNL1       -0.3796
     26 C          -8.4062  -17.1810   23.4820 C.3     1  UNL1        0.1010
     27 H         -10.2674  -18.9905   24.2994 H       1  UNL1        0.2108
@<TRIPOS>BOND
     1    16    17    2
     2    17    18    1
     3    18    19   ar
     4    19    20   ar
     5    20    21   ar
     6    21    22   ar
     7    22    23   ar
     8    23    24    1
     9    24    25    1
    10    24    26    1
    11    26     1    1
    12     1     2    1
    13     2     3   ar
    14     3     4   ar
    15     4     5   ar
    16     5     6   ar
    17     6     7   ar
    18     7     8    1
    19     8     9    2
    20     9    10    1
    21    10    11   ar
    22    11    12   ar
    23    12    13   ar
    24    13    14   ar
    25    14    15   ar
    26    26    17    1
    27    15     1    1
    28    23    18   ar
    29     7     2   ar
    30    15    10   ar
    31    25    27    1
@<TRIPOS>MOLECULE
*****
 27 31 0 0 0
SMALL
GASTEIGER

@<TRIPOS>ATOM
      1 C         -15.9493   -5.6780   18.9832 C.3     1  UNL1        0.0545
      2 C         -16.7126   -4.4185   19.2678 C.ar    1  UNL1       -0.0179
      3 C         -15.8395   -3.2063   19.1337 C.ar    1  UNL1       -0.0039
      4 C         -16.4099   -1.8405   19.3769 C.ar    1  UNL1       -0.0003
      5 C         -17.8535   -1.6869   19.7543 C.ar    1  UNL1       -0.0000
      6 C         -18.7267   -2.8991   19.8884 C.ar    1  UNL1       -0.0003
      7 C         -18.1563   -4.2649   19.6452 C.ar    1  UNL1       -0.0037
      8 C         -19.1930   -5.3329   19.8312 C.2     1  UNL1       -0.0003
      9 C         -19.0423   -6.8182   19.6857 C.2     1  UNL1       -0.0003
     10 C         -17.8174   -7.6024   19.3184 C.ar    1  UNL1       -0.0037
     11 C         -18.0996   -9.0752   19.2837 C.ar    1  UNL1       -0.0003
     12 C         -17.0053  -10.0405   18.9364 C.ar    1  UNL1       -0.0000
     13 C         -15.6289   -9.5331   18.6237 C.ar    1  UNL1       -0.0003
     14 C         -15.3467   -8.0603   18.6584 C.ar    1  UNL1       -0.0039
     15 C         -16.4409   -7.0949   19.0057 C.ar    1  UNL1       -0.0179
     16 O         -14.6757   -5.8256   15.9822 O.2     1  UNL1       -0.2912
     17 C         -13.9176   -5.5643   17.2499 C.2     1  UNL1        0.1757
     18 C         -12.4410   -5.3250   17.3607 C.ar    1  UNL1        0.0331
     19 C         -11.3520   -5.2757   16.3303 C.ar    1  UNL1        0.0026
     20 C          -9.9359   -5.0107   16.7478 C.ar    1  UNL1        0.0001
     21 C          -9.6086   -4.7949   18.1956 C.ar    1  UNL1       -0.0002
     22 C         -10.6975   -4.8442   19.2261 C.ar    1  UNL1       -0.0019
     23 C         -12.1137   -5.1093   18.8086 C.ar    1  UNL1        0.0074
     24 C         -13.3881   -5.2152   19.5926 C.3     1  UNL1        0.1406
     25 O         -13.5238   -5.0661   21.0790 O.3     1  UNL1       -0.3796
     26 C         -14.5030   -5.4965   18.6293 C.3     1  UNL1        0.1010
     27 H         -14.4534   -5.1799   21.3319 H       1  UNL1        0.2108
@<TRIPOS>BOND
     1    16    17    2
     2    17    18    1
     3    18    19   ar
     4    19    20   ar
     5    20    21   ar
     6    21    22   ar
     7    22    23   ar
     8    23    24    1
     9    24    25    1
    10    24    26    1
    11    26     1    1
    12     1     2    1
    13     2     3   ar
    14     3     4   ar
    15     4     5   ar
    16     5     6   ar
    17     6     7   ar
    18     7     8    1
    19     8     9    2
    20     9    10    1
    21    10    11   ar
    22    11    12   ar
    23    12    13   ar
    24    13    14   ar
    25    14    15   ar
    26    26    17    1
    27    15     1    1
    28    23    18   ar
    29     7     2   ar
    30    15    10   ar
    31    25    27    1
