@<TRIPOS>MOLECULE
*****
 26 27 0 0 0
SMALL
GASTEIGER

@<TRIPOS>ATOM
      1 C          -6.0506  -15.2952   24.9025 C.2     1  UNL1        0.1957
      2 O          -5.5754  -14.5183   26.0945 O.2     1  UNL1       -0.2866
      3 C          -4.4064  -17.0036   23.8405 C.2     1  UNL1        0.0034
      4 C          -5.0855  -15.6664   23.8159 C.2     1  UNL1        0.0420
      5 C          -2.5120  -19.1214   21.0699 C.ar    1  UNL1        0.1721
      6 C          -3.4771  -18.7502   22.1565 C.ar    1  UNL1        0.0400
      7 C          -3.4413  -17.3747   22.7538 C.ar    1  UNL1        0.0033
      8 C          -2.4404  -16.3704   22.2644 C.ar    1  UNL1        0.0033
      9 C          -1.4754  -16.7416   21.1777 C.ar    1  UNL1        0.0398
     10 C          -1.5112  -18.1171   20.5805 C.ar    1  UNL1        0.1677
     11 O          -0.5460  -18.4882   19.4938 O.3     1  UNL1       -0.5029
     12 H           0.0792  -17.8608   19.1881 H       1  UNL1        0.2923
     13 C          -3.7786  -20.9732   19.7597 C.3     1  UNL1        0.2526
     14 O          -2.5478  -20.4969   20.4726 O.3     1  UNL1       -0.4684
     15 C          -7.4908  -15.7009   24.7972 C.2     1  UNL1        0.0420
     16 C          -7.9364  -16.6036   23.6851 C.2     1  UNL1        0.0034
     17 C          -9.3767  -17.0093   23.5799 C.ar    1  UNL1        0.0033
     18 C          -9.9640  -17.9575   24.5830 C.ar    1  UNL1        0.0033
     19 C         -11.4042  -18.3632   24.4777 C.ar    1  UNL1        0.0398
     20 C         -12.2572  -17.8207   23.3694 C.ar    1  UNL1        0.1677
     21 O         -13.6974  -18.2264   23.2641 O.3     1  UNL1       -0.5029
     22 C         -11.6698  -16.8726   22.3664 C.ar    1  UNL1        0.1721
     23 C         -10.2296  -16.4669   22.4716 C.ar    1  UNL1        0.0400
     24 H         -14.0643  -18.8187   23.8907 H       1  UNL1        0.2923
     25 O         -12.5227  -16.3302   21.2581 O.3     1  UNL1       -0.4684
     26 C         -11.9072  -16.0010   19.9304 C.3     1  UNL1        0.2526
@<TRIPOS>BOND
     1    13    14    1
     2    14     5    1
     3     5     6   ar
     4     6     7   ar
     5     7     3    1
     6     3     4    2
     7     4     1    1
     8     1     2    2
     9     1    15    1
    10    15    16    2
    11    16    17    1
    12    17    18   ar
    13    18    19   ar
    14    19    20   ar
    15    20    21    1
    16    20    22   ar
    17    22    25    1
    18    25    26    1
    19    22    23   ar
    20     7     8   ar
    21     8     9   ar
    22     9    10   ar
    23    10    11    1
    24    10     5   ar
    25    23    17   ar
    26    21    24    1
    27    11    12    1
@<TRIPOS>MOLECULE
*****
 26 27 0 0 0
SMALL
GASTEIGER

@<TRIPOS>ATOM
      1 C          -5.9756  -15.3247   24.8990 C.2     1  UNL1        0.1957
      2 O          -5.4916  -14.5599   26.0952 O.2     1  UNL1       -0.2866
      3 C          -7.8838  -16.5622   23.6431 C.2     1  UNL1        0.0034
      4 C          -7.4155  -15.7339   24.8026 C.2     1  UNL1        0.0420
      5 C         -11.6207  -16.8520   22.3385 C.ar    1  UNL1        0.1721
      6 C         -10.1808  -16.4429   22.4349 C.ar    1  UNL1        0.0400
      7 C          -9.3238  -16.9713   23.5467 C.ar    1  UNL1        0.0033
      8 C          -9.9066  -17.9088   24.5623 C.ar    1  UNL1        0.0033
      9 C         -11.3465  -18.3179   24.4659 C.ar    1  UNL1        0.0398
     10 C         -12.2035  -17.7895   23.3541 C.ar    1  UNL1        0.1677
     11 O         -13.6435  -18.1987   23.2578 O.3     1  UNL1       -0.5029
     12 H         -14.0076  -18.7844   23.8921 H       1  UNL1        0.2923
     13 C         -11.8649  -15.9991   19.8967 C.3     1  UNL1        0.2526
     14 O         -12.4778  -16.3236   21.2267 O.3     1  UNL1       -0.4684
     15 C          -5.0196  -15.6803   23.7991 C.2     1  UNL1        0.0420
     16 C          -4.3368  -17.0159   23.8015 C.2     1  UNL1        0.0034
     17 C          -3.3809  -17.3715   22.7016 C.ar    1  UNL1        0.0033
     18 C          -2.3973  -16.3538   22.2046 C.ar    1  UNL1        0.0033
     19 C          -1.4414  -16.7094   21.1048 C.ar    1  UNL1        0.0398
     20 C          -1.4690  -18.0826   20.5019 C.ar    1  UNL1        0.1677
     21 O          -0.5130  -18.4382   19.4020 O.3     1  UNL1       -0.5029
     22 C          -2.4525  -19.1003   20.9988 C.ar    1  UNL1        0.1721
     23 C          -3.4085  -18.7447   22.0987 C.ar    1  UNL1        0.0400
     24 H           0.1014  -17.8025   19.0915 H       1  UNL1        0.2923
     25 O          -2.4801  -20.4735   20.3960 O.3     1  UNL1       -0.4684
     26 C          -3.7434  -20.9965   19.7789 C.3     1  UNL1        0.2526
@<TRIPOS>BOND
     1    13    14    1
     2    14     5    1
     3     5     6   ar
     4     6     7   ar
     5     7     3    1
     6     3     4    2
     7     4     1    1
     8     1     2    2
     9     1    15    1
    10    15    16    2
    11    16    17    1
    12    17    18   ar
    13    18    19   ar
    14    19    20   ar
    15    20    21    1
    16    20    22   ar
    17    22    25    1
    18    25    26    1
    19    22    23   ar
    20     7     8   ar
    21     8     9   ar
    22     9    10   ar
    23    10    11    1
    24    10     5   ar
    25    23    17   ar
    26    21    24    1
    27    11    12    1
@<TRIPOS>MOLECULE
*****
 26 27 0 0 0
SMALL
GASTEIGER

@<TRIPOS>ATOM
      1 C          -5.8946  -15.1899   24.8960 C.2     1  UNL1        0.1957
      2 O          -5.5542  -14.2102   25.9797 O.2     1  UNL1       -0.2866
      3 C          -4.5371  -17.0389   23.6761 C.2     1  UNL1        0.0034
      4 C          -4.8544  -15.5888   23.8917 C.2     1  UNL1        0.0420
      5 C          -2.4986  -19.2010   21.0455 C.ar    1  UNL1        0.1721
      6 C          -3.5389  -18.8022   22.0498 C.ar    1  UNL1        0.0400
      7 C          -3.4968  -17.4378   22.6717 C.ar    1  UNL1        0.0033
      8 C          -2.4144  -16.4723   22.2893 C.ar    1  UNL1        0.0033
      9 C          -1.3742  -16.8712   21.2850 C.ar    1  UNL1        0.0398
     10 C          -1.4163  -18.2355   20.6631 C.ar    1  UNL1        0.1677
     11 O          -0.3759  -18.6344   19.6587 O.3     1  UNL1       -0.5029
     12 H           0.3002  -18.0313   19.4198 H       1  UNL1        0.2923
     13 C          -3.8089  -21.0657   19.7981 C.3     1  UNL1        0.2526
     14 O          -2.5407  -20.5654   20.4236 O.3     1  UNL1       -0.4684
     15 C          -7.2753  -15.7708   24.8168 C.2     1  UNL1        0.0420
     16 C          -7.9993  -15.8073   23.5035 C.2     1  UNL1        0.0034
     17 C          -9.3800  -16.3882   23.4242 C.ar    1  UNL1        0.0033
     18 C         -10.4586  -15.6594   22.6788 C.ar    1  UNL1        0.0033
     19 C         -11.8393  -16.2402   22.5995 C.ar    1  UNL1        0.0398
     20 C         -12.1415  -17.5499   23.2657 C.ar    1  UNL1        0.1677
     21 O         -13.5222  -18.1307   23.1864 O.3     1  UNL1       -0.5029
     22 C         -11.0629  -18.2786   24.0111 C.ar    1  UNL1        0.1721
     23 C          -9.6822  -17.6977   24.0903 C.ar    1  UNL1        0.0400
     24 H         -14.1959  -17.6755   22.7208 H       1  UNL1        0.2923
     25 O         -11.3650  -19.5881   24.6772 O.3     1  UNL1       -0.4684
     26 C         -10.2596  -20.5661   24.9448 C.3     1  UNL1        0.2526
@<TRIPOS>BOND
     1    13    14    1
     2    14     5    1
     3     5     6   ar
     4     6     7   ar
     5     7     3    1
     6     3     4    2
     7     4     1    1
     8     1     2    2
     9     1    15    1
    10    15    16    2
    11    16    17    1
    12    17    18   ar
    13    18    19   ar
    14    19    20   ar
    15    20    21    1
    16    20    22   ar
    17    22    25    1
    18    25    26    1
    19    22    23   ar
    20     7     8   ar
    21     8     9   ar
    22     9    10   ar
    23    10    11    1
    24    10     5   ar
    25    23    17   ar
    26    21    24    1
    27    11    12    1
@<TRIPOS>MOLECULE
*****
 26 27 0 0 0
SMALL
GASTEIGER

@<TRIPOS>ATOM
      1 C          -8.4753  -20.1955   18.7747 C.2     1  UNL1        0.1957
      2 O          -8.8595  -20.7807   17.4480 O.2     1  UNL1       -0.2866
      3 C          -9.9962  -18.5746   20.1198 C.2     1  UNL1        0.0034
      4 C          -9.5217  -19.9666   19.8247 C.2     1  UNL1        0.0420
      5 C         -11.8564  -18.5866   23.6254 C.ar    1  UNL1        0.1721
      6 C         -10.8101  -18.8155   22.5753 C.ar    1  UNL1        0.0400
      7 C         -11.0427  -18.3457   21.1699 C.ar    1  UNL1        0.0033
      8 C         -12.3216  -17.6472   20.8145 C.ar    1  UNL1        0.0033
      9 C         -13.3679  -17.4183   21.8646 C.ar    1  UNL1        0.0398
     10 C         -13.1353  -17.8881   23.2701 C.ar    1  UNL1        0.1677
     11 O         -14.1818  -17.6592   24.3202 O.3     1  UNL1       -0.5029
     12 H         -14.9807  -17.2228   24.0982 H       1  UNL1        0.2923
     13 C         -10.3153  -19.6876   25.4038 C.3     1  UNL1        0.2526
     14 O         -11.6238  -19.0564   25.0309 O.3     1  UNL1       -0.4684
     15 C          -7.0447  -19.8393   19.0512 C.2     1  UNL1        0.0420
     16 C          -6.5259  -19.8571   20.4586 C.2     1  UNL1        0.0034
     17 C          -5.0953  -19.5009   20.7352 C.ar    1  UNL1        0.0033
     18 C          -4.6034  -19.4165   22.1497 C.ar    1  UNL1        0.0033
     19 C          -3.1728  -19.0603   22.4263 C.ar    1  UNL1        0.0398
     20 C          -2.2341  -18.7884   21.2883 C.ar    1  UNL1        0.1677
     21 O          -0.8035  -18.4322   21.5648 O.3     1  UNL1       -0.5029
     22 C          -2.7261  -18.8728   19.8738 C.ar    1  UNL1        0.1721
     23 C          -4.1567  -19.2291   19.5972 C.ar    1  UNL1        0.0400
     24 H          -0.4962  -18.3795   22.4484 H       1  UNL1        0.2923
     25 O          -1.7874  -18.6010   18.7358 O.3     1  UNL1       -0.4684
     26 C          -2.0417  -17.4457   17.8134 C.3     1  UNL1        0.2526
@<TRIPOS>BOND
     1    13    14    1
     2    14     5    1
     3     5     6   ar
     4     6     7   ar
     5     7     3    1
     6     3     4    2
     7     4     1    1
     8     1     2    2
     9     1    15    1
    10    15    16    2
    11    16    17    1
    12    17    18   ar
    13    18    19   ar
    14    19    20   ar
    15    20    21    1
    16    20    22   ar
    17    22    25    1
    18    25    26    1
    19    22    23   ar
    20     7     8   ar
    21     8     9   ar
    22     9    10   ar
    23    10    11    1
    24    10     5   ar
    25    23    17   ar
    26    21    24    1
    27    11    12    1
@<TRIPOS>MOLECULE
*****
 26 27 0 0 0
SMALL
GASTEIGER

@<TRIPOS>ATOM
      1 C          -8.0986  -19.8844   19.2328 C.2     1  UNL1        0.1957
      2 O          -8.3769  -20.6522   17.9745 O.2     1  UNL1       -0.2866
      3 C          -8.8623  -19.4925   21.6849 C.2     1  UNL1        0.0034
      4 C          -9.1946  -19.6589   20.2317 C.2     1  UNL1        0.0420
      5 C         -12.1090  -18.0080   23.4185 C.ar    1  UNL1        0.1721
      6 C         -11.0129  -18.2335   22.4196 C.ar    1  UNL1        0.0400
      7 C          -9.9584  -19.2670   22.6839 C.ar    1  UNL1        0.0033
      8 C          -9.9998  -20.0749   23.9470 C.ar    1  UNL1        0.0033
      9 C         -11.0959  -19.8494   24.9458 C.ar    1  UNL1        0.0398
     10 C         -12.1504  -18.8159   24.6816 C.ar    1  UNL1        0.1677
     11 O         -13.2465  -18.5904   25.6805 O.3     1  UNL1       -0.5029
     12 H         -13.2724  -19.0951   26.4696 H       1  UNL1        0.2923
     13 C         -12.8095  -15.7101   22.4290 C.3     1  UNL1        0.2526
     14 O         -13.1635  -16.9745   23.1542 O.3     1  UNL1       -0.4684
     15 C          -6.7242  -19.3423   19.4920 C.2     1  UNL1        0.0420
     16 C          -5.6598  -20.2356   20.0569 C.2     1  UNL1        0.0034
     17 C          -4.2855  -19.6934   20.3162 C.ar    1  UNL1        0.0033
     18 C          -3.7232  -19.7089   21.7068 C.ar    1  UNL1        0.0033
     19 C          -2.3488  -19.1667   21.9661 C.ar    1  UNL1        0.0398
     20 C          -1.5368  -18.6091   20.8348 C.ar    1  UNL1        0.1677
     21 O          -0.1624  -18.0669   21.0940 O.3     1  UNL1       -0.5029
     22 C          -2.0991  -18.5937   19.4443 C.ar    1  UNL1        0.1721
     23 C          -3.4734  -19.1359   19.1850 C.ar    1  UNL1        0.0400
     24 H           0.1888  -18.0765   21.9627 H       1  UNL1        0.2923
     25 O          -1.2871  -18.0361   18.3131 O.3     1  UNL1       -0.4684
     26 C          -1.9718  -17.5076   17.0875 C.3     1  UNL1        0.2526
@<TRIPOS>BOND
     1    13    14    1
     2    14     5    1
     3     5     6   ar
     4     6     7   ar
     5     7     3    1
     6     3     4    2
     7     4     1    1
     8     1     2    2
     9     1    15    1
    10    15    16    2
    11    16    17    1
    12    17    18   ar
    13    18    19   ar
    14    19    20   ar
    15    20    21    1
    16    20    22   ar
    17    22    25    1
    18    25    26    1
    19    22    23   ar
    20     7     8   ar
    21     8     9   ar
    22     9    10   ar
    23    10    11    1
    24    10     5   ar
    25    23    17   ar
    26    21    24    1
    27    11    12    1
@<TRIPOS>MOLECULE
*****
 26 27 0 0 0
SMALL
GASTEIGER

@<TRIPOS>ATOM
      1 C           0.5181    1.8942   23.1611 C.2     1  UNL1        0.1957
      2 O          -0.4706    2.9631   22.8002 O.2     1  UNL1       -0.2866
      3 C           1.8990    1.1477   25.2312 C.2     1  UNL1        0.0034
      4 C           0.5735    1.3667   24.5641 C.2     1  UNL1        0.0420
      5 C           0.7909    0.1518   28.9096 C.ar    1  UNL1        0.1721
      6 C           0.7355    0.6794   27.5065 C.ar    1  UNL1        0.0400
      7 C           1.9544    0.6201   26.6343 C.ar    1  UNL1        0.0033
      8 C           3.2287    0.0333   27.1652 C.ar    1  UNL1        0.0033
      9 C           3.2841   -0.4942   28.5682 C.ar    1  UNL1        0.0398
     10 C           2.0651   -0.4350   29.4404 C.ar    1  UNL1        0.1677
     11 O           2.1206   -0.9626   30.8435 O.3     1  UNL1       -0.5029
     12 H           2.9166   -1.3291   31.1751 H       1  UNL1        0.2923
     13 C          -1.7932    0.0926   29.1718 C.3     1  UNL1        0.2526
     14 O          -0.4280    0.2111   29.7818 O.3     1  UNL1       -0.4684
     15 C           1.4513    1.3530   22.1188 C.2     1  UNL1        0.0420
     16 C           0.9611    0.3409   21.1261 C.2     1  UNL1        0.0034
     17 C           1.8943   -0.2004   20.0839 C.ar    1  UNL1        0.0033
     18 C           2.0481    0.5115   18.7725 C.ar    1  UNL1        0.0033
     19 C           2.9812   -0.0298   17.7303 C.ar    1  UNL1        0.0398
     20 C           3.7607   -1.2828   17.9995 C.ar    1  UNL1        0.1677
     21 O           4.6939   -1.8241   16.9573 O.3     1  UNL1       -0.5029
     22 C           3.6069   -1.9946   19.3108 C.ar    1  UNL1        0.1721
     23 C           2.6737   -1.4534   20.3530 C.ar    1  UNL1        0.0400
     24 H           4.7899   -1.3794   16.1381 H       1  UNL1        0.2923
     25 O           4.3863   -3.2476   19.5800 O.3     1  UNL1       -0.4684
     26 C           3.8820   -4.5674   19.0760 C.3     1  UNL1        0.2526
@<TRIPOS>BOND
     1    13    14    1
     2    14     5    1
     3     5     6   ar
     4     6     7   ar
     5     7     3    1
     6     3     4    2
     7     4     1    1
     8     1     2    2
     9     1    15    1
    10    15    16    2
    11    16    17    1
    12    17    18   ar
    13    18    19   ar
    14    19    20   ar
    15    20    21    1
    16    20    22   ar
    17    22    25    1
    18    25    26    1
    19    22    23   ar
    20     7     8   ar
    21     8     9   ar
    22     9    10   ar
    23    10    11    1
    24    10     5   ar
    25    23    17   ar
    26    21    24    1
    27    11    12    1
@<TRIPOS>MOLECULE
*****
 26 27 0 0 0
SMALL
GASTEIGER

@<TRIPOS>ATOM
      1 C           0.4438    2.0178   23.1359 C.2     1  UNL1        0.1957
      2 O          -0.5298    3.1162   22.8261 O.2     1  UNL1       -0.2866
      3 C           0.9418    0.3152   21.2378 C.2     1  UNL1        0.0034
      4 C           1.3541    1.4979   22.0631 C.2     1  UNL1        0.0420
      5 C           3.5522   -1.9792   19.3216 C.ar    1  UNL1        0.1721
      6 C           2.6419   -1.4592   20.3944 C.ar    1  UNL1        0.0400
      7 C           1.8521   -0.2048   20.1649 C.ar    1  UNL1        0.0033
      8 C           1.9727    0.5297   18.8627 C.ar    1  UNL1        0.0033
      9 C           2.8831    0.0098   17.7899 C.ar    1  UNL1        0.0398
     10 C           3.6728   -1.2447   18.0194 C.ar    1  UNL1        0.1677
     11 O           4.5832   -1.7646   16.9465 O.3     1  UNL1       -0.5029
     12 H           4.6585   -1.3058   16.1330 H       1  UNL1        0.2923
     13 C           3.8389   -4.5439   19.0222 C.3     1  UNL1        0.2526
     14 O           4.3420   -3.2336   19.5511 O.3     1  UNL1       -0.4684
     15 C           0.5070    1.4395   24.5185 C.2     1  UNL1        0.0420
     16 C           1.8286    1.3032   25.2147 C.2     1  UNL1        0.0034
     17 C           1.8918    0.7249   26.5973 C.ar    1  UNL1        0.0033
     18 C           3.1706    0.1242   27.1013 C.ar    1  UNL1        0.0033
     19 C           3.2338   -0.4541   28.4839 C.ar    1  UNL1        0.0398
     20 C           2.0182   -0.4319   29.3625 C.ar    1  UNL1        0.1677
     21 O           2.0814   -1.0102   30.7450 O.3     1  UNL1       -0.5029
     22 C           0.7395    0.1687   28.8585 C.ar    1  UNL1        0.1721
     23 C           0.6763    0.7471   27.4759 C.ar    1  UNL1        0.0400
     24 H           2.8802   -1.3854   31.0599 H       1  UNL1        0.2923
     25 O          -0.4761    0.1910   29.7370 O.3     1  UNL1       -0.4684
     26 C          -1.8437    0.0997   29.1276 C.3     1  UNL1        0.2526
@<TRIPOS>BOND
     1    13    14    1
     2    14     5    1
     3     5     6   ar
     4     6     7   ar
     5     7     3    1
     6     3     4    2
     7     4     1    1
     8     1     2    2
     9     1    15    1
    10    15    16    2
    11    16    17    1
    12    17    18   ar
    13    18    19   ar
    14    19    20   ar
    15    20    21    1
    16    20    22   ar
    17    22    25    1
    18    25    26    1
    19    22    23   ar
    20     7     8   ar
    21     8     9   ar
    22     9    10   ar
    23    10    11    1
    24    10     5   ar
    25    23    17   ar
    26    21    24    1
    27    11    12    1
@<TRIPOS>MOLECULE
*****
 26 27 0 0 0
SMALL
GASTEIGER

@<TRIPOS>ATOM
      1 C           0.2181    1.8747   22.9393 C.2     1  UNL1        0.1957
      2 O          -0.7794    2.9945   22.9731 O.2     1  UNL1       -0.2866
      3 C           1.8382    0.3459   21.6023 C.2     1  UNL1        0.0034
      4 C           0.7972    1.4254   21.6306 C.2     1  UNL1        0.0420
      5 C           3.5673   -1.9334   18.8518 C.ar    1  UNL1        0.1721
      6 C           2.9882   -1.4841   20.1605 C.ar    1  UNL1        0.0400
      7 C           2.4174   -0.1034   20.2935 C.ar    1  UNL1        0.0033
      8 C           2.4256    0.8280   19.1178 C.ar    1  UNL1        0.0033
      9 C           3.0047    0.3787   17.8091 C.ar    1  UNL1        0.0398
     10 C           3.5756   -1.0020   17.6761 C.ar    1  UNL1        0.1677
     11 O           4.1547   -1.4513   16.3673 O.3     1  UNL1       -0.5029
     12 H           4.1599   -0.8694   15.6329 H       1  UNL1        0.2923
     13 C           3.3951   -4.4902   19.2798 C.3     1  UNL1        0.2526
     14 O           4.1382   -3.3142   18.7188 O.3     1  UNL1       -0.4684
     15 C           0.6364    1.2042   24.2142 C.2     1  UNL1        0.0420
     16 C           0.1633    1.7394   25.5333 C.2     1  UNL1        0.0034
     17 C           0.5816    1.0690   26.8082 C.ar    1  UNL1        0.0033
     18 C          -0.4531    0.6541   27.8119 C.ar    1  UNL1        0.0033
     19 C          -0.0348   -0.0164   29.0869 C.ar    1  UNL1        0.0398
     20 C           1.4182   -0.2720   29.3581 C.ar    1  UNL1        0.1677
     21 O           1.8365   -0.9425   30.6331 O.3     1  UNL1       -0.5029
     22 C           2.4528    0.1428   28.3544 C.ar    1  UNL1        0.1721
     23 C           2.0345    0.8133   27.0795 C.ar    1  UNL1        0.0400
     24 H           1.1902   -1.2016   31.2600 H       1  UNL1        0.2923
     25 O           3.9057   -0.1128   28.6257 O.3     1  UNL1       -0.4684
     26 C           4.5701   -1.3344   28.0631 C.3     1  UNL1        0.2526
@<TRIPOS>BOND
     1    13    14    1
     2    14     5    1
     3     5     6   ar
     4     6     7   ar
     5     7     3    1
     6     3     4    2
     7     4     1    1
     8     1     2    2
     9     1    15    1
    10    15    16    2
    11    16    17    1
    12    17    18   ar
    13    18    19   ar
    14    19    20   ar
    15    20    21    1
    16    20    22   ar
    17    22    25    1
    18    25    26    1
    19    22    23   ar
    20     7     8   ar
    21     8     9   ar
    22     9    10   ar
    23    10    11    1
    24    10     5   ar
    25    23    17   ar
    26    21    24    1
    27    11    12    1
@<TRIPOS>MOLECULE
*****
 26 27 0 0 0
SMALL
GASTEIGER

@<TRIPOS>ATOM
      1 C           0.2067    1.9706   22.9535 C.2     1  UNL1        0.1957
      2 O          -0.8289    3.0556   22.9753 O.2     1  UNL1       -0.2866
      3 C          -0.0609    1.6410   25.5166 C.2     1  UNL1        0.0034
      4 C           0.6644    1.3447   24.2375 C.2     1  UNL1        0.0420
      5 C           2.3195    0.1991   28.3459 C.ar    1  UNL1        0.1721
      6 C           1.8617    0.8251   27.0620 C.ar    1  UNL1        0.0400
      7 C           0.3969    1.0150   26.8007 C.ar    1  UNL1        0.0033
      8 C          -0.6101    0.5790   27.8233 C.ar    1  UNL1        0.0033
      9 C          -0.1523   -0.0469   29.1073 C.ar    1  UNL1        0.0398
     10 C           1.3125   -0.2368   29.3686 C.ar    1  UNL1        0.1677
     11 O           1.7703   -0.8628   30.6526 O.3     1  UNL1       -0.5029
     12 H           1.1412   -1.1351   31.2914 H       1  UNL1        0.2923
     13 C           4.6727   -0.5419   27.5316 C.3     1  UNL1        0.2526
     14 O           3.7843    0.0092   28.6072 O.3     1  UNL1       -0.4684
     15 C           0.7845    1.5116   21.6476 C.2     1  UNL1        0.0420
     16 C           1.7422    0.3574   21.6155 C.2     1  UNL1        0.0034
     17 C           2.3200   -0.1016   20.3096 C.ar    1  UNL1        0.0033
     18 C           2.1925    0.7605   19.0887 C.ar    1  UNL1        0.0033
     19 C           2.7703    0.3015   17.7828 C.ar    1  UNL1        0.0398
     20 C           3.4755   -1.0197   17.6978 C.ar    1  UNL1        0.1677
     21 O           4.0533   -1.4788   16.3918 O.3     1  UNL1       -0.5029
     22 C           3.6030   -1.8818   18.9186 C.ar    1  UNL1        0.1721
     23 C           3.0252   -1.4227   20.2245 C.ar    1  UNL1        0.0400
     24 H           3.9738   -0.9403   15.6292 H       1  UNL1        0.2923
     25 O           4.3082   -3.2029   18.8336 O.3     1  UNL1       -0.4684
     26 C           3.5650   -4.4706   19.1352 C.3     1  UNL1        0.2526
@<TRIPOS>BOND
     1    13    14    1
     2    14     5    1
     3     5     6   ar
     4     6     7   ar
     5     7     3    1
     6     3     4    2
     7     4     1    1
     8     1     2    2
     9     1    15    1
    10    15    16    2
    11    16    17    1
    12    17    18   ar
    13    18    19   ar
    14    19    20   ar
    15    20    21    1
    16    20    22   ar
    17    22    25    1
    18    25    26    1
    19    22    23   ar
    20     7     8   ar
    21     8     9   ar
    22     9    10   ar
    23    10    11    1
    24    10     5   ar
    25    23    17   ar
    26    21    24    1
    27    11    12    1
