@<TRIPOS>MOLECULE
*****
 28 30 0 0 0
SMALL
GASTEIGER

@<TRIPOS>ATOM
      1 C          -9.3279  -18.9157   21.5596 C.ar    1  UNL1        0.0252
      2 C          -8.0287  -18.8101   22.3018 C.ar    1  UNL1       -0.0009
      3 C          -6.7377  -19.1129   21.6007 C.ar    1  UNL1        0.0210
      4 C          -6.7459  -19.5213   20.1574 C.ar    1  UNL1        0.1397
      5 F          -5.4549  -19.8241   19.4563 F       1  UNL1       -0.2044
      6 C          -8.0451  -19.6270   19.4152 C.ar    1  UNL1        0.0587
      7 C          -9.3361  -19.3242   20.1163 C.ar    1  UNL1        0.1401
      8 F         -10.6354  -19.4298   19.3741 F       1  UNL1       -0.2044
      9 C         -10.4330  -20.0455   22.6647 C.3     1  UNL1        0.0291
     10 C         -10.6190  -18.6129   22.2607 C.3     1  UNL1        0.1080
     11 C         -10.3567  -17.2856   21.6133 C.3     1  UNL1        0.0388
     12 C         -11.3208  -16.1529   21.8072 C.3     1  UNL1        0.0671
     13 S         -12.5472  -16.3477   22.6486 S.3     1  UNL1       -0.0807
     14 C         -12.8096  -17.6750   23.2960 C.2     1  UNL1        0.1482
     15 N         -14.0360  -17.8698   24.1375 N.pl3   1  UNL1       -0.3380
     16 N         -11.8455  -18.8077   23.1021 N.2     1  UNL1       -0.2509
     17 H         -14.6688  -17.1264   24.2648 H       1  UNL1        0.1442
     18 H         -14.2082  -18.7410   24.5624 H       1  UNL1        0.1442
     19 C          -5.4385  -19.0072   22.3429 C.3     1  UNL1        0.0980
     20 N          -4.4264  -17.9759   21.9402 N.3     1  UNL1       -0.2892
     21 H          -4.3716  -17.3029   22.7047 H       1  UNL1        0.1237
     22 C          -3.0192  -18.3889   21.6252 C.3     1  UNL1        0.1307
     23 C          -1.8468  -19.2669   21.3017 C.3     1  UNL1        0.0245
     24 C          -3.2066  -19.8711   21.4913 C.3     1  UNL1        0.0245
     25 C          -2.3432  -17.0501   21.6497 C.3     1  UNL1        0.4088
     26 F          -1.6671  -15.7114   21.6744 F       1  UNL1       -0.1686
     27 F          -2.2082  -17.1456   23.1406 F       1  UNL1       -0.1686
     28 F          -2.4781  -16.9547   20.1589 F       1  UNL1       -0.1686
@<TRIPOS>BOND
     1    10     9    1
     2    10     1    1
     3     1     2   ar
     4     2     3   ar
     5     3    19    1
     6    19    20    1
     7    20    22    1
     8    22    25    1
     9    25    26    1
    10    25    27    1
    11    25    28    1
    12    22    23    1
    13    23    24    1
    14     3     4   ar
    15     4     5    1
    16     4     6   ar
    17     6     7   ar
    18     7     8    1
    19    10    11    1
    20    11    12    1
    21    12    13    1
    22    13    14    1
    23    14    15    1
    24    14    16    2
    25    16    10    1
    26     7     1   ar
    27    24    22    1
    28    20    21    1
    29    15    17    1
    30    15    18    1
@<TRIPOS>MOLECULE
*****
 28 30 0 0 0
SMALL
GASTEIGER

@<TRIPOS>ATOM
      1 C          -6.9857  -18.8701   22.0607 C.ar    1  UNL1        0.0252
      2 C          -7.7694  -17.6306   22.3760 C.ar    1  UNL1       -0.0009
      3 C          -9.0184  -17.7228   23.2015 C.ar    1  UNL1        0.0210
      4 C          -9.4837  -19.0544   23.7117 C.ar    1  UNL1        0.1397
      5 F         -10.7328  -19.1465   24.5372 F       1  UNL1       -0.2044
      6 C          -8.7000  -20.2939   23.3964 C.ar    1  UNL1        0.0587
      7 C          -7.4510  -20.2017   22.5709 C.ar    1  UNL1        0.1401
      8 F          -6.6672  -21.4412   22.2555 F       1  UNL1       -0.2044
      9 C          -6.7462  -19.0248   20.1535 C.3     1  UNL1        0.0291
     10 C          -5.7367  -18.7780   21.2351 C.3     1  UNL1        0.1080
     11 C          -5.1609  -18.5631   22.6034 C.3     1  UNL1        0.0388
     12 C          -3.6868  -18.3418   22.7706 C.3     1  UNL1        0.0671
     13 S          -2.7884  -18.3355   21.5694 S.3     1  UNL1       -0.0807
     14 C          -3.3641  -18.5503   20.2011 C.2     1  UNL1        0.1482
     15 N          -2.4657  -18.5440   18.9999 N.pl3   1  UNL1       -0.3380
     16 N          -4.8382  -18.7716   20.0339 N.2     1  UNL1       -0.2509
     17 H          -1.4982  -18.3987   19.1096 H       1  UNL1        0.1442
     18 H          -2.8436  -18.6850   18.1018 H       1  UNL1        0.1442
     19 C          -9.8022  -16.4832   23.5169 C.3     1  UNL1        0.0980
     20 N         -10.5603  -15.7788   22.4311 N.3     1  UNL1       -0.2892
     21 H          -9.8666  -15.3629   21.8097 H       1  UNL1        0.1237
     22 C         -11.5143  -16.5453   21.5637 C.3     1  UNL1        0.1307
     23 C         -12.1075  -17.1839   20.3429 C.3     1  UNL1        0.0245
     24 C         -10.8071  -16.4428   20.2449 C.3     1  UNL1        0.0245
     25 C         -12.5528  -16.9141   22.5813 C.3     1  UNL1        0.4088
     26 F         -13.5913  -17.2827   23.5989 F       1  UNL1       -0.1686
     27 F         -12.8437  -15.4606   22.8111 F       1  UNL1       -0.1686
     28 F         -12.2618  -18.3675   22.3515 F       1  UNL1       -0.1686
@<TRIPOS>BOND
     1    10     9    1
     2    10     1    1
     3     1     2   ar
     4     2     3   ar
     5     3    19    1
     6    19    20    1
     7    20    22    1
     8    22    25    1
     9    25    26    1
    10    25    27    1
    11    25    28    1
    12    22    23    1
    13    23    24    1
    14     3     4   ar
    15     4     5    1
    16     4     6   ar
    17     6     7   ar
    18     7     8    1
    19    10    11    1
    20    11    12    1
    21    12    13    1
    22    13    14    1
    23    14    15    1
    24    14    16    2
    25    16    10    1
    26     7     1   ar
    27    24    22    1
    28    20    21    1
    29    15    17    1
    30    15    18    1
@<TRIPOS>MOLECULE
*****
 28 30 0 0 0
SMALL
GASTEIGER

@<TRIPOS>ATOM
      1 C          -6.9656  -18.8590   21.9936 C.ar    1  UNL1        0.0252
      2 C          -7.7768  -17.6209   22.2364 C.ar    1  UNL1       -0.0009
      3 C          -9.0445  -17.6994   23.0343 C.ar    1  UNL1        0.0210
      4 C          -9.5010  -19.0161   23.5893 C.ar    1  UNL1        0.1397
      5 F         -10.7688  -19.0945   24.3872 F       1  UNL1       -0.2044
      6 C          -8.6898  -20.2542   23.3465 C.ar    1  UNL1        0.0587
      7 C          -7.4221  -20.1757   22.5487 C.ar    1  UNL1        0.1401
      8 F          -6.6108  -21.4138   22.3059 F       1  UNL1       -0.2044
      9 C          -6.6820  -19.0461   20.0954 C.3     1  UNL1        0.0291
     10 C          -5.6977  -18.7806   21.1957 C.3     1  UNL1        0.1080
     11 C          -5.1538  -18.5423   22.5731 C.3     1  UNL1        0.0388
     12 C          -3.6839  -18.3178   22.7705 C.3     1  UNL1        0.0671
     13 S          -2.7579  -18.3316   21.5904 S.3     1  UNL1       -0.0807
     14 C          -3.3019  -18.5698   20.2130 C.2     1  UNL1        0.1482
     15 N          -2.3760  -18.5836   19.0330 N.pl3   1  UNL1       -0.3380
     16 N          -4.7718  -18.7943   20.0156 N.2     1  UNL1       -0.2509
     17 H          -1.4112  -18.4362   19.1625 H       1  UNL1        0.1442
     18 H          -2.7330  -18.7399   18.1289 H       1  UNL1        0.1442
     19 C          -9.8558  -16.4613   23.2771 C.3     1  UNL1        0.0980
     20 N         -10.8531  -16.0054   22.2536 N.3     1  UNL1       -0.2892
     21 H         -10.3257  -15.7711   21.4126 H       1  UNL1        0.1237
     22 C         -11.9627  -16.9206   21.8280 C.3     1  UNL1        0.1307
     23 C         -13.2096  -17.7515   21.8977 C.3     1  UNL1        0.0245
     24 C         -12.7433  -16.9957   23.1066 C.3     1  UNL1        0.0245
     25 C         -11.5673  -17.1634   20.4015 C.3     1  UNL1        0.4088
     26 F         -11.1720  -17.4062   18.9751 F       1  UNL1       -0.1686
     27 F         -11.0535  -18.5222   20.7751 F       1  UNL1       -0.1686
     28 F         -12.0811  -15.8045   20.0279 F       1  UNL1       -0.1686
@<TRIPOS>BOND
     1    10     9    1
     2    10     1    1
     3     1     2   ar
     4     2     3   ar
     5     3    19    1
     6    19    20    1
     7    20    22    1
     8    22    25    1
     9    25    26    1
    10    25    27    1
    11    25    28    1
    12    22    23    1
    13    23    24    1
    14     3     4   ar
    15     4     5    1
    16     4     6   ar
    17     6     7   ar
    18     7     8    1
    19    10    11    1
    20    11    12    1
    21    12    13    1
    22    13    14    1
    23    14    15    1
    24    14    16    2
    25    16    10    1
    26     7     1   ar
    27    24    22    1
    28    20    21    1
    29    15    17    1
    30    15    18    1
@<TRIPOS>MOLECULE
*****
 28 30 0 0 0
SMALL
GASTEIGER

@<TRIPOS>ATOM
      1 C          -8.5884  -17.2733   23.4443 C.ar    1  UNL1        0.0252
      2 C          -7.7306  -18.2365   22.6785 C.ar    1  UNL1       -0.0009
      3 C          -6.2462  -18.0307   22.6135 C.ar    1  UNL1        0.0210
      4 C          -5.6197  -16.8618   23.3142 C.ar    1  UNL1        0.1397
      5 F          -4.1352  -16.6561   23.2491 F       1  UNL1       -0.2044
      6 C          -6.4774  -15.8986   24.0800 C.ar    1  UNL1        0.0587
      7 C          -7.9618  -16.1044   24.1450 C.ar    1  UNL1        0.1401
      8 F          -8.8197  -15.1412   24.9108 F       1  UNL1       -0.2044
      9 C          -9.6484  -18.2601   24.7176 C.3     1  UNL1        0.0291
     10 C         -10.0728  -17.4790   23.5094 C.3     1  UNL1        0.1080
     11 C          -9.9818  -16.6265   22.2786 C.3     1  UNL1        0.0388
     12 C         -11.2277  -16.2509   21.5325 C.3     1  UNL1        0.0671
     13 S         -12.5647  -16.7279   22.0173 S.3     1  UNL1       -0.0807
     14 C         -12.6558  -17.5805   23.2480 C.2     1  UNL1        0.1482
     15 N         -13.9928  -18.0575   23.7327 N.pl3   1  UNL1       -0.3380
     16 N         -11.4099  -17.9560   23.9941 N.2     1  UNL1       -0.2509
     17 H         -14.8105  -17.8110   23.2431 H       1  UNL1        0.1442
     18 H         -14.0525  -18.6170   24.5406 H       1  UNL1        0.1442
     19 C          -5.3884  -18.9939   21.8477 C.3     1  UNL1        0.0980
     20 N          -4.5366  -18.5026   20.7149 N.3     1  UNL1       -0.2892
     21 H          -4.6896  -17.4965   20.6463 H       1  UNL1        0.1237
     22 C          -3.0519  -18.7137   20.7466 C.3     1  UNL1        0.1307
     23 C          -1.7046  -19.1841   21.2088 C.3     1  UNL1        0.0245
     24 C          -2.9320  -19.5337   21.9969 C.3     1  UNL1        0.0245
     25 C          -2.6561  -17.9669   19.5073 C.3     1  UNL1        0.4088
     26 F          -2.2604  -17.2203   18.2681 F       1  UNL1       -0.1686
     27 F          -2.8852  -19.2032   18.6893 F       1  UNL1       -0.1686
     28 F          -2.4271  -16.7307   20.3255 F       1  UNL1       -0.1686
@<TRIPOS>BOND
     1    10     9    1
     2    10     1    1
     3     1     2   ar
     4     2     3   ar
     5     3    19    1
     6    19    20    1
     7    20    22    1
     8    22    25    1
     9    25    26    1
    10    25    27    1
    11    25    28    1
    12    22    23    1
    13    23    24    1
    14     3     4   ar
    15     4     5    1
    16     4     6   ar
    17     6     7   ar
    18     7     8    1
    19    10    11    1
    20    11    12    1
    21    12    13    1
    22    13    14    1
    23    14    15    1
    24    14    16    2
    25    16    10    1
    26     7     1   ar
    27    24    22    1
    28    20    21    1
    29    15    17    1
    30    15    18    1
@<TRIPOS>MOLECULE
*****
 28 30 0 0 0
SMALL
GASTEIGER

@<TRIPOS>ATOM
      1 C          -7.8977  -16.3273   23.3279 C.ar    1  UNL1        0.0252
      2 C          -6.5031  -16.7844   23.0178 C.ar    1  UNL1       -0.0009
      3 C          -5.3951  -16.5283   23.9958 C.ar    1  UNL1        0.0210
      4 C          -5.6816  -15.8151   25.2840 C.ar    1  UNL1        0.1397
      5 F          -4.5735  -15.5589   26.2620 F       1  UNL1       -0.2044
      6 C          -7.0762  -15.3580   25.5940 C.ar    1  UNL1        0.0587
      7 C          -8.1842  -15.6141   24.6160 C.ar    1  UNL1        0.1401
      8 F          -9.5789  -15.1570   24.9260 F       1  UNL1       -0.2044
      9 C          -8.4733  -15.2903   21.8074 C.3     1  UNL1        0.0291
     10 C          -9.0058  -16.5834   22.3498 C.3     1  UNL1        0.1080
     11 C          -9.1535  -17.7876   23.2319 C.3     1  UNL1        0.0388
     12 C         -10.2243  -18.7988   22.9476 C.3     1  UNL1        0.0671
     13 S         -11.1474  -18.6058   21.7811 S.3     1  UNL1       -0.0807
     14 C         -10.9998  -17.4016   20.8990 C.2     1  UNL1        0.1482
     15 N         -11.9229  -17.2086   19.7326 N.pl3   1  UNL1       -0.3380
     16 N          -9.9290  -16.3904   21.1833 N.2     1  UNL1       -0.2509
     17 H         -12.6257  -17.8723   19.5459 H       1  UNL1        0.1442
     18 H         -11.8260  -16.4182   19.1536 H       1  UNL1        0.1442
     19 C          -4.0004  -16.9854   23.6858 C.3     1  UNL1        0.0980
     20 N          -3.7812  -18.1908   22.8204 N.3     1  UNL1       -0.2892
     21 H          -4.7012  -18.4975   22.5043 H       1  UNL1        0.1237
     22 C          -2.9151  -18.0904   21.5999 C.3     1  UNL1        0.1307
     23 C          -1.9337  -17.5371   20.6096 C.3     1  UNL1        0.0245
     24 C          -2.2823  -16.7516   21.8390 C.3     1  UNL1        0.0245
     25 C          -3.2472  -19.3943   20.9369 C.3     1  UNL1        0.4088
     26 F          -3.5791  -20.6983   20.2740 F       1  UNL1       -0.1686
     27 F          -2.1325  -20.0601   21.6882 F       1  UNL1       -0.1686
     28 F          -4.3617  -18.7285   20.1857 F       1  UNL1       -0.1686
@<TRIPOS>BOND
     1    10     9    1
     2    10     1    1
     3     1     2   ar
     4     2     3   ar
     5     3    19    1
     6    19    20    1
     7    20    22    1
     8    22    25    1
     9    25    26    1
    10    25    27    1
    11    25    28    1
    12    22    23    1
    13    23    24    1
    14     3     4   ar
    15     4     5    1
    16     4     6   ar
    17     6     7   ar
    18     7     8    1
    19    10    11    1
    20    11    12    1
    21    12    13    1
    22    13    14    1
    23    14    15    1
    24    14    16    2
    25    16    10    1
    26     7     1   ar
    27    24    22    1
    28    20    21    1
    29    15    17    1
    30    15    18    1
@<TRIPOS>MOLECULE
*****
 28 30 0 0 0
SMALL
GASTEIGER

@<TRIPOS>ATOM
      1 C          -7.2869  -19.0522   21.8356 C.ar    1  UNL1        0.0252
      2 C          -8.3649  -19.2724   22.8551 C.ar    1  UNL1       -0.0009
      3 C          -9.7673  -19.5671   22.4120 C.ar    1  UNL1        0.0210
      4 C         -10.0917  -19.6416   20.9494 C.ar    1  UNL1        0.1397
      5 F         -11.4942  -19.9363   20.5063 F       1  UNL1       -0.2044
      6 C          -9.0137  -19.4214   19.9299 C.ar    1  UNL1        0.0587
      7 C          -7.6114  -19.1267   20.3730 C.ar    1  UNL1        0.1401
      8 F          -6.5333  -18.9064   19.3535 F       1  UNL1       -0.2044
      9 C          -5.6763  -20.0917   21.6255 C.3     1  UNL1        0.0291
     10 C          -5.8845  -18.7575   22.2787 C.3     1  UNL1        0.1080
     11 C          -6.5796  -17.5257   22.7780 C.3     1  UNL1        0.0388
     12 C          -5.8001  -16.4625   23.4935 C.3     1  UNL1        0.0671
     13 S          -4.3253  -16.6312   23.7097 S.3     1  UNL1       -0.0807
     14 C          -3.6302  -17.8630   23.2104 C.2     1  UNL1        0.1482
     15 N          -2.1554  -18.0316   23.4266 N.pl3   1  UNL1       -0.3380
     16 N          -4.4097  -18.9261   22.4949 N.2     1  UNL1       -0.2509
     17 H          -1.6438  -17.3339   23.8962 H       1  UNL1        0.1442
     18 H          -1.6992  -18.8401   23.0989 H       1  UNL1        0.1442
     19 C         -10.8454  -19.7874   23.4315 C.3     1  UNL1        0.0980
     20 N         -11.4180  -18.6213   24.1814 N.3     1  UNL1       -0.2892
     21 H         -10.6492  -18.2006   24.7033 H       1  UNL1        0.1237
     22 C         -12.0947  -17.5094   23.4359 C.3     1  UNL1        0.1307
     23 C         -12.2825  -16.2180   22.6963 C.3     1  UNL1        0.0245
     24 C         -10.9218  -16.6063   23.1940 C.3     1  UNL1        0.0245
     25 C         -13.5027  -18.0264   23.4188 C.3     1  UNL1        0.4088
     26 F         -14.9107  -18.5434   23.4019 F       1  UNL1       -0.1686
     27 F         -13.5501  -17.9468   24.9160 F       1  UNL1       -0.1686
     28 F         -13.4553  -18.1060   21.9217 F       1  UNL1       -0.1686
@<TRIPOS>BOND
     1    10     9    1
     2    10     1    1
     3     1     2   ar
     4     2     3   ar
     5     3    19    1
     6    19    20    1
     7    20    22    1
     8    22    25    1
     9    25    26    1
    10    25    27    1
    11    25    28    1
    12    22    23    1
    13    23    24    1
    14     3     4   ar
    15     4     5    1
    16     4     6   ar
    17     6     7   ar
    18     7     8    1
    19    10    11    1
    20    11    12    1
    21    12    13    1
    22    13    14    1
    23    14    15    1
    24    14    16    2
    25    16    10    1
    26     7     1   ar
    27    24    22    1
    28    20    21    1
    29    15    17    1
    30    15    18    1
@<TRIPOS>MOLECULE
*****
 28 30 0 0 0
SMALL
GASTEIGER

@<TRIPOS>ATOM
      1 C          -7.2005  -19.0725   21.5995 C.ar    1  UNL1        0.0252
      2 C          -8.2012  -19.3131   22.6907 C.ar    1  UNL1       -0.0009
      3 C          -9.6217  -19.6487   22.3450 C.ar    1  UNL1        0.0210
      4 C         -10.0415  -19.7437   20.9081 C.ar    1  UNL1        0.1397
      5 F         -11.4621  -20.0793   20.5624 F       1  UNL1       -0.2044
      6 C          -9.0409  -19.5031   19.8169 C.ar    1  UNL1        0.0587
      7 C          -7.6204  -19.1676   20.1626 C.ar    1  UNL1        0.1401
      8 F          -6.6196  -18.9270   19.0713 F       1  UNL1       -0.2044
      9 C          -6.4948  -17.6619   22.7089 C.3     1  UNL1        0.0291
     10 C          -5.7799  -18.7370   21.9451 C.3     1  UNL1        0.1080
     11 C          -5.5584  -19.9285   21.0614 C.3     1  UNL1        0.0388
     12 C          -4.1647  -20.4112   20.7885 C.3     1  UNL1        0.0671
     13 S          -2.9924  -19.7022   21.3994 S.3     1  UNL1       -0.0807
     14 C          -3.2139  -18.5106   22.2832 C.2     1  UNL1        0.1482
     15 N          -2.0416  -17.8016   22.8941 N.pl3   1  UNL1       -0.3380
     16 N          -4.6077  -18.0280   22.5560 N.2     1  UNL1       -0.2509
     17 H          -1.1268  -18.1184   22.7150 H       1  UNL1        0.1442
     18 H          -2.1870  -17.0196   23.4741 H       1  UNL1        0.1442
     19 C         -10.6224  -19.8892   23.4362 C.3     1  UNL1        0.0980
     20 N         -11.1591  -18.7348   24.2294 N.3     1  UNL1       -0.2892
     21 H         -10.4609  -17.9930   24.1791 H       1  UNL1        0.1237
     22 C         -12.4747  -18.1170   23.8584 C.3     1  UNL1        0.1307
     23 C         -13.9342  -17.7741   23.9059 C.3     1  UNL1        0.0245
     24 C         -13.3460  -18.6937   24.9346 C.3     1  UNL1        0.0245
     25 C         -12.0602  -17.3257   22.6534 C.3     1  UNL1        0.4088
     26 F         -11.6459  -16.5345   21.4483 F       1  UNL1       -0.1686
     27 F         -13.0116  -18.1177   21.8061 F       1  UNL1       -0.1686
     28 F         -11.1090  -16.5338   23.5006 F       1  UNL1       -0.1686
@<TRIPOS>BOND
     1    10     9    1
     2    10     1    1
     3     1     2   ar
     4     2     3   ar
     5     3    19    1
     6    19    20    1
     7    20    22    1
     8    22    25    1
     9    25    26    1
    10    25    27    1
    11    25    28    1
    12    22    23    1
    13    23    24    1
    14     3     4   ar
    15     4     5    1
    16     4     6   ar
    17     6     7   ar
    18     7     8    1
    19    10    11    1
    20    11    12    1
    21    12    13    1
    22    13    14    1
    23    14    15    1
    24    14    16    2
    25    16    10    1
    26     7     1   ar
    27    24    22    1
    28    20    21    1
    29    15    17    1
    30    15    18    1
@<TRIPOS>MOLECULE
*****
 28 30 0 0 0
SMALL
GASTEIGER

@<TRIPOS>ATOM
      1 C          -5.5655  -16.0881   24.0302 C.ar    1  UNL1        0.0252
      2 C          -6.9208  -16.3624   23.4491 C.ar    1  UNL1       -0.0009
      3 C          -8.1475  -16.1971   24.2964 C.ar    1  UNL1        0.0210
      4 C          -8.0188  -15.7576   25.7248 C.ar    1  UNL1        0.1397
      5 F          -9.2456  -15.5923   26.5721 F       1  UNL1       -0.2044
      6 C          -6.6635  -15.4833   26.3059 C.ar    1  UNL1        0.0587
      7 C          -5.4368  -15.6485   25.4586 C.ar    1  UNL1        0.1401
      8 F          -4.0813  -15.3742   26.0397 F       1  UNL1       -0.2044
      9 C          -4.4810  -14.7605   23.1469 C.3     1  UNL1        0.0291
     10 C          -4.3387  -16.2533   23.1830 C.3     1  UNL1        0.1080
     11 C          -4.6224  -17.6887   23.5132 C.3     1  UNL1        0.0388
     12 C          -3.7288  -18.7709   22.9838 C.3     1  UNL1        0.0671
     13 S          -2.5515  -18.4176   22.1240 S.3     1  UNL1       -0.0807
     14 C          -2.2678  -16.9823   21.7937 C.2     1  UNL1        0.1482
     15 N          -1.0905  -16.6290   20.9339 N.pl3   1  UNL1       -0.3380
     16 N          -3.1614  -15.9001   22.3232 N.2     1  UNL1       -0.2509
     17 H          -0.5040  -17.3393   20.5864 H       1  UNL1        0.1442
     18 H          -0.9043  -15.6869   20.7171 H       1  UNL1        0.1442
     19 C          -9.5029  -16.4714   23.7153 C.3     1  UNL1        0.0980
     20 N         -10.3453  -17.5824   24.2686 N.3     1  UNL1       -0.2892
     21 H         -11.1037  -17.1445   24.7916 H       1  UNL1        0.1237
     22 C         -10.9771  -18.5778   23.3414 C.3     1  UNL1        0.1307
     23 C         -11.1086  -19.7096   22.3657 C.3     1  UNL1        0.0245
     24 C          -9.7557  -19.3162   22.8803 C.3     1  UNL1        0.0245
     25 C         -12.4182  -18.1850   23.4804 C.3     1  UNL1        0.4088
     26 F         -13.8591  -17.7924   23.6194 F       1  UNL1       -0.1686
     27 F         -12.4604  -18.8206   24.8384 F       1  UNL1       -0.1686
     28 F         -12.3759  -17.5495   22.1223 F       1  UNL1       -0.1686
@<TRIPOS>BOND
     1    10     9    1
     2    10     1    1
     3     1     2   ar
     4     2     3   ar
     5     3    19    1
     6    19    20    1
     7    20    22    1
     8    22    25    1
     9    25    26    1
    10    25    27    1
    11    25    28    1
    12    22    23    1
    13    23    24    1
    14     3     4   ar
    15     4     5    1
    16     4     6   ar
    17     6     7   ar
    18     7     8    1
    19    10    11    1
    20    11    12    1
    21    12    13    1
    22    13    14    1
    23    14    15    1
    24    14    16    2
    25    16    10    1
    26     7     1   ar
    27    24    22    1
    28    20    21    1
    29    15    17    1
    30    15    18    1
@<TRIPOS>MOLECULE
*****
 28 30 0 0 0
SMALL
GASTEIGER

@<TRIPOS>ATOM
      1 C          -5.6126  -16.1394   23.9844 C.ar    1  UNL1        0.0252
      2 C          -6.9607  -16.3868   23.3750 C.ar    1  UNL1       -0.0009
      3 C          -8.2005  -16.2134   24.2014 C.ar    1  UNL1        0.0210
      4 C          -8.0922  -15.7927   25.6371 C.ar    1  UNL1        0.1397
      5 F          -9.3320  -15.6193   26.4634 F       1  UNL1       -0.2044
      6 C          -6.7441  -15.5452   26.2464 C.ar    1  UNL1        0.0587
      7 C          -5.5043  -15.7186   25.4201 C.ar    1  UNL1        0.1401
      8 F          -4.1561  -15.4712   26.0294 F       1  UNL1       -0.2044
      9 C          -4.4727  -14.8161   23.1669 C.3     1  UNL1        0.0291
     10 C          -4.3728  -16.3128   23.1580 C.3     1  UNL1        0.1080
     11 C          -4.7034  -17.7492   23.4361 C.3     1  UNL1        0.0388
     12 C          -3.8289  -18.8392   22.8910 C.3     1  UNL1        0.0671
     13 S          -2.6238  -18.4927   22.0678 S.3     1  UNL1       -0.0807
     14 C          -2.2932  -17.0564   21.7897 C.2     1  UNL1        0.1482
     15 N          -1.0880  -16.7099   20.9664 N.pl3   1  UNL1       -0.3380
     16 N          -3.1676  -15.9663   22.3348 N.2     1  UNL1       -0.2509
     17 H          -0.5141  -17.4253   20.6086 H       1  UNL1        0.1442
     18 H          -0.8711  -15.7671   20.7839 H       1  UNL1        0.1442
     19 C          -9.5487  -16.4608   23.5920 C.3     1  UNL1        0.0980
     20 N          -9.6610  -17.2155   22.3006 N.3     1  UNL1       -0.2892
     21 H          -8.7633  -17.1212   21.8255 H       1  UNL1        0.1237
     22 C          -9.9927  -18.6783   22.3131 C.3     1  UNL1        0.1307
     23 C         -10.7449  -19.9510   22.5674 C.3     1  UNL1        0.0245
     24 C         -11.3185  -18.6388   23.0135 C.3     1  UNL1        0.0245
     25 C          -8.7820  -19.2259   21.6171 C.3     1  UNL1        0.4088
     26 F          -7.5713  -19.7735   20.9211 F       1  UNL1       -0.1686
     27 F          -9.4183  -18.9440   20.2883 F       1  UNL1       -0.1686
     28 F          -8.1457  -19.5078   22.9459 F       1  UNL1       -0.1686
@<TRIPOS>BOND
     1    10     9    1
     2    10     1    1
     3     1     2   ar
     4     2     3   ar
     5     3    19    1
     6    19    20    1
     7    20    22    1
     8    22    25    1
     9    25    26    1
    10    25    27    1
    11    25    28    1
    12    22    23    1
    13    23    24    1
    14     3     4   ar
    15     4     5    1
    16     4     6   ar
    17     6     7   ar
    18     7     8    1
    19    10    11    1
    20    11    12    1
    21    12    13    1
    22    13    14    1
    23    14    15    1
    24    14    16    2
    25    16    10    1
    26     7     1   ar
    27    24    22    1
    28    20    21    1
    29    15    17    1
    30    15    18    1
