@<TRIPOS>MOLECULE
*****
 29 32 0 0 0
SMALL
GASTEIGER

@<TRIPOS>ATOM
      1 C           4.4360   -1.9624   20.2581 C.2     1  UNL1        0.0918
      2 C           5.5547   -2.3999   19.3597 C.2     1  UNL1        0.0183
      3 C           6.6319   -3.3004   19.8874 C.2     1  UNL1        0.0511
      4 C           6.5906   -3.7634   21.3135 C.2     1  UNL1        0.2322
      5 N           7.5050   -4.6474   22.1088 N.2     1  UNL1       -0.0308
      6 C           6.9515   -4.7562   23.4987 C.2     1  UNL1        0.3767
      7 N           5.6949   -3.9395   23.5625 N.2     1  UNL1       -0.0346
      8 C           5.4719   -3.3259   22.2119 C.2     1  UNL1        0.2191
      9 C           4.3946   -2.4254   21.6842 C.3     1  UNL1        0.1226
     10 C           7.5496   -5.5435   24.6268 C.ar    1  UNL1        0.1061
     11 C           8.1777   -6.8790   24.3590 C.ar    1  UNL1        0.0141
     12 C           8.7758   -7.6663   25.4870 C.ar    1  UNL1        0.0614
     13 C           8.7457   -7.1180   26.8828 C.ar    1  UNL1        0.2648
     14 O           9.3438   -7.9053   28.0109 O.2     1  UNL1       -0.2666
     15 N           8.1176   -5.7825   27.1506 N.ar    1  UNL1       -0.2729
     16 C           7.5196   -4.9952   26.0227 C.ar    1  UNL1        0.0906
     17 C           8.0876   -5.2342   28.5466 C.ar    1  UNL1        0.0669
     18 C           6.9492   -5.5749   29.4619 C.ar    1  UNL1        0.0176
     19 C           6.9192   -5.0266   30.8577 C.ar    1  UNL1        0.0015
     20 C           8.0277   -4.1377   31.3383 C.ar    1  UNL1        0.0001
     21 C           9.1662   -3.7970   30.4230 C.ar    1  UNL1        0.0015
     22 C           9.1961   -4.3452   29.0272 C.ar    1  UNL1        0.0176
     23 S           3.3587   -1.0618   19.7303 S.O2    1  UNL1        0.0022
     24 O           2.5849   -1.2419   21.0026 O.2     1  UNL1       -0.1690
     25 O           4.1326   -0.8817   18.4580 O.2     1  UNL1       -0.1690
     26 C           1.3150   -0.7355   20.1957 C.3     1  UNL1        0.0240
     27 C           2.2814   -0.1613   19.2026 C.3     1  UNL1        0.1147
     28 C           3.2479    0.4129   18.2095 C.3     1  UNL1        0.0240
     29 C           1.2042    0.7392   18.6748 C.3     1  UNL1        0.0240
@<TRIPOS>BOND
     1    26    27    1
     2    27    28    1
     3    27    29    1
     4    27    23    1
     5    23    24    2
     6    23    25    2
     7    23     1    1
     8     1     2    2
     9     2     3    1
    10     3     4    2
    11     4     5    1
    12     5     6    2
    13     6    10    1
    14    10    11   ar
    15    11    12   ar
    16    12    13   ar
    17    13    14    2
    18    13    15   ar
    19    15    17    1
    20    17    18   ar
    21    18    19   ar
    22    19    20   ar
    23    20    21   ar
    24    21    22   ar
    25    15    16   ar
    26     6     7    1
    27     7     8    2
    28     8     9    1
    29     9     1    1
    30     8     4    1
    31    16    10   ar
    32    22    17   ar
@<TRIPOS>MOLECULE
*****
 29 32 0 0 0
SMALL
GASTEIGER

@<TRIPOS>ATOM
      1 C           7.2283   -4.7446   26.7277 C.2     1  UNL1        0.0918
      2 C           7.9849   -5.8153   25.9989 C.2     1  UNL1        0.0183
      3 C           7.9460   -5.8736   24.5006 C.2     1  UNL1        0.0511
      4 C           7.1505   -4.8613   23.7310 C.2     1  UNL1        0.2322
      5 N           6.9261   -4.6684   22.2605 N.2     1  UNL1       -0.0308
      6 C           6.0308   -3.4784   22.0804 C.2     1  UNL1        0.3767
      7 N           5.7018   -2.9359   23.4396 N.2     1  UNL1       -0.0346
      8 C           6.3939   -3.7907   24.4597 C.2     1  UNL1        0.2191
      9 C           6.4328   -3.7323   25.9581 C.3     1  UNL1        0.1226
     10 C           5.5490   -2.9276   20.7709 C.ar    1  UNL1        0.1061
     11 C           6.1882   -3.3733   19.4892 C.ar    1  UNL1        0.0141
     12 C           5.7065   -2.8226   18.1798 C.ar    1  UNL1        0.0614
     13 C           4.5856   -1.8262   18.1521 C.ar    1  UNL1        0.2648
     14 O           4.1038   -1.2754   16.8426 O.2     1  UNL1       -0.2666
     15 N           3.9464   -1.3805   19.4338 N.ar    1  UNL1       -0.2729
     16 C           4.4281   -1.9312   20.7432 C.ar    1  UNL1        0.0906
     17 C           2.8255   -0.3841   19.4061 C.ar    1  UNL1        0.0669
     18 C           1.5407   -0.6804   20.1212 C.ar    1  UNL1        0.0176
     19 C           0.4199    0.3160   20.0934 C.ar    1  UNL1        0.0015
     20 C           0.5839    1.6088   19.3506 C.ar    1  UNL1        0.0001
     21 C           1.8687    1.9052   18.6355 C.ar    1  UNL1        0.0015
     22 C           2.9895    0.9087   18.6633 C.ar    1  UNL1        0.0176
     23 S           7.2672   -4.6862   28.2260 S.O2    1  UNL1        0.0022
     24 O           8.6182   -4.0372   28.1657 O.2     1  UNL1       -0.1690
     25 O           5.9162   -5.3352   28.2864 O.2     1  UNL1       -0.1690
     26 C           7.7367   -6.0641   29.7692 C.3     1  UNL1        0.0240
     27 C           7.3061   -4.6279   29.7244 C.3     1  UNL1        0.1147
     28 C           6.8755   -3.1917   29.6796 C.3     1  UNL1        0.0240
     29 C           7.3450   -4.5695   31.2228 C.3     1  UNL1        0.0240
@<TRIPOS>BOND
     1    26    27    1
     2    27    28    1
     3    27    29    1
     4    27    23    1
     5    23    24    2
     6    23    25    2
     7    23     1    1
     8     1     2    2
     9     2     3    1
    10     3     4    2
    11     4     5    1
    12     5     6    2
    13     6    10    1
    14    10    11   ar
    15    11    12   ar
    16    12    13   ar
    17    13    14    2
    18    13    15   ar
    19    15    17    1
    20    17    18   ar
    21    18    19   ar
    22    19    20   ar
    23    20    21   ar
    24    21    22   ar
    25    15    16   ar
    26     6     7    1
    27     7     8    2
    28     8     9    1
    29     9     1    1
    30     8     4    1
    31    16    10   ar
    32    22    17   ar
@<TRIPOS>MOLECULE
*****
 29 32 0 0 0
SMALL
GASTEIGER

@<TRIPOS>ATOM
      1 C           2.9002   -0.5927   19.0700 C.2     1  UNL1        0.0918
      2 C           3.4051    0.6634   18.4240 C.2     1  UNL1        0.0183
      3 C           2.6186    1.9353   18.5410 C.2     1  UNL1        0.0511
      4 C           1.3274    1.9512   19.3040 C.2     1  UNL1        0.2322
      5 N           0.3425    3.0465   19.5876 N.2     1  UNL1       -0.0308
      6 C          -0.7711    2.4674   20.4090 C.2     1  UNL1        0.3767
      7 N          -0.4744    1.0142   20.6330 N.2     1  UNL1       -0.0346
      8 C           0.8225    0.6952   19.9501 C.2     1  UNL1        0.2191
      9 C           1.6089   -0.5768   19.8331 C.3     1  UNL1        0.1226
     10 C          -1.9707    3.2110   20.9171 C.ar    1  UNL1        0.1061
     11 C          -3.0741    3.5884   19.9737 C.ar    1  UNL1        0.0141
     12 C          -4.2736    4.3320   20.4817 C.ar    1  UNL1        0.0614
     13 C          -4.3698    4.6981   21.9331 C.ar    1  UNL1        0.2648
     14 O          -5.5694    5.4417   22.4413 O.2     1  UNL1       -0.2666
     15 N          -3.2664    4.3206   22.8765 N.ar    1  UNL1       -0.2729
     16 C          -2.0668    3.5770   22.3685 C.ar    1  UNL1        0.0906
     17 C          -3.3626    4.6867   24.3280 C.ar    1  UNL1        0.0669
     18 C          -4.1424    3.8185   25.2704 C.ar    1  UNL1        0.0176
     19 C          -4.2385    4.1846   26.7218 C.ar    1  UNL1        0.0015
     20 C          -3.5549    5.4189   27.2309 C.ar    1  UNL1        0.0001
     21 C          -2.7751    6.2871   26.2885 C.ar    1  UNL1        0.0015
     22 C          -2.6789    5.9210   24.8371 C.ar    1  UNL1        0.0176
     23 S           3.6866   -1.8646   18.9530 S.O2    1  UNL1        0.0022
     24 O           4.0139   -1.5311   17.5277 O.2     1  UNL1       -0.1690
     25 O           3.3593   -2.1981   20.3784 O.2     1  UNL1       -0.1690
     26 C           5.6798   -2.3517   18.4146 C.3     1  UNL1        0.0240
     27 C           4.4730   -3.1366   18.8360 C.3     1  UNL1        0.1147
     28 C           3.2662   -3.9215   19.2575 C.3     1  UNL1        0.0240
     29 C           5.2594   -4.4085   18.7190 C.3     1  UNL1        0.0240
@<TRIPOS>BOND
     1    26    27    1
     2    27    28    1
     3    27    29    1
     4    27    23    1
     5    23    24    2
     6    23    25    2
     7    23     1    1
     8     1     2    2
     9     2     3    1
    10     3     4    2
    11     4     5    1
    12     5     6    2
    13     6    10    1
    14    10    11   ar
    15    11    12   ar
    16    12    13   ar
    17    13    14    2
    18    13    15   ar
    19    15    17    1
    20    17    18   ar
    21    18    19   ar
    22    19    20   ar
    23    20    21   ar
    24    21    22   ar
    25    15    16   ar
    26     6     7    1
    27     7     8    2
    28     8     9    1
    29     9     1    1
    30     8     4    1
    31    16    10   ar
    32    22    17   ar
@<TRIPOS>MOLECULE
*****
 29 32 0 0 0
SMALL
GASTEIGER

@<TRIPOS>ATOM
      1 C           7.3035   -4.8459   25.9789 C.2     1  UNL1        0.0918
      2 C           6.7683   -3.5693   26.5566 C.2     1  UNL1        0.0183
      3 C           6.1324   -2.5488   25.6598 C.2     1  UNL1        0.0511
      4 C           6.0319   -2.8048   24.1853 C.2     1  UNL1        0.2322
      5 N           5.4621   -1.9906   23.0618 N.2     1  UNL1       -0.0308
      6 C           5.6452   -2.7640   21.7896 C.2     1  UNL1        0.3767
      7 N           6.3282   -4.0562   22.1269 N.2     1  UNL1       -0.0346
      8 C           6.5671   -4.0814   23.6076 C.2     1  UNL1        0.2191
      9 C           7.2029   -5.1019   24.5044 C.3     1  UNL1        0.1226
     10 C           5.2200   -2.3226   20.4204 C.ar    1  UNL1        0.1061
     11 C           5.6456   -3.1059   19.2141 C.ar    1  UNL1        0.0141
     12 C           5.2204   -2.6645   17.8450 C.ar    1  UNL1        0.0614
     13 C           4.3697   -1.4399   17.6823 C.ar    1  UNL1        0.2648
     14 O           3.9445   -0.9985   16.3132 O.2     1  UNL1       -0.2666
     15 N           3.9442   -0.6566   18.8887 N.ar    1  UNL1       -0.2729
     16 C           4.3693   -1.0980   20.2577 C.ar    1  UNL1        0.0906
     17 C           3.0934    0.5681   18.7259 C.ar    1  UNL1        0.0669
     18 C           1.6031    0.4370   18.6172 C.ar    1  UNL1        0.0176
     19 C           0.7524    1.6616   18.4545 C.ar    1  UNL1        0.0015
     20 C           1.3920    3.0174   18.4004 C.ar    1  UNL1        0.0001
     21 C           2.8823    3.1484   18.5091 C.ar    1  UNL1        0.0015
     22 C           3.7330    1.9238   18.6718 C.ar    1  UNL1        0.0176
     23 S           7.9394   -5.8664   26.8757 S.O2    1  UNL1        0.0022
     24 O           9.2936   -5.4692   26.3675 O.2     1  UNL1       -0.1690
     25 O           6.5851   -6.2636   27.3838 O.2     1  UNL1       -0.1690
     26 C           9.1973   -7.5485   26.5786 C.3     1  UNL1        0.0240
     27 C           8.5752   -6.8869   27.7725 C.3     1  UNL1        0.1147
     28 C           7.9532   -6.2254   28.9664 C.3     1  UNL1        0.0240
     29 C           9.2111   -7.9075   28.6693 C.3     1  UNL1        0.0240
@<TRIPOS>BOND
     1    26    27    1
     2    27    28    1
     3    27    29    1
     4    27    23    1
     5    23    24    2
     6    23    25    2
     7    23     1    1
     8     1     2    2
     9     2     3    1
    10     3     4    2
    11     4     5    1
    12     5     6    2
    13     6    10    1
    14    10    11   ar
    15    11    12   ar
    16    12    13   ar
    17    13    14    2
    18    13    15   ar
    19    15    17    1
    20    17    18   ar
    21    18    19   ar
    22    19    20   ar
    23    20    21   ar
    24    21    22   ar
    25    15    16   ar
    26     6     7    1
    27     7     8    2
    28     8     9    1
    29     9     1    1
    30     8     4    1
    31    16    10   ar
    32    22    17   ar
@<TRIPOS>MOLECULE
*****
 29 32 0 0 0
SMALL
GASTEIGER

@<TRIPOS>ATOM
      1 C           7.3075   -4.4700   28.0954 C.2     1  UNL1        0.0918
      2 C           6.6123   -3.1805   28.4175 C.2     1  UNL1        0.0183
      3 C           6.0208   -2.3518   27.3160 C.2     1  UNL1        0.0511
      4 C           6.1244   -2.8127   25.8923 C.2     1  UNL1        0.2322
      5 N           5.6417   -2.2122   24.6053 N.2     1  UNL1       -0.0308
      6 C           6.0385   -3.1307   23.4877 C.2     1  UNL1        0.3767
      7 N           6.7665   -4.2988   24.0840 N.2     1  UNL1       -0.0346
      8 C           6.8195   -4.1022   25.5702 C.2     1  UNL1        0.2191
      9 C           7.4111   -4.9309   26.6717 C.3     1  UNL1        0.1226
     10 C           5.7568   -2.9183   22.0297 C.ar    1  UNL1        0.1061
     11 C           6.5472   -3.6653   20.9966 C.ar    1  UNL1        0.0141
     12 C           6.2655   -3.4529   19.5387 C.ar    1  UNL1        0.0614
     13 C           5.1935   -2.4936   19.1139 C.ar    1  UNL1        0.2648
     14 O           4.9118   -2.2812   17.6560 O.2     1  UNL1       -0.2666
     15 N           4.4031   -1.7467   20.1471 N.ar    1  UNL1       -0.2729
     16 C           4.6848   -1.9590   21.6050 C.ar    1  UNL1        0.0906
     17 C           3.3310   -0.7874   19.7222 C.ar    1  UNL1        0.0669
     18 C           1.9107   -1.0132   20.1484 C.ar    1  UNL1        0.0176
     19 C           0.8387   -0.0539   19.7236 C.ar    1  UNL1        0.0015
     20 C           1.1870    1.1312   18.8726 C.ar    1  UNL1        0.0001
     21 C           2.6074    1.3570   18.4464 C.ar    1  UNL1        0.0015
     22 C           3.6793    0.3977   18.8712 C.ar    1  UNL1        0.0176
     23 S           7.8990   -5.2987   29.1969 S.O2    1  UNL1        0.0022
     24 O           6.5460   -5.4183   29.8335 O.2     1  UNL1       -0.1690
     25 O           9.2519   -5.1791   28.5603 O.2     1  UNL1       -0.1690
     26 C           9.3109   -6.8790   29.2925 C.3     1  UNL1        0.0240
     27 C           8.4905   -6.1274   30.2984 C.3     1  UNL1        0.1147
     28 C           7.6701   -5.3758   31.3044 C.3     1  UNL1        0.0240
     29 C           9.0821   -6.9561   31.4000 C.3     1  UNL1        0.0240
@<TRIPOS>BOND
     1    26    27    1
     2    27    28    1
     3    27    29    1
     4    27    23    1
     5    23    24    2
     6    23    25    2
     7    23     1    1
     8     1     2    2
     9     2     3    1
    10     3     4    2
    11     4     5    1
    12     5     6    2
    13     6    10    1
    14    10    11   ar
    15    11    12   ar
    16    12    13   ar
    17    13    14    2
    18    13    15   ar
    19    15    17    1
    20    17    18   ar
    21    18    19   ar
    22    19    20   ar
    23    20    21   ar
    24    21    22   ar
    25    15    16   ar
    26     6     7    1
    27     7     8    2
    28     8     9    1
    29     9     1    1
    30     8     4    1
    31    16    10   ar
    32    22    17   ar
@<TRIPOS>MOLECULE
*****
 29 32 0 0 0
SMALL
GASTEIGER

@<TRIPOS>ATOM
      1 C           1.5856    1.1028   28.9000 C.2     1  UNL1        0.0918
      2 C           0.2753    1.8265   28.8045 C.2     1  UNL1        0.0183
      3 C          -0.3407    2.0885   27.4622 C.2     1  UNL1        0.0511
      4 C           0.3536    1.6268   26.2153 C.2     1  UNL1        0.2322
      5 N          -0.0083    1.7408   24.7641 N.2     1  UNL1       -0.0308
      6 C           1.0785    1.0875   23.9627 C.2     1  UNL1        0.3767
      7 N           2.1120    0.5698   24.9186 N.2     1  UNL1       -0.0346
      8 C           1.6640    0.9031   26.3109 C.2     1  UNL1        0.2191
      9 C           2.2800    0.6411   27.6532 C.3     1  UNL1        0.1226
     10 C           1.1237    0.9722   22.4678 C.ar    1  UNL1        0.1061
     11 C           0.1462    1.7382   21.6266 C.ar    1  UNL1        0.0141
     12 C           0.1914    1.6230   20.1317 C.ar    1  UNL1        0.0614
     13 C           1.2141    0.7416   19.4781 C.ar    1  UNL1        0.2648
     14 O           1.2593    0.6263   17.9831 O.2     1  UNL1       -0.2666
     15 N           2.1916   -0.0244   20.3193 N.ar    1  UNL1       -0.2729
     16 C           2.1464    0.0908   21.8141 C.ar    1  UNL1        0.0906
     17 C           3.2143   -0.9058   19.6655 C.ar    1  UNL1        0.0669
     18 C           3.0694   -2.3974   19.7290 C.ar    1  UNL1        0.0176
     19 C           4.0921   -3.2787   19.0753 C.ar    1  UNL1        0.0015
     20 C           5.2597   -2.6684   18.3581 C.ar    1  UNL1        0.0001
     21 C           5.4046   -1.1768   18.2947 C.ar    1  UNL1        0.0015
     22 C           4.3819   -0.2955   18.9484 C.ar    1  UNL1        0.0176
     23 S           2.2016    0.8409   30.2424 S.O2    1  UNL1        0.0022
     24 O           1.6273   -0.5448   30.2355 O.2     1  UNL1       -0.1690
     25 O           2.7760    2.2265   30.2493 O.2     1  UNL1       -0.1690
     26 C           3.5773   -0.5798   31.0100 C.3     1  UNL1        0.0240
     27 C           2.8176    0.5789   31.5847 C.3     1  UNL1        0.1147
     28 C           2.0580    1.7376   32.1595 C.3     1  UNL1        0.0240
     29 C           3.4337    0.3169   32.9271 C.3     1  UNL1        0.0240
@<TRIPOS>BOND
     1    26    27    1
     2    27    28    1
     3    27    29    1
     4    27    23    1
     5    23    24    2
     6    23    25    2
     7    23     1    1
     8     1     2    2
     9     2     3    1
    10     3     4    2
    11     4     5    1
    12     5     6    2
    13     6    10    1
    14    10    11   ar
    15    11    12   ar
    16    12    13   ar
    17    13    14    2
    18    13    15   ar
    19    15    17    1
    20    17    18   ar
    21    18    19   ar
    22    19    20   ar
    23    20    21   ar
    24    21    22   ar
    25    15    16   ar
    26     6     7    1
    27     7     8    2
    28     8     9    1
    29     9     1    1
    30     8     4    1
    31    16    10   ar
    32    22    17   ar
@<TRIPOS>MOLECULE
*****
 29 32 0 0 0
SMALL
GASTEIGER

@<TRIPOS>ATOM
      1 C           2.3752   -0.5997   21.2562 C.2     1  UNL1        0.0918
      2 C           2.6770   -1.4933   20.0899 C.2     1  UNL1        0.0183
      3 C           3.6628   -2.6140   20.2391 C.2     1  UNL1        0.0511
      4 C           4.3469   -2.8411   21.5545 C.2     1  UNL1        0.2322
      5 N           5.3570   -3.8572   21.9984 N.2     1  UNL1       -0.0308
      6 C           5.6795   -3.5916   23.4391 C.2     1  UNL1        0.3767
      7 N           4.8687   -2.4112   23.8856 N.2     1  UNL1       -0.0346
      8 C           4.0451   -1.9474   22.7208 C.2     1  UNL1        0.2191
      9 C           3.0593   -0.8267   22.5716 C.3     1  UNL1        0.1226
     10 C           6.6437   -4.3697   24.2847 C.ar    1  UNL1        0.1061
     11 C           7.5753   -5.3562   23.6452 C.ar    1  UNL1        0.0141
     12 C           8.5394   -6.1343   24.4908 C.ar    1  UNL1        0.0614
     13 C           8.5718   -5.9260   25.9758 C.ar    1  UNL1        0.2648
     14 O           9.5359   -6.7041   26.8215 O.2     1  UNL1       -0.2666
     15 N           7.6402   -4.9395   26.6153 N.ar    1  UNL1       -0.2729
     16 C           6.6761   -4.1614   25.7698 C.ar    1  UNL1        0.0906
     17 C           7.6727   -4.7312   28.1005 C.ar    1  UNL1        0.0669
     18 C           8.5834   -3.6971   28.6930 C.ar    1  UNL1        0.0176
     19 C           8.6159   -3.4888   30.1781 C.ar    1  UNL1        0.0015
     20 C           7.7376   -4.3147   31.0707 C.ar    1  UNL1        0.0001
     21 C           6.8269   -5.3488   30.4781 C.ar    1  UNL1        0.0015
     22 C           6.7944   -5.5570   28.9930 C.ar    1  UNL1        0.0176
     23 S           1.3894    0.5210   21.1070 S.O2    1  UNL1        0.0022
     24 O           0.8878   -0.0900   19.8322 O.2     1  UNL1       -0.1690
     25 O           1.8910    1.1319   22.3818 O.2     1  UNL1       -0.1690
     26 C           0.4370    1.4726   19.4677 C.3     1  UNL1        0.0240
     27 C           0.4036    1.6417   20.9578 C.3     1  UNL1        0.1147
     28 C           0.3703    1.8107   22.4479 C.3     1  UNL1        0.0240
     29 C          -0.5822    2.7623   20.8086 C.3     1  UNL1        0.0240
@<TRIPOS>BOND
     1    26    27    1
     2    27    28    1
     3    27    29    1
     4    27    23    1
     5    23    24    2
     6    23    25    2
     7    23     1    1
     8     1     2    2
     9     2     3    1
    10     3     4    2
    11     4     5    1
    12     5     6    2
    13     6    10    1
    14    10    11   ar
    15    11    12   ar
    16    12    13   ar
    17    13    14    2
    18    13    15   ar
    19    15    17    1
    20    17    18   ar
    21    18    19   ar
    22    19    20   ar
    23    20    21   ar
    24    21    22   ar
    25    15    16   ar
    26     6     7    1
    27     7     8    2
    28     8     9    1
    29     9     1    1
    30     8     4    1
    31    16    10   ar
    32    22    17   ar
@<TRIPOS>MOLECULE
*****
 29 32 0 0 0
SMALL
GASTEIGER

@<TRIPOS>ATOM
      1 C          -5.2443    4.5910   23.9701 C.2     1  UNL1        0.0918
      2 C          -6.0455    4.1081   22.7976 C.2     1  UNL1        0.0183
      3 C          -5.3512    3.5105   21.6098 C.2     1  UNL1        0.0511
      4 C          -3.8557    3.3958   21.5945 C.2     1  UNL1        0.2322
      5 N          -2.9009    2.8555   20.5717 N.2     1  UNL1       -0.0308
      6 C          -1.5095    3.0045   21.1120 C.2     1  UNL1        0.3767
      7 N          -1.6045    3.6368   22.4688 N.2     1  UNL1       -0.0346
      8 C          -3.0545    3.8787   22.7671 C.2     1  UNL1        0.2191
      9 C          -3.7488    4.4763   23.9549 C.3     1  UNL1        0.1226
     10 C          -0.2452    2.5932   20.4174 C.ar    1  UNL1        0.1061
     11 C           0.2538    3.3788   19.2410 C.ar    1  UNL1        0.0141
     12 C           1.5181    2.9676   18.5464 C.ar    1  UNL1        0.0614
     13 C           2.2833    1.7709   19.0281 C.ar    1  UNL1        0.2648
     14 O           3.5476    1.3596   18.3335 O.2     1  UNL1       -0.2666
     15 N           1.7843    0.9853   20.2045 N.ar    1  UNL1       -0.2729
     16 C           0.5201    1.3965   20.8991 C.ar    1  UNL1        0.0906
     17 C           2.5496   -0.2115   20.6863 C.ar    1  UNL1        0.0669
     18 C           2.8268   -1.3508   19.7508 C.ar    1  UNL1        0.0176
     19 C           3.5921   -2.5475   20.2326 C.ar    1  UNL1        0.0015
     20 C           4.0802   -2.6049   21.6498 C.ar    1  UNL1        0.0001
     21 C           3.8030   -1.4656   22.5852 C.ar    1  UNL1        0.0015
     22 C           3.0377   -0.2689   22.1035 C.ar    1  UNL1        0.0176
     23 S          -5.9386    5.1885   25.1579 S.O2    1  UNL1        0.0022
     24 O          -6.6124    6.1857   24.2625 O.2     1  UNL1       -0.1690
     25 O          -5.2649    4.1914   26.0534 O.2     1  UNL1       -0.1690
     26 C          -7.8295    6.0897   25.4936 C.3     1  UNL1        0.0240
     27 C          -6.6330    5.7861   26.3457 C.3     1  UNL1        0.1147
     28 C          -5.4364    5.4825   27.1979 C.3     1  UNL1        0.0240
     29 C          -7.3273    6.3837   27.5335 C.3     1  UNL1        0.0240
@<TRIPOS>BOND
     1    26    27    1
     2    27    28    1
     3    27    29    1
     4    27    23    1
     5    23    24    2
     6    23    25    2
     7    23     1    1
     8     1     2    2
     9     2     3    1
    10     3     4    2
    11     4     5    1
    12     5     6    2
    13     6    10    1
    14    10    11   ar
    15    11    12   ar
    16    12    13   ar
    17    13    14    2
    18    13    15   ar
    19    15    17    1
    20    17    18   ar
    21    18    19   ar
    22    19    20   ar
    23    20    21   ar
    24    21    22   ar
    25    15    16   ar
    26     6     7    1
    27     7     8    2
    28     8     9    1
    29     9     1    1
    30     8     4    1
    31    16    10   ar
    32    22    17   ar
@<TRIPOS>MOLECULE
*****
 29 32 0 0 0
SMALL
GASTEIGER

@<TRIPOS>ATOM
      1 C           5.8481   -2.5220   31.7110 C.2     1  UNL1        0.0918
      2 C           6.3403   -3.7762   32.3702 C.2     1  UNL1        0.0183
      3 C           6.8879   -4.8964   31.5364 C.2     1  UNL1        0.0511
      4 C           6.9434   -4.7624   30.0435 C.2     1  UNL1        0.2322
      5 N           7.4266   -5.6915   28.9696 N.2     1  UNL1       -0.0308
      6 C           7.2331   -5.0115   27.6467 C.2     1  UNL1        0.3767
      7 N           6.6302   -3.6621   27.9030 N.2     1  UNL1       -0.0346
      8 C           6.4512   -3.5082   29.3843 C.2     1  UNL1        0.2191
      9 C           5.9035   -2.3880   30.2181 C.3     1  UNL1        0.1226
     10 C           7.5813   -5.5809   26.3033 C.ar    1  UNL1        0.1061
     11 C           7.9915   -7.0186   26.1816 C.ar    1  UNL1        0.0141
     12 C           8.3397   -7.5880   24.8383 C.ar    1  UNL1        0.0614
     13 C           8.2777   -6.7198   23.6168 C.ar    1  UNL1        0.2648
     14 O           8.6259   -7.2893   22.2734 O.2     1  UNL1       -0.2666
     15 N           7.8674   -5.2822   23.7385 N.ar    1  UNL1       -0.2729
     16 C           7.5192   -4.7127   25.0817 C.ar    1  UNL1        0.0906
     17 C           7.8054   -4.4139   22.5168 C.ar    1  UNL1        0.0669
     18 C           6.4824   -3.9098   22.0213 C.ar    1  UNL1        0.0176
     19 C           6.4204   -3.0417   20.7997 C.ar    1  UNL1        0.0015
     20 C           7.6814   -2.6776   20.0735 C.ar    1  UNL1        0.0001
     21 C           9.0044   -3.1817   20.5690 C.ar    1  UNL1        0.0015
     22 C           9.0664   -4.0499   21.7906 C.ar    1  UNL1        0.0176
     23 S           5.3004   -1.4017   32.5448 S.O2    1  UNL1        0.0022
     24 O           6.6943   -0.9089   32.7981 O.2     1  UNL1       -0.1690
     25 O           3.9066   -1.8946   32.2914 O.2     1  UNL1       -0.1690
     26 C           4.9893    0.6756   32.2480 C.3     1  UNL1        0.0240
     27 C           4.7528   -0.2815   33.3785 C.3     1  UNL1        0.1147
     28 C           4.5163   -1.2385   34.5091 C.3     1  UNL1        0.0240
     29 C           4.2052    0.8387   34.2123 C.3     1  UNL1        0.0240
@<TRIPOS>BOND
     1    26    27    1
     2    27    28    1
     3    27    29    1
     4    27    23    1
     5    23    24    2
     6    23    25    2
     7    23     1    1
     8     1     2    2
     9     2     3    1
    10     3     4    2
    11     4     5    1
    12     5     6    2
    13     6    10    1
    14    10    11   ar
    15    11    12   ar
    16    12    13   ar
    17    13    14    2
    18    13    15   ar
    19    15    17    1
    20    17    18   ar
    21    18    19   ar
    22    19    20   ar
    23    20    21   ar
    24    21    22   ar
    25    15    16   ar
    26     6     7    1
    27     7     8    2
    28     8     9    1
    29     9     1    1
    30     8     4    1
    31    16    10   ar
    32    22    17   ar
