@<TRIPOS>MOLECULE
*****
 40 43 0 0 0
SMALL
GASTEIGER

@<TRIPOS>ATOM
      1 C           1.2421    0.0496   29.4490 C.2     1  UNL1        0.4050
      2 O           1.8337   -0.8205   30.5180 O.2     1  UNL1       -0.2262
      3 N           2.0563    0.4149   28.2433 N.am    1  UNL1       -0.2459
      4 C           1.4646    1.2850   27.1743 C.3     1  UNL1        0.0984
      5 C           2.2789    1.6503   25.9687 C.3     1  UNL1        0.0413
      6 C           3.6847    1.1456   25.8321 C.3     1  UNL1        0.0777
      7 C           4.2764    0.2755   26.9011 C.3     1  UNL1        0.0540
      8 C           3.4622   -0.0898   28.1067 C.3     1  UNL1        0.0997
      9 N           4.4990    1.5109   24.6264 N.am    1  UNL1       -0.2901
     10 C           4.3334    0.7427   23.3488 C.2     1  UNL1        0.3058
     11 O           3.3537   -0.3909   23.2767 O.2     1  UNL1       -0.2524
     12 N           5.1477    1.1081   22.1431 N.am    1  UNL1       -0.2485
     13 H           5.1420    2.2549   24.6737 H       1  UNL1        0.1509
     14 H           5.7907    1.8520   22.1904 H       1  UNL1        0.1583
     15 C           4.9821    0.3398   20.8654 C.ar    1  UNL1        0.1664
     16 N           4.0112    0.6553   19.7664 N.ar    1  UNL1       -0.2282
     17 C           4.1875   -0.3683   18.6842 C.ar    1  UNL1        0.0701
     18 C           3.4188   -0.4325   17.3977 C.3     1  UNL1        0.0528
     19 C           5.2673   -1.3165   19.1144 C.ar    1  UNL1        0.0803
     20 S           5.7584   -0.8788   20.4624 S.2     1  UNL1       -0.0488
     21 C           5.7681   -2.4953   18.3336 C.2     1  UNL1        0.1807
     22 C           5.1543   -3.8481   18.5415 C.3     1  UNL1        0.0779
     23 O           6.8826   -2.3213   17.3449 O.2     1  UNL1       -0.2908
     24 C          -1.3071   -0.2567   29.0515 C.3     1  UNL1        0.2573
     25 O          -0.1638    0.5543   29.5856 O.3     1  UNL1       -0.4304
     26 C           5.6823   -0.2293   26.7645 C.3     1  UNL1        0.0754
     27 N           6.1656   -1.3485   27.6385 N.3     1  UNL1       -0.2726
     28 C           6.9254   -1.0440   28.8955 C.3     1  UNL1        0.0721
     29 C           7.4086   -2.1633   29.7695 C.3     1  UNL1        0.0174
     30 C           7.1321   -3.5869   29.3864 C.3     1  UNL1        0.0031
     31 C           6.3724   -3.8914   28.1295 C.3     1  UNL1        0.0204
     32 C           5.8891   -2.7722   27.2555 C.3     1  UNL1        0.0724
     33 C           6.0959   -5.3150   27.7464 C.3     1  UNL1        0.0277
     34 C           6.9234   -5.9810   26.6873 C.ar    1  UNL1       -0.0220
     35 C           7.5661   -7.3083   26.9619 C.ar    1  UNL1       -0.0020
     36 C           8.3936   -7.9743   25.9029 C.ar    1  UNL1        0.0293
     37 C           8.5784   -7.3131   24.5692 C.ar    1  UNL1        0.1401
     38 F           9.4059   -7.9791   23.5101 F       1  UNL1       -0.2042
     39 C           7.9357   -5.9859   24.2946 C.ar    1  UNL1        0.0293
     40 C           7.1082   -5.3198   25.3537 C.ar    1  UNL1       -0.0020
@<TRIPOS>BOND
     1    24    25    1
     2    25     1    1
     3     1     2    2
     4     1     3   am
     5     3     4    1
     6     4     5    1
     7     5     6    1
     8     6     9    1
     9     9    10   am
    10    10    11    2
    11    10    12   am
    12    12    15    1
    13    15    16   ar
    14    16    17   ar
    15    17    18    1
    16    17    19   ar
    17    19    21    1
    18    21    22    1
    19    21    23    2
    20    19    20   ar
    21     6     7    1
    22     7    26    1
    23    26    27    1
    24    27    28    1
    25    28    29    1
    26    29    30    1
    27    30    31    1
    28    31    33    1
    29    33    34    1
    30    34    35   ar
    31    35    36   ar
    32    36    37   ar
    33    37    38    1
    34    37    39   ar
    35    39    40   ar
    36    31    32    1
    37     7     8    1
    38     8     3    1
    39    20    15   ar
    40    32    27    1
    41    40    34   ar
    42     9    13    1
    43    12    14    1
@<TRIPOS>MOLECULE
*****
 40 43 0 0 0
SMALL
GASTEIGER

@<TRIPOS>ATOM
      1 C           5.0667   -2.2410   20.0215 C.2     1  UNL1        0.4050
      2 O           6.0711   -2.2791   21.1349 O.2     1  UNL1       -0.2262
      3 N           4.1673   -1.0511   19.8632 N.am    1  UNL1       -0.2459
      4 C           3.1628   -1.0130   18.7498 C.3     1  UNL1        0.0984
      5 C           2.2634    0.1769   18.5914 C.3     1  UNL1        0.0413
      6 C           2.3685    1.3288   19.5464 C.3     1  UNL1        0.0777
      7 C           3.3729    1.2908   20.6598 C.3     1  UNL1        0.0540
      8 C           4.2723    0.1008   20.8182 C.3     1  UNL1        0.0997
      9 N           1.4690    2.5188   19.3881 N.am    1  UNL1       -0.2901
     10 C           0.0627    2.4703   19.9074 C.2     1  UNL1        0.3058
     11 O          -0.4444    1.2318   20.5851 O.2     1  UNL1       -0.2524
     12 N          -0.8367    3.6603   19.7490 N.am    1  UNL1       -0.2485
     13 H           1.8018    3.3316   18.9433 H       1  UNL1        0.1509
     14 H          -0.5040    4.4731   19.3042 H       1  UNL1        0.1583
     15 C          -2.2432    3.6118   20.2683 C.ar    1  UNL1        0.1664
     16 N          -2.6554    3.2533   21.6653 N.ar    1  UNL1       -0.2282
     17 C          -4.1512    3.3332   21.7422 C.ar    1  UNL1        0.0701
     18 C          -4.9879    3.0542   22.9555 C.3     1  UNL1        0.0528
     19 C          -4.6636    3.7411   20.3927 C.ar    1  UNL1        0.0803
     20 S          -3.4844    3.9132   19.4818 S.2     1  UNL1       -0.0488
     21 C          -6.1026    3.9416   20.0196 C.2     1  UNL1        0.1807
     22 C          -6.6541    3.2944   18.7839 C.3     1  UNL1        0.0779
     23 O          -6.9899    4.7893   20.8821 O.2     1  UNL1       -0.2908
     24 C           4.0598   -4.5492   19.3824 C.3     1  UNL1        0.2573
     25 O           4.9616   -3.3929   19.0665 O.3     1  UNL1       -0.4304
     26 C           3.4779    2.4427   21.6149 C.3     1  UNL1        0.0754
     27 N           2.3171    2.7932   22.4978 N.3     1  UNL1       -0.2726
     28 C           1.7122    4.1642   22.4324 C.3     1  UNL1        0.0721
     29 C           0.5513    4.5146   23.3155 C.3     1  UNL1        0.0174
     30 C          -0.0046    3.4941   24.2638 C.3     1  UNL1        0.0031
     31 C           0.6004    2.1230   24.3292 C.3     1  UNL1        0.0204
     32 C           1.7612    1.7725   23.4462 C.3     1  UNL1        0.0724
     33 C           0.0445    1.1024   25.2775 C.3     1  UNL1        0.0277
     34 C           0.2206    1.2787   26.7567 C.ar    1  UNL1       -0.0220
     35 C           1.3916    2.0526   27.2857 C.ar    1  UNL1       -0.0020
     36 C           1.5676    2.2289   28.7648 C.ar    1  UNL1        0.0293
     37 C           0.5727    1.6313   29.7150 C.ar    1  UNL1        0.1401
     38 F           0.7488    1.8075   31.1942 F       1  UNL1       -0.2042
     39 C          -0.5983    0.8574   29.1860 C.ar    1  UNL1        0.0293
     40 C          -0.7744    0.6811   27.7069 C.ar    1  UNL1       -0.0020
@<TRIPOS>BOND
     1    24    25    1
     2    25     1    1
     3     1     2    2
     4     1     3   am
     5     3     4    1
     6     4     5    1
     7     5     6    1
     8     6     9    1
     9     9    10   am
    10    10    11    2
    11    10    12   am
    12    12    15    1
    13    15    16   ar
    14    16    17   ar
    15    17    18    1
    16    17    19   ar
    17    19    21    1
    18    21    22    1
    19    21    23    2
    20    19    20   ar
    21     6     7    1
    22     7    26    1
    23    26    27    1
    24    27    28    1
    25    28    29    1
    26    29    30    1
    27    30    31    1
    28    31    33    1
    29    33    34    1
    30    34    35   ar
    31    35    36   ar
    32    36    37   ar
    33    37    38    1
    34    37    39   ar
    35    39    40   ar
    36    31    32    1
    37     7     8    1
    38     8     3    1
    39    20    15   ar
    40    32    27    1
    41    40    34   ar
    42     9    13    1
    43    12    14    1
@<TRIPOS>MOLECULE
*****
 40 43 0 0 0
SMALL
GASTEIGER

@<TRIPOS>ATOM
      1 C           8.7969   -6.0313   26.4692 C.2     1  UNL1        0.4050
      2 O           9.5074   -5.8649   25.1587 O.2     1  UNL1       -0.2262
      3 N           8.0562   -4.8750   27.0728 N.am    1  UNL1       -0.2459
      4 C           7.3457   -5.0414   28.3833 C.3     1  UNL1        0.0984
      5 C           6.6049   -3.8852   28.9870 C.3     1  UNL1        0.0413
      6 C           6.5747   -2.5625   28.2801 C.3     1  UNL1        0.0777
      7 C           7.2852   -2.3961   26.9696 C.3     1  UNL1        0.0540
      8 C           8.0259   -3.5524   26.3660 C.3     1  UNL1        0.0997
      9 N           5.8340   -1.4063   28.8838 N.am    1  UNL1       -0.2901
     10 C           4.4076   -1.1463   28.4993 C.2     1  UNL1        0.3058
     11 O           3.7219   -2.0427   27.5111 O.2     1  UNL1       -0.2524
     12 N           3.6669    0.0099   29.1030 N.am    1  UNL1       -0.2485
     13 H           6.2840   -0.8180   29.5324 H       1  UNL1        0.1509
     14 H           4.1169    0.5982   29.7515 H       1  UNL1        0.1583
     15 C           2.2404    0.2698   28.7184 C.ar    1  UNL1        0.1664
     16 N           1.0280   -0.3094   29.3852 N.ar    1  UNL1       -0.2282
     17 C          -0.1857    0.2174   28.6785 C.ar    1  UNL1        0.0701
     18 C          -1.6114   -0.1041   29.0160 C.3     1  UNL1        0.0528
     19 C           0.2766    1.1222   27.5749 C.ar    1  UNL1        0.0803
     20 S           1.7761    1.1545   27.5997 S.2     1  UNL1       -0.0488
     21 C          -0.6056    1.8642   26.6152 C.2     1  UNL1        0.1807
     22 C          -0.3987    1.7145   25.1371 C.3     1  UNL1        0.0779
     23 O          -1.6947    2.7560   27.1336 O.2     1  UNL1       -0.2908
     24 C           7.8147   -8.4080   26.8385 C.3     1  UNL1        0.2573
     25 O           8.8271   -7.3539   27.1760 O.3     1  UNL1       -0.4304
     26 C           7.2550   -1.0734   26.2627 C.3     1  UNL1        0.0754
     27 N           6.0856   -0.7132   25.3952 N.3     1  UNL1       -0.2726
     28 C           5.4123    0.6172   25.5584 C.3     1  UNL1        0.0721
     29 C           4.2428    0.9774   24.6908 C.3     1  UNL1        0.0174
     30 C           3.7467    0.0071   23.6600 C.3     1  UNL1        0.0031
     31 C           4.4200   -1.3233   23.4969 C.3     1  UNL1        0.0204
     32 C           5.5894   -1.6835   24.3644 C.3     1  UNL1        0.0724
     33 C           3.9238   -2.2936   22.4661 C.3     1  UNL1        0.0277
     34 C           3.9231   -1.9117   21.0155 C.ar    1  UNL1       -0.0220
     35 C           5.0561   -2.3344   20.1281 C.ar    1  UNL1       -0.0020
     36 C           5.0554   -1.9526   18.6776 C.ar    1  UNL1        0.0293
     37 C           3.9216   -1.1480   18.1144 C.ar    1  UNL1        0.1401
     38 F           3.9208   -0.7661   16.6638 F       1  UNL1       -0.2042
     39 C           2.7886   -0.7252   19.0018 C.ar    1  UNL1        0.0293
     40 C           2.7893   -1.1071   20.4524 C.ar    1  UNL1       -0.0020
@<TRIPOS>BOND
     1    24    25    1
     2    25     1    1
     3     1     2    2
     4     1     3   am
     5     3     4    1
     6     4     5    1
     7     5     6    1
     8     6     9    1
     9     9    10   am
    10    10    11    2
    11    10    12   am
    12    12    15    1
    13    15    16   ar
    14    16    17   ar
    15    17    18    1
    16    17    19   ar
    17    19    21    1
    18    21    22    1
    19    21    23    2
    20    19    20   ar
    21     6     7    1
    22     7    26    1
    23    26    27    1
    24    27    28    1
    25    28    29    1
    26    29    30    1
    27    30    31    1
    28    31    33    1
    29    33    34    1
    30    34    35   ar
    31    35    36   ar
    32    36    37   ar
    33    37    38    1
    34    37    39   ar
    35    39    40   ar
    36    31    32    1
    37     7     8    1
    38     8     3    1
    39    20    15   ar
    40    32    27    1
    41    40    34   ar
    42     9    13    1
    43    12    14    1
@<TRIPOS>MOLECULE
*****
 40 43 0 0 0
SMALL
GASTEIGER

@<TRIPOS>ATOM
      1 C           4.7867   -0.3620   17.2771 C.2     1  UNL1        0.4050
      2 O           3.8934   -1.0703   16.3022 O.2     1  UNL1       -0.2262
      3 N           4.1959    0.3305   18.4693 N.am    1  UNL1       -0.2459
      4 C           5.0892    1.0387   19.4442 C.3     1  UNL1        0.0984
      5 C           4.4985    1.7312   20.6364 C.3     1  UNL1        0.0413
      6 C           3.0144    1.7154   20.8539 C.3     1  UNL1        0.0777
      7 C           2.1211    1.0072   19.8790 C.3     1  UNL1        0.0540
      8 C           2.7119    0.3147   18.6868 C.3     1  UNL1        0.0997
      9 N           2.4237    2.4079   22.0461 N.am    1  UNL1       -0.2901
     10 C           2.2978    1.6787   23.3509 C.2     1  UNL1        0.3058
     11 O           2.7627    0.2570   23.4634 O.2     1  UNL1       -0.2524
     12 N           1.7071    2.3712   24.5431 N.am    1  UNL1       -0.2485
     13 H           2.1186    3.3410   21.9723 H       1  UNL1        0.1509
     14 H           1.4020    3.3043   24.4693 H       1  UNL1        0.1583
     15 C           1.5812    1.6419   25.8479 C.ar    1  UNL1        0.1664
     16 N           2.6693    0.8726   26.5365 N.ar    1  UNL1       -0.2282
     17 C           2.1058    0.3092   27.8073 C.ar    1  UNL1        0.0701
     18 C           2.8482   -0.5283   28.8060 C.3     1  UNL1        0.0528
     19 C           0.6693    0.7303   27.9041 C.ar    1  UNL1        0.0803
     20 S           0.3452    1.5540   26.6932 S.2     1  UNL1       -0.0488
     21 C          -0.2768    0.3879   29.0166 C.2     1  UNL1        0.1807
     22 C          -1.4196   -0.5511   28.7669 C.3     1  UNL1        0.0779
     23 O          -0.0802    0.9845   30.3788 O.2     1  UNL1       -0.2908
     24 C           6.9215    0.8407   16.4132 C.3     1  UNL1        0.2573
     25 O           6.2707   -0.3462   17.0596 O.3     1  UNL1       -0.4304
     26 C           0.6370    0.9913   20.0964 C.3     1  UNL1        0.0754
     27 N          -0.1711    2.2296   19.8444 N.3     1  UNL1       -0.2726
     28 C           0.3317    3.2721   18.8903 C.3     1  UNL1        0.0721
     29 C          -0.4765    4.5104   18.6382 C.3     1  UNL1        0.0174
     30 C          -1.7876    4.7061   19.3402 C.3     1  UNL1        0.0031
     31 C          -2.2904    3.6636   20.2943 C.3     1  UNL1        0.0204
     32 C          -1.4823    2.4253   20.5464 C.3     1  UNL1        0.0724
     33 C          -3.6015    3.8593   20.9963 C.3     1  UNL1        0.0277
     34 C          -3.6663    3.8020   22.4938 C.ar    1  UNL1       -0.0220
     35 C          -2.4721    4.1955   23.3118 C.ar    1  UNL1       -0.0020
     36 C          -2.5368    4.1382   24.8093 C.ar    1  UNL1        0.0293
     37 C          -3.7958    3.6875   25.4888 C.ar    1  UNL1        0.1401
     38 F          -3.8606    3.6302   26.9863 F       1  UNL1       -0.2042
     39 C          -4.9900    3.2940   24.6708 C.ar    1  UNL1        0.0293
     40 C          -4.9252    3.3513   23.1734 C.ar    1  UNL1       -0.0020
@<TRIPOS>BOND
     1    24    25    1
     2    25     1    1
     3     1     2    2
     4     1     3   am
     5     3     4    1
     6     4     5    1
     7     5     6    1
     8     6     9    1
     9     9    10   am
    10    10    11    2
    11    10    12   am
    12    12    15    1
    13    15    16   ar
    14    16    17   ar
    15    17    18    1
    16    17    19   ar
    17    19    21    1
    18    21    22    1
    19    21    23    2
    20    19    20   ar
    21     6     7    1
    22     7    26    1
    23    26    27    1
    24    27    28    1
    25    28    29    1
    26    29    30    1
    27    30    31    1
    28    31    33    1
    29    33    34    1
    30    34    35   ar
    31    35    36   ar
    32    36    37   ar
    33    37    38    1
    34    37    39   ar
    35    39    40   ar
    36    31    32    1
    37     7     8    1
    38     8     3    1
    39    20    15   ar
    40    32    27    1
    41    40    34   ar
    42     9    13    1
    43    12    14    1
@<TRIPOS>MOLECULE
*****
 40 43 0 0 0
SMALL
GASTEIGER

@<TRIPOS>ATOM
      1 C           1.1580    0.1166   29.2432 C.2     1  UNL1        0.4050
      2 O           1.8627   -0.7586   30.2368 O.2     1  UNL1       -0.2262
      3 N           1.9094    0.6782   28.0727 N.am    1  UNL1       -0.2459
      4 C           1.2047    1.5534   27.0791 C.3     1  UNL1        0.0984
      5 C           1.9561    2.1150   25.9086 C.3     1  UNL1        0.0413
      6 C           3.4122    1.8014   25.7318 C.3     1  UNL1        0.0777
      7 C           4.1169    0.9262   26.7254 C.3     1  UNL1        0.0540
      8 C           3.3655    0.3646   27.8959 C.3     1  UNL1        0.0997
      9 N           4.1636    2.3630   24.5613 N.am    1  UNL1       -0.2901
     10 C           4.1099    1.6690   23.2327 C.2     1  UNL1        0.3058
     11 O           3.3048    0.4132   23.0745 O.2     1  UNL1       -0.2524
     12 N           4.8613    2.2306   22.0622 N.am    1  UNL1       -0.2485
     13 H           4.6920    3.1872   24.6651 H       1  UNL1        0.1509
     14 H           5.3897    3.0547   22.1660 H       1  UNL1        0.1583
     15 C           4.8076    1.5364   20.7335 C.ar    1  UNL1        0.1664
     16 N           3.5647    1.0977   20.0176 N.ar    1  UNL1       -0.2282
     17 C           3.9763    0.4493   18.7291 C.ar    1  UNL1        0.0701
     18 C           3.0528   -0.1346   17.7014 C.3     1  UNL1        0.0528
     19 C           5.4737    0.4873   18.6488 C.ar    1  UNL1        0.0803
     20 S           5.9875    1.1592   19.8875 S.2     1  UNL1       -0.0488
     21 C           6.3104   -0.0520   17.5266 C.2     1  UNL1        0.1807
     22 C           6.8954    0.8837   16.5106 C.3     1  UNL1        0.0779
     23 O           6.5622   -1.5269   17.4206 O.2     1  UNL1       -0.2908
     24 C          -1.3378   -0.4877   28.8486 C.3     1  UNL1        0.2573
     25 O          -0.2981    0.4302   29.4201 O.3     1  UNL1       -0.4304
     26 C           5.5731    0.6126   26.5486 C.3     1  UNL1        0.0754
     27 N           5.9901   -0.6826   25.9172 N.3     1  UNL1       -0.2726
     28 C           6.1145   -1.9200   26.7559 C.3     1  UNL1        0.0721
     29 C           6.5315   -3.2152   26.1245 C.3     1  UNL1        0.0174
     30 C           6.8240   -3.2730   24.6544 C.3     1  UNL1        0.0031
     31 C           6.6995   -2.0356   23.8158 C.3     1  UNL1        0.0204
     32 C           6.2826   -0.7404   24.4471 C.3     1  UNL1        0.0724
     33 C           6.9921   -2.0934   22.3457 C.3     1  UNL1        0.0277
     34 C           5.9800   -2.6721   21.4018 C.ar    1  UNL1       -0.0220
     35 C           4.5707   -2.1585   21.4060 C.ar    1  UNL1       -0.0020
     36 C           3.5587   -2.7372   20.4622 C.ar    1  UNL1        0.0293
     37 C           3.9560   -3.8295   19.5141 C.ar    1  UNL1        0.1401
     38 F           2.9440   -4.4083   18.5701 F       1  UNL1       -0.2042
     39 C           5.3654   -4.3431   19.5098 C.ar    1  UNL1        0.0293
     40 C           6.3774   -3.7644   20.4537 C.ar    1  UNL1       -0.0020
@<TRIPOS>BOND
     1    24    25    1
     2    25     1    1
     3     1     2    2
     4     1     3   am
     5     3     4    1
     6     4     5    1
     7     5     6    1
     8     6     9    1
     9     9    10   am
    10    10    11    2
    11    10    12   am
    12    12    15    1
    13    15    16   ar
    14    16    17   ar
    15    17    18    1
    16    17    19   ar
    17    19    21    1
    18    21    22    1
    19    21    23    2
    20    19    20   ar
    21     6     7    1
    22     7    26    1
    23    26    27    1
    24    27    28    1
    25    28    29    1
    26    29    30    1
    27    30    31    1
    28    31    33    1
    29    33    34    1
    30    34    35   ar
    31    35    36   ar
    32    36    37   ar
    33    37    38    1
    34    37    39   ar
    35    39    40   ar
    36    31    32    1
    37     7     8    1
    38     8     3    1
    39    20    15   ar
    40    32    27    1
    41    40    34   ar
    42     9    13    1
    43    12    14    1
@<TRIPOS>MOLECULE
*****
 40 43 0 0 0
SMALL
GASTEIGER

@<TRIPOS>ATOM
      1 C           8.0432   -6.6211   24.4154 C.2     1  UNL1        0.4050
      2 O           8.4063   -7.1812   23.0721 O.2     1  UNL1       -0.2262
      3 N           7.5330   -5.2151   24.5287 N.am    1  UNL1       -0.2459
      4 C           7.1698   -4.6550   25.8720 C.3     1  UNL1        0.0984
      5 C           6.6596   -3.2490   25.9853 C.3     1  UNL1        0.0413
      6 C           6.5125   -2.4031   24.7554 C.3     1  UNL1        0.0777
      7 C           6.8757   -2.9632   23.4121 C.3     1  UNL1        0.0540
      8 C           7.3859   -4.3692   23.2988 C.3     1  UNL1        0.0997
      9 N           6.0023   -0.9971   24.8687 N.am    1  UNL1       -0.2901
     10 C           4.6296   -0.7392   25.4157 C.2     1  UNL1        0.3058
     11 O           3.7671   -1.8873   25.8493 O.2     1  UNL1       -0.2524
     12 N           4.1194    0.6668   25.5290 N.am    1  UNL1       -0.2485
     13 H           6.5684   -0.2436   24.5841 H       1  UNL1        0.1509
     14 H           4.6855    1.4204   25.2444 H       1  UNL1        0.1583
     15 C           2.7466    0.9247   26.0760 C.ar    1  UNL1        0.1664
     16 N           1.6143    1.5807   25.3428 N.ar    1  UNL1       -0.2282
     17 C           0.4331    1.6333   26.2659 C.ar    1  UNL1        0.0701
     18 C          -0.9139    2.2084   25.9421 C.3     1  UNL1        0.0528
     19 C           0.8354    1.0098   27.5695 C.ar    1  UNL1        0.0803
     20 S           2.2653    0.5719   27.4521 S.2     1  UNL1       -0.0488
     21 C          -0.0386    0.8520   28.7783 C.2     1  UNL1        0.1807
     22 C          -1.2177   -0.0743   28.7354 C.3     1  UNL1        0.0779
     23 O           0.2664    1.6204   30.0299 O.2     1  UNL1       -0.2908
     24 C           9.5284   -8.0414   26.0049 C.3     1  UNL1        0.2573
     25 O           8.1902   -7.4670   25.6453 O.3     1  UNL1       -0.4304
     26 C           6.7286   -2.1172   22.1821 C.3     1  UNL1        0.0754
     27 N           5.7074   -2.4752   21.1434 N.3     1  UNL1       -0.2726
     28 C           5.3175   -3.9089   20.9377 C.3     1  UNL1        0.0721
     29 C           4.2962   -4.2668   19.8989 C.3     1  UNL1        0.0174
     30 C           3.6648   -3.1910   19.0659 C.3     1  UNL1        0.0031
     31 C           4.0547   -1.7572   19.2717 C.3     1  UNL1        0.0204
     32 C           5.0759   -1.3993   20.3104 C.3     1  UNL1        0.0724
     33 C           3.4233   -0.6814   18.4388 C.3     1  UNL1        0.0277
     34 C           2.2728    0.1116   18.9844 C.ar    1  UNL1       -0.0220
     35 C           2.0443    1.5192   18.5190 C.ar    1  UNL1       -0.0020
     36 C           0.8939    2.3121   19.0646 C.ar    1  UNL1        0.0293
     37 C          -0.0281    1.6975   20.0756 C.ar    1  UNL1        0.1401
     38 F          -1.1786    2.4904   20.6212 F       1  UNL1       -0.2042
     39 C           0.2003    0.2899   20.5409 C.ar    1  UNL1        0.0293
     40 C           1.3508   -0.5030   19.9954 C.ar    1  UNL1       -0.0020
@<TRIPOS>BOND
     1    24    25    1
     2    25     1    1
     3     1     2    2
     4     1     3   am
     5     3     4    1
     6     4     5    1
     7     5     6    1
     8     6     9    1
     9     9    10   am
    10    10    11    2
    11    10    12   am
    12    12    15    1
    13    15    16   ar
    14    16    17   ar
    15    17    18    1
    16    17    19   ar
    17    19    21    1
    18    21    22    1
    19    21    23    2
    20    19    20   ar
    21     6     7    1
    22     7    26    1
    23    26    27    1
    24    27    28    1
    25    28    29    1
    26    29    30    1
    27    30    31    1
    28    31    33    1
    29    33    34    1
    30    34    35   ar
    31    35    36   ar
    32    36    37   ar
    33    37    38    1
    34    37    39   ar
    35    39    40   ar
    36    31    32    1
    37     7     8    1
    38     8     3    1
    39    20    15   ar
    40    32    27    1
    41    40    34   ar
    42     9    13    1
    43    12    14    1
@<TRIPOS>MOLECULE
*****
 40 43 0 0 0
SMALL
GASTEIGER

@<TRIPOS>ATOM
      1 C           0.0772    2.2797   25.6270 C.2     1  UNL1        0.4050
      2 O          -0.2491    2.3781   24.1662 O.2     1  UNL1       -0.2262
      3 N           1.4350    1.8143   26.0624 N.am    1  UNL1       -0.2459
      4 C           1.7614    1.7160   27.5232 C.3     1  UNL1        0.0984
      5 C           3.1192    1.2505   27.9587 C.3     1  UNL1        0.0413
      6 C           4.1507    0.8834   26.9334 C.3     1  UNL1        0.0777
      7 C           3.8244    0.9818   25.4727 C.3     1  UNL1        0.0540
      8 C           2.4665    1.4472   25.0372 C.3     1  UNL1        0.0997
      9 N           5.5086    0.4180   27.3689 N.am    1  UNL1       -0.2901
     10 C           5.7216   -1.0154   27.7559 C.2     1  UNL1        0.3058
     11 O           4.5768   -1.9835   27.7074 O.2     1  UNL1       -0.2524
     12 N           7.0795   -1.4809   28.1914 N.am    1  UNL1       -0.2485
     13 H           6.2599    1.0534   27.4007 H       1  UNL1        0.1509
     14 H           7.8308   -0.8455   28.2232 H       1  UNL1        0.1583
     15 C           7.2925   -2.9144   28.5784 C.ar    1  UNL1        0.1664
     16 N           7.3961   -4.0762   27.6353 N.ar    1  UNL1       -0.2282
     17 C           7.6070   -5.3176   28.4504 C.ar    1  UNL1        0.0701
     18 C           7.7637   -6.7092   27.9130 C.3     1  UNL1        0.0528
     19 C           7.6336   -4.9230   29.8974 C.ar    1  UNL1        0.0803
     20 S           7.4392   -3.4378   29.9764 S.2     1  UNL1       -0.0488
     21 C           7.8216   -5.8508   31.0610 C.2     1  UNL1        0.1807
     22 C           9.1793   -6.4144   31.3590 C.3     1  UNL1        0.0779
     23 O           6.6518   -6.2149   31.9265 O.2     1  UNL1       -0.2908
     24 C          -1.8678    3.8123   26.4131 C.3     1  UNL1        0.2573
     25 O          -0.9543    2.6468   26.6522 O.3     1  UNL1       -0.4304
     26 C           4.8559    0.6146   24.4473 C.3     1  UNL1        0.0754
     27 N           4.7884   -0.7162   23.7586 N.3     1  UNL1       -0.2726
     28 C           5.4081   -1.9236   24.3974 C.3     1  UNL1        0.0721
     29 C           5.3405   -3.2544   23.7087 C.3     1  UNL1        0.0174
     30 C           4.6532   -3.3778   22.3811 C.3     1  UNL1        0.0031
     31 C           4.0335   -2.1704   21.7423 C.3     1  UNL1        0.0204
     32 C           4.1010   -0.8396   22.4310 C.3     1  UNL1        0.0724
     33 C           3.3462   -2.2938   20.4148 C.3     1  UNL1        0.0277
     34 C           2.6472   -1.1078   19.8190 C.ar    1  UNL1       -0.0220
     35 C           1.2645   -0.7455   20.2740 C.ar    1  UNL1       -0.0020
     36 C           0.5655    0.4404   19.6782 C.ar    1  UNL1        0.0293
     37 C           1.2492    1.2641   18.6275 C.ar    1  UNL1        0.1401
     38 F           0.5502    2.4501   18.0317 F       1  UNL1       -0.2042
     39 C           2.6319    0.9018   18.1725 C.ar    1  UNL1        0.0293
     40 C           3.3309   -0.2841   18.7683 C.ar    1  UNL1       -0.0020
@<TRIPOS>BOND
     1    24    25    1
     2    25     1    1
     3     1     2    2
     4     1     3   am
     5     3     4    1
     6     4     5    1
     7     5     6    1
     8     6     9    1
     9     9    10   am
    10    10    11    2
    11    10    12   am
    12    12    15    1
    13    15    16   ar
    14    16    17   ar
    15    17    18    1
    16    17    19   ar
    17    19    21    1
    18    21    22    1
    19    21    23    2
    20    19    20   ar
    21     6     7    1
    22     7    26    1
    23    26    27    1
    24    27    28    1
    25    28    29    1
    26    29    30    1
    27    30    31    1
    28    31    33    1
    29    33    34    1
    30    34    35   ar
    31    35    36   ar
    32    36    37   ar
    33    37    38    1
    34    37    39   ar
    35    39    40   ar
    36    31    32    1
    37     7     8    1
    38     8     3    1
    39    20    15   ar
    40    32    27    1
    41    40    34   ar
    42     9    13    1
    43    12    14    1
@<TRIPOS>MOLECULE
*****
 40 43 0 0 0
SMALL
GASTEIGER

@<TRIPOS>ATOM
      1 C           5.1696   -1.4356   18.7395 C.2     1  UNL1        0.4050
      2 O           4.4851   -2.0307   17.5449 O.2     1  UNL1       -0.2262
      3 N           4.3857   -0.6188   19.7235 N.am    1  UNL1       -0.2459
      4 C           5.0703   -0.0237   20.9181 C.3     1  UNL1        0.0984
      5 C           4.2864    0.7932   21.9021 C.3     1  UNL1        0.0413
      6 C           2.8179    1.0149   21.6915 C.3     1  UNL1        0.0777
      7 C           2.1334    0.4199   20.4968 C.3     1  UNL1        0.0540
      8 C           2.9173   -0.3970   19.5128 C.3     1  UNL1        0.0997
      9 N           2.0340    1.8318   22.6755 N.am    1  UNL1       -0.2901
     10 C           1.7389    1.2825   24.0397 C.2     1  UNL1        0.3058
     11 O           2.2277   -0.0837   24.4200 O.2     1  UNL1       -0.2524
     12 N           0.9550    2.0993   25.0237 N.am    1  UNL1       -0.2485
     13 H           1.7132    2.7285   22.4259 H       1  UNL1        0.1509
     14 H           0.6342    2.9960   24.7741 H       1  UNL1        0.1583
     15 C           0.6599    1.5500   26.3879 C.ar    1  UNL1        0.1664
     16 N          -0.6716    1.0556   26.8703 N.ar    1  UNL1       -0.2282
     17 C          -0.5099    0.5986   28.2898 C.ar    1  UNL1        0.0701
     18 C          -1.5900    0.0296   29.1614 C.3     1  UNL1        0.0528
     19 C           0.9216    0.8106   28.6848 C.ar    1  UNL1        0.0803
     20 S           1.6446    1.3986   27.5094 S.2     1  UNL1       -0.0488
     21 C           1.5243    0.4908   30.0206 C.2     1  UNL1        0.1807
     22 C           2.5461   -0.6008   30.1404 C.3     1  UNL1        0.0779
     23 O           1.1052    1.2625   31.2367 O.2     1  UNL1       -0.2908
     24 C           7.1140   -2.8654   19.7014 C.3     1  UNL1        0.2573
     25 O           6.6381   -1.6574   18.9502 O.3     1  UNL1       -0.4304
     26 C           0.6648    0.6416   20.2861 C.3     1  UNL1        0.0754
     27 N           0.1759    1.9440   19.7251 N.3     1  UNL1       -0.2726
     28 C           0.9229    2.6060   18.6054 C.3     1  UNL1        0.0721
     29 C           0.4339    3.9084   18.0445 C.3     1  UNL1        0.0174
     30 C          -0.8020    4.5488   18.6032 C.3     1  UNL1        0.0031
     31 C          -1.5491    3.8868   19.7229 C.3     1  UNL1        0.0204
     32 C          -1.0601    2.5845   20.2839 C.3     1  UNL1        0.0724
     33 C          -2.7850    4.5272   20.2816 C.3     1  UNL1        0.0277
     34 C          -3.2070    4.2392   21.6920 C.ar    1  UNL1       -0.0220
     35 C          -4.4615    3.4601   21.9553 C.ar    1  UNL1       -0.0020
     36 C          -4.8834    3.1721   23.3655 C.ar    1  UNL1        0.0293
     37 C          -4.0508    3.6630   24.5126 C.ar    1  UNL1        0.1401
     38 F          -4.4728    3.3749   25.9229 F       1  UNL1       -0.2042
     39 C          -2.7963    4.4420   24.2493 C.ar    1  UNL1        0.0293
     40 C          -2.3744    4.7301   22.8390 C.ar    1  UNL1       -0.0020
@<TRIPOS>BOND
     1    24    25    1
     2    25     1    1
     3     1     2    2
     4     1     3   am
     5     3     4    1
     6     4     5    1
     7     5     6    1
     8     6     9    1
     9     9    10   am
    10    10    11    2
    11    10    12   am
    12    12    15    1
    13    15    16   ar
    14    16    17   ar
    15    17    18    1
    16    17    19   ar
    17    19    21    1
    18    21    22    1
    19    21    23    2
    20    19    20   ar
    21     6     7    1
    22     7    26    1
    23    26    27    1
    24    27    28    1
    25    28    29    1
    26    29    30    1
    27    30    31    1
    28    31    33    1
    29    33    34    1
    30    34    35   ar
    31    35    36   ar
    32    36    37   ar
    33    37    38    1
    34    37    39   ar
    35    39    40   ar
    36    31    32    1
    37     7     8    1
    38     8     3    1
    39    20    15   ar
    40    32    27    1
    41    40    34   ar
    42     9    13    1
    43    12    14    1
@<TRIPOS>MOLECULE
*****
 40 43 0 0 0
SMALL
GASTEIGER

@<TRIPOS>ATOM
      1 C          -4.4729    3.5703   21.8833 C.2     1  UNL1        0.4050
      2 O          -4.6499    3.7895   20.4100 O.2     1  UNL1       -0.2262
      3 N          -3.0962    3.5519   22.4788 N.am    1  UNL1       -0.2459
      4 C          -2.9192    3.3327   23.9520 C.3     1  UNL1        0.0984
      5 C          -1.5426    3.3144   24.5475 C.3     1  UNL1        0.0413
      6 C          -0.3430    3.5153   23.6697 C.3     1  UNL1        0.0777
      7 C          -0.5200    3.7346   22.1965 C.3     1  UNL1        0.0540
      8 C          -1.8966    3.7529   21.6010 C.3     1  UNL1        0.0997
      9 N           1.0336    3.4970   24.2652 N.am    1  UNL1       -0.2901
     10 C           1.7194    2.1893   24.5289 C.2     1  UNL1        0.3058
     11 O           1.0285    0.8998   24.1971 O.2     1  UNL1       -0.2524
     12 N           3.0960    2.1710   25.1243 N.am    1  UNL1       -0.2485
     13 H           1.4870    4.3433   24.4830 H       1  UNL1        0.1509
     14 H           3.5494    3.0173   25.3421 H       1  UNL1        0.1583
     15 C           3.7818    0.8632   25.3880 C.ar    1  UNL1        0.1664
     16 N           3.9463    0.2082   26.7274 N.ar    1  UNL1       -0.2282
     17 C           4.6896   -1.0790   26.5257 C.ar    1  UNL1        0.0701
     18 C           5.0711   -2.0544   27.5995 C.3     1  UNL1        0.0528
     19 C           4.9845   -1.2195   25.0617 C.ar    1  UNL1        0.0803
     20 S           4.4234   -0.0192   24.3586 S.2     1  UNL1       -0.0488
     21 C           5.7126   -2.3601   24.4144 C.2     1  UNL1        0.1807
     22 C           5.0302   -3.1864   23.3649 C.3     1  UNL1        0.0779
     23 O           7.1230   -2.6744   24.8167 O.2     1  UNL1       -0.2908
     24 C          -6.4048    4.5560   23.3136 C.3     1  UNL1        0.2573
     25 O          -5.6724    3.3693   22.7611 O.3     1  UNL1       -0.4304
     26 C           0.6796    3.9356   21.3186 C.3     1  UNL1        0.0754
     27 N           1.1514    2.8250   20.4275 N.3     1  UNL1       -0.2726
     28 C           0.3835    2.4823   19.1855 C.3     1  UNL1        0.0721
     29 C           0.8554    1.3717   18.2944 C.3     1  UNL1        0.0174
     30 C           2.0951    0.6039   18.6454 C.3     1  UNL1        0.0031
     31 C           2.8631    0.9466   19.8875 C.3     1  UNL1        0.0204
     32 C           2.3913    2.0571   20.7786 C.3     1  UNL1        0.0724
     33 C           4.1029    0.1787   20.2386 C.3     1  UNL1        0.0277
     34 C           4.2888   -1.2195   19.7282 C.ar    1  UNL1       -0.0220
     35 C           5.3963   -1.5247   18.7636 C.ar    1  UNL1       -0.0020
     36 C           5.5823   -2.9229   18.2533 C.ar    1  UNL1        0.0293
     37 C           4.6608   -4.0158   18.7075 C.ar    1  UNL1        0.1401
     38 F           4.8468   -5.4141   18.1971 F       1  UNL1       -0.2042
     39 C           3.5534   -3.7106   19.6721 C.ar    1  UNL1        0.0293
     40 C           3.3674   -2.3125   20.1825 C.ar    1  UNL1       -0.0020
@<TRIPOS>BOND
     1    24    25    1
     2    25     1    1
     3     1     2    2
     4     1     3   am
     5     3     4    1
     6     4     5    1
     7     5     6    1
     8     6     9    1
     9     9    10   am
    10    10    11    2
    11    10    12   am
    12    12    15    1
    13    15    16   ar
    14    16    17   ar
    15    17    18    1
    16    17    19   ar
    17    19    21    1
    18    21    22    1
    19    21    23    2
    20    19    20   ar
    21     6     7    1
    22     7    26    1
    23    26    27    1
    24    27    28    1
    25    28    29    1
    26    29    30    1
    27    30    31    1
    28    31    33    1
    29    33    34    1
    30    34    35   ar
    31    35    36   ar
    32    36    37   ar
    33    37    38    1
    34    37    39   ar
    35    39    40   ar
    36    31    32    1
    37     7     8    1
    38     8     3    1
    39    20    15   ar
    40    32    27    1
    41    40    34   ar
    42     9    13    1
    43    12    14    1
