@<TRIPOS>MOLECULE
*****
 42 46 0 0 0
SMALL
GASTEIGER

@<TRIPOS>ATOM
      1 N           6.6991   -5.1352   31.8815 N.am    1  UNL1       -0.2902
      2 C           6.2063   -3.7250   32.0171 C.2     1  UNL1        0.3044
      3 O           6.8590   -2.6239   31.2351 O.2     1  UNL1       -0.2525
      4 N           5.0608   -3.4158   32.9348 N.am    1  UNL1       -0.2682
      5 H           6.2707   -5.8578   32.3947 H       1  UNL1        0.1509
      6 H           4.6324   -4.1385   33.4481 H       1  UNL1        0.1564
      7 C           4.5680   -2.0056   33.0705 C.ar    1  UNL1        0.0546
      8 C           4.8071   -1.2466   34.3421 C.ar    1  UNL1        0.0339
      9 C           4.3143    0.1636   34.4778 C.ar    1  UNL1        0.0856
     10 C           3.5824    0.8148   33.3420 C.ar    1  UNL1        0.0384
     11 C           3.3432    0.0559   32.0705 C.ar    1  UNL1        0.0856
     12 C           3.8360   -1.3544   31.9347 C.ar    1  UNL1        0.0339
     13 N           4.5535    0.9225   35.7493 N.ar    1  UNL1       -0.2281
     14 C           5.7240    0.7510   36.6716 C.ar    1  UNL1        0.1020
     15 C           5.5581    1.7087   37.8142 C.ar    1  UNL1        0.0431
     16 C           4.2851    2.4721   37.5980 C.ar    1  UNL1        0.1221
     17 N           3.6642    1.9862   36.3218 N.ar    1  UNL1       -0.1635
     18 N           2.6113    0.7072   30.9346 N.ar    1  UNL1       -0.2281
     19 C           3.2334    1.2628   29.6879 C.ar    1  UNL1        0.1020
     20 C           2.1353    1.8162   28.8289 C.ar    1  UNL1        0.0431
     21 C           0.8345    1.6026   29.5447 C.ar    1  UNL1        0.1221
     22 N           1.1287    0.9172   30.8461 N.ar    1  UNL1       -0.1635
     23 C           9.2424   -5.0667   31.3555 C.3     1  UNL1        0.0214
     24 C           7.8446   -5.4443   30.9637 C.3     1  UNL1        0.0770
     25 C           7.5923   -6.1311   29.6542 C.3     1  UNL1        0.0661
     26 C           7.0987   -5.3433   28.4771 C.3     1  UNL1        0.1738
     27 O           6.2924   -4.0971   28.6935 O.3     1  UNL1       -0.3697
     28 H           6.0550   -3.7125   27.8352 H       1  UNL1        0.2119
     29 N           7.4113   -5.8018   27.0834 N.3     1  UNL1       -0.2511
     30 C           7.5814   -7.2640   26.7954 C.3     1  UNL1        0.0742
     31 C           7.8940   -7.7224   25.4018 C.3     1  UNL1        0.0175
     32 C           8.0366   -6.7186   24.2963 C.3     1  UNL1        0.0031
     33 C           7.8665   -5.2564   24.5844 C.3     1  UNL1        0.0205
     34 C           7.5539   -4.7980   25.9780 C.3     1  UNL1        0.0745
     35 C           8.0091   -4.2526   23.4789 C.3     1  UNL1        0.0277
     36 C           6.8674   -4.0062   22.5378 C.ar    1  UNL1       -0.0220
     37 C           5.5043   -3.6907   23.0786 C.ar    1  UNL1       -0.0020
     38 C           4.3626   -3.4443   22.1375 C.ar    1  UNL1        0.0293
     39 C           4.5840   -3.5133   20.6555 C.ar    1  UNL1        0.1401
     40 F           3.4422   -3.2668   19.7144 F       1  UNL1       -0.2042
     41 C           5.9470   -3.8288   20.1147 C.ar    1  UNL1        0.0293
     42 C           7.0888   -4.0752   21.0558 C.ar    1  UNL1       -0.0020
@<TRIPOS>BOND
     1    24    23    1
     2    24    25    1
     3    25    26    1
     4    26    27    1
     5    26    29    1
     6    29    30    1
     7    30    31    1
     8    31    32    1
     9    32    33    1
    10    33    35    1
    11    35    36    1
    12    36    37   ar
    13    37    38   ar
    14    38    39   ar
    15    39    40    1
    16    39    41   ar
    17    41    42   ar
    18    33    34    1
    19    24     1    1
    20     1     2   am
    21     2     3    2
    22     2     4   am
    23     4     7    1
    24     7     8   ar
    25     8     9   ar
    26     9    13    1
    27    13    14   ar
    28    14    15   ar
    29    15    16   ar
    30    16    17   ar
    31     9    10   ar
    32    10    11   ar
    33    11    18    1
    34    18    19   ar
    35    19    20   ar
    36    20    21   ar
    37    21    22   ar
    38    11    12   ar
    39    34    29    1
    40    12     7   ar
    41    42    36   ar
    42    17    13   ar
    43    22    18   ar
    44    27    28    1
    45     1     5    1
    46     4     6    1
@<TRIPOS>MOLECULE
*****
 42 46 0 0 0
SMALL
GASTEIGER

@<TRIPOS>ATOM
      1 N           6.7642   -5.0920   31.9283 N.am    1  UNL1       -0.2902
      2 C           6.2404   -3.6923   32.0561 C.2     1  UNL1        0.3044
      3 O           6.8672   -2.5820   31.2660 O.2     1  UNL1       -0.2525
      4 N           5.0899   -3.4029   32.9739 N.am    1  UNL1       -0.2682
      5 H           6.3528   -5.8208   32.4468 H       1  UNL1        0.1509
      6 H           4.6785   -4.1316   33.4925 H       1  UNL1        0.1564
      7 C           4.5661   -2.0031   33.1017 C.ar    1  UNL1        0.0546
      8 C           3.7574   -1.4006   31.9913 C.ar    1  UNL1        0.0339
      9 C           3.2336   -0.0009   32.1190 C.ar    1  UNL1        0.0856
     10 C           3.5186    0.7964   33.3572 C.ar    1  UNL1        0.0384
     11 C           4.3273    0.1940   34.4676 C.ar    1  UNL1        0.0856
     12 C           4.8511   -1.2058   34.3399 C.ar    1  UNL1        0.0339
     13 N           2.4250    0.6015   31.0086 N.ar    1  UNL1       -0.2281
     14 C           1.3933    1.6807   31.1544 C.ar    1  UNL1        0.1020
     15 C           0.8366    1.9768   29.7933 C.ar    1  UNL1        0.0431
     16 C           1.5242    1.0806   28.8063 C.ar    1  UNL1        0.1221
     17 N           2.5059    0.2306   29.5575 N.ar    1  UNL1       -0.1635
     18 N           4.6122    0.9913   35.7058 N.ar    1  UNL1       -0.2281
     19 C           4.8914    2.4641   35.7613 C.ar    1  UNL1        0.1020
     20 C           5.1197    2.8388   37.1958 C.ar    1  UNL1        0.0431
     21 C           4.9816    1.5977   38.0267 C.ar    1  UNL1        0.1221
     22 N           4.6680    0.4559   37.1059 N.ar    1  UNL1       -0.1635
     23 C           9.3046   -4.9711   31.3975 C.3     1  UNL1        0.0214
     24 C           7.9147   -5.3814   31.0104 C.3     1  UNL1        0.0770
     25 C           7.6754   -6.0812   29.7054 C.3     1  UNL1        0.0661
     26 C           7.1391   -5.3166   28.5317 C.3     1  UNL1        0.1738
     27 O           6.3051   -4.0897   28.7535 O.3     1  UNL1       -0.3697
     28 H           6.0413   -3.7188   27.8969 H       1  UNL1        0.2119
     29 N           7.4367   -5.7788   27.1360 N.3     1  UNL1       -0.2511
     30 C           7.5955   -7.2424   26.8485 C.3     1  UNL1        0.0742
     31 C           7.8932   -7.7045   25.4528 C.3     1  UNL1        0.0175
     32 C           8.0321   -6.7031   24.3448 C.3     1  UNL1        0.0031
     33 C           7.8733   -5.2395   24.6323 C.3     1  UNL1        0.0205
     34 C           7.5756   -4.7774   26.0279 C.3     1  UNL1        0.0745
     35 C           8.0122   -4.2381   23.5242 C.3     1  UNL1        0.0277
     36 C           6.8680   -3.9949   22.5853 C.ar    1  UNL1       -0.0220
     37 C           7.0857   -4.0677   21.1029 C.ar    1  UNL1       -0.0020
     38 C           5.9415   -3.8246   20.1640 C.ar    1  UNL1        0.0293
     39 C           4.5796   -3.5086   20.7073 C.ar    1  UNL1        0.1401
     40 F           3.4354   -3.2654   19.7683 F       1  UNL1       -0.2042
     41 C           4.3618   -3.4357   22.1896 C.ar    1  UNL1        0.0293
     42 C           5.5061   -3.6789   23.1286 C.ar    1  UNL1       -0.0020
@<TRIPOS>BOND
     1    24    23    1
     2    24    25    1
     3    25    26    1
     4    26    27    1
     5    26    29    1
     6    29    30    1
     7    30    31    1
     8    31    32    1
     9    32    33    1
    10    33    35    1
    11    35    36    1
    12    36    37   ar
    13    37    38   ar
    14    38    39   ar
    15    39    40    1
    16    39    41   ar
    17    41    42   ar
    18    33    34    1
    19    24     1    1
    20     1     2   am
    21     2     3    2
    22     2     4   am
    23     4     7    1
    24     7     8   ar
    25     8     9   ar
    26     9    13    1
    27    13    14   ar
    28    14    15   ar
    29    15    16   ar
    30    16    17   ar
    31     9    10   ar
    32    10    11   ar
    33    11    18    1
    34    18    19   ar
    35    19    20   ar
    36    20    21   ar
    37    21    22   ar
    38    11    12   ar
    39    34    29    1
    40    12     7   ar
    41    42    36   ar
    42    17    13   ar
    43    22    18   ar
    44    27    28    1
    45     1     5    1
    46     4     6    1
@<TRIPOS>MOLECULE
*****
 42 46 0 0 0
SMALL
GASTEIGER

@<TRIPOS>ATOM
      1 N           8.0745   -3.6789   29.1746 N.am    1  UNL1       -0.2902
      2 C           6.8927   -3.0642   29.8640 C.2     1  UNL1        0.3044
      3 O           6.1758   -3.8217   30.9421 O.2     1  UNL1       -0.2525
      4 N           6.4277   -1.6921   29.4753 N.am    1  UNL1       -0.2682
      5 H           8.5450   -3.1818   28.4669 H       1  UNL1        0.1509
      6 H           6.8982   -1.1950   28.7677 H       1  UNL1        0.1564
      7 C           5.2458   -1.0774   30.1648 C.ar    1  UNL1        0.0546
      8 C           5.3085   -0.7725   31.6322 C.ar    1  UNL1        0.0339
      9 C           4.1266   -0.1579   32.3216 C.ar    1  UNL1        0.0856
     10 C           2.8821    0.1520   31.5437 C.ar    1  UNL1        0.0384
     11 C           2.8194   -0.1529   30.0764 C.ar    1  UNL1        0.0856
     12 C           4.0013   -0.7676   29.3869 C.ar    1  UNL1        0.0339
     13 N           4.1893    0.1470   33.7889 N.ar    1  UNL1       -0.2281
     14 C           4.8410   -0.7032   34.8391 C.ar    1  UNL1        0.1020
     15 C           4.6658   -0.0201   36.1629 C.ar    1  UNL1        0.0431
     16 C           3.9059    1.2523   35.9311 C.ar    1  UNL1        0.1221
     17 N           3.6115    1.3556   34.4638 N.ar    1  UNL1       -0.1635
     18 N           1.5748    0.1569   29.2985 N.ar    1  UNL1       -0.2281
     19 C           1.5117    0.8903   27.9915 C.ar    1  UNL1        0.1020
     20 C           0.0727    0.9744   27.5763 C.ar    1  UNL1        0.0431
     21 C          -0.7534    0.2930   28.6266 C.ar    1  UNL1        0.1221
     22 N           0.1749   -0.2123   29.6910 N.ar    1  UNL1       -0.1635
     23 C           9.4995   -5.2228   30.7029 C.3     1  UNL1        0.0214
     24 C           8.5395   -5.0510   29.5632 C.3     1  UNL1        0.0770
     25 C           8.0444   -6.2515   28.8122 C.3     1  UNL1        0.0661
     26 C           7.0663   -6.0818   27.6878 C.3     1  UNL1        0.1738
     27 O           5.6245   -5.7936   27.9849 O.3     1  UNL1       -0.3697
     28 H           5.1327   -5.7135   27.1527 H       1  UNL1        0.2119
     29 N           7.5299   -6.2002   26.2661 N.3     1  UNL1       -0.2511
     30 C           8.0695   -7.5048   25.7594 C.3     1  UNL1        0.0742
     31 C           8.5331   -7.6231   24.3378 C.3     1  UNL1        0.0175
     32 C           8.4572   -6.4368   23.4229 C.3     1  UNL1        0.0031
     33 C           7.9177   -5.1322   23.9296 C.3     1  UNL1        0.0205
     34 C           7.4540   -5.0139   25.3512 C.3     1  UNL1        0.0745
     35 C           7.8418   -3.9459   23.0148 C.3     1  UNL1        0.0277
     36 C           6.6999   -3.8138   22.0511 C.ar    1  UNL1       -0.0220
     37 C           5.2901   -3.7631   22.5612 C.ar    1  UNL1       -0.0020
     38 C           4.1482   -3.6309   21.5976 C.ar    1  UNL1        0.0293
     39 C           4.4160   -3.5495   20.1239 C.ar    1  UNL1        0.1401
     40 F           3.2741   -3.4174   19.1603 F       1  UNL1       -0.2042
     41 C           5.8257   -3.6002   19.6139 C.ar    1  UNL1        0.0293
     42 C           6.9677   -3.7324   20.5775 C.ar    1  UNL1       -0.0020
@<TRIPOS>BOND
     1    24    23    1
     2    24    25    1
     3    25    26    1
     4    26    27    1
     5    26    29    1
     6    29    30    1
     7    30    31    1
     8    31    32    1
     9    32    33    1
    10    33    35    1
    11    35    36    1
    12    36    37   ar
    13    37    38   ar
    14    38    39   ar
    15    39    40    1
    16    39    41   ar
    17    41    42   ar
    18    33    34    1
    19    24     1    1
    20     1     2   am
    21     2     3    2
    22     2     4   am
    23     4     7    1
    24     7     8   ar
    25     8     9   ar
    26     9    13    1
    27    13    14   ar
    28    14    15   ar
    29    15    16   ar
    30    16    17   ar
    31     9    10   ar
    32    10    11   ar
    33    11    18    1
    34    18    19   ar
    35    19    20   ar
    36    20    21   ar
    37    21    22   ar
    38    11    12   ar
    39    34    29    1
    40    12     7   ar
    41    42    36   ar
    42    17    13   ar
    43    22    18   ar
    44    27    28    1
    45     1     5    1
    46     4     6    1
@<TRIPOS>MOLECULE
*****
 42 46 0 0 0
SMALL
GASTEIGER

@<TRIPOS>ATOM
      1 N          -0.2539    1.1098   26.4946 N.am    1  UNL1       -0.2902
      2 C           0.6273    1.2342   27.7020 C.2     1  UNL1        0.3044
      3 O           1.5815    2.3857   27.8186 O.2     1  UNL1       -0.2525
      4 N           0.5542    0.2073   28.7929 N.am    1  UNL1       -0.2682
      5 H          -0.8802    0.3541   26.4181 H       1  UNL1        0.1509
      6 H          -0.0721   -0.5484   28.7164 H       1  UNL1        0.1564
      7 C           1.4354    0.3318   30.0004 C.ar    1  UNL1        0.0546
      8 C           2.5584   -0.6398   30.2127 C.ar    1  UNL1        0.0339
      9 C           3.4396   -0.5154   31.4202 C.ar    1  UNL1        0.0856
     10 C           3.1978    0.5807   32.4153 C.ar    1  UNL1        0.0384
     11 C           2.0749    1.5522   32.2030 C.ar    1  UNL1        0.0856
     12 C           1.1937    1.4278   30.9955 C.ar    1  UNL1        0.0339
     13 N           4.5625   -1.4869   31.6325 N.ar    1  UNL1       -0.2281
     14 C           4.6740   -2.4736   32.7568 C.ar    1  UNL1        0.1020
     15 C           5.9515   -3.2389   32.5770 C.ar    1  UNL1        0.0431
     16 C           6.6296   -2.7252   31.3415 C.ar    1  UNL1        0.1221
     17 N           5.7711   -1.6424   30.7577 N.ar    1  UNL1       -0.1635
     18 N           1.8332    2.6482   33.1982 N.ar    1  UNL1       -0.2281
     19 C           1.2369    3.9924   32.9019 C.ar    1  UNL1        0.1020
     20 C           1.1805    4.7674   34.1850 C.ar    1  UNL1        0.0431
     21 C           1.7419    3.9023   35.2742 C.ar    1  UNL1        0.1221
     22 N           2.1453    2.5926   34.6643 N.ar    1  UNL1       -0.1635
     23 C          -1.3249    3.0820   25.1857 C.3     1  UNL1        0.0214
     24 C          -0.1809    2.1367   25.4037 C.3     1  UNL1        0.0770
     25 C           1.0363    2.2184   24.5308 C.3     1  UNL1        0.0661
     26 C           1.5274    0.9966   23.8125 C.3     1  UNL1        0.1738
     27 O           2.0594   -0.1690   24.5926 O.3     1  UNL1       -0.3697
     28 H           2.3326   -0.8701   23.9805 H       1  UNL1        0.2119
     29 N           1.4865    0.9402   22.3141 N.3     1  UNL1       -0.2511
     30 C           0.2399    1.3405   21.5822 C.3     1  UNL1        0.0742
     31 C           0.1990    1.2841   20.0839 C.3     1  UNL1        0.0175
     32 C           1.4049    0.8275   19.3174 C.3     1  UNL1        0.0031
     33 C           2.6515    0.4273   20.0492 C.3     1  UNL1        0.0205
     34 C           2.6923    0.4836   21.5476 C.3     1  UNL1        0.0745
     35 C           3.8573   -0.0293   19.2827 C.3     1  UNL1        0.0277
     36 C           4.1240   -1.4949   19.1076 C.ar    1  UNL1       -0.0220
     37 C           3.1104   -2.5016   19.5651 C.ar    1  UNL1       -0.0020
     38 C           3.3772   -3.9673   19.3900 C.ar    1  UNL1        0.0293
     39 C           4.6575   -4.4263   18.7575 C.ar    1  UNL1        0.1401
     40 F           4.9242   -5.8920   18.5825 F       1  UNL1       -0.2042
     41 C           5.6711   -3.4197   18.3001 C.ar    1  UNL1        0.0293
     42 C           5.4044   -1.9539   18.4751 C.ar    1  UNL1       -0.0020
@<TRIPOS>BOND
     1    24    23    1
     2    24    25    1
     3    25    26    1
     4    26    27    1
     5    26    29    1
     6    29    30    1
     7    30    31    1
     8    31    32    1
     9    32    33    1
    10    33    35    1
    11    35    36    1
    12    36    37   ar
    13    37    38   ar
    14    38    39   ar
    15    39    40    1
    16    39    41   ar
    17    41    42   ar
    18    33    34    1
    19    24     1    1
    20     1     2   am
    21     2     3    2
    22     2     4   am
    23     4     7    1
    24     7     8   ar
    25     8     9   ar
    26     9    13    1
    27    13    14   ar
    28    14    15   ar
    29    15    16   ar
    30    16    17   ar
    31     9    10   ar
    32    10    11   ar
    33    11    18    1
    34    18    19   ar
    35    19    20   ar
    36    20    21   ar
    37    21    22   ar
    38    11    12   ar
    39    34    29    1
    40    12     7   ar
    41    42    36   ar
    42    17    13   ar
    43    22    18   ar
    44    27    28    1
    45     1     5    1
    46     4     6    1
@<TRIPOS>MOLECULE
*****
 42 46 0 0 0
SMALL
GASTEIGER

@<TRIPOS>ATOM
      1 N           1.5152    0.7363   26.0385 N.am    1  UNL1       -0.2902
      2 C           1.8534    1.1961   27.4257 C.2     1  UNL1        0.3044
      3 O           3.0950    2.0025   27.6666 O.2     1  UNL1       -0.2525
      4 N           0.9500    0.8495   28.5719 N.am    1  UNL1       -0.2682
      5 H           0.7002    0.2071   25.8804 H       1  UNL1        0.1509
      6 H           0.1351    0.3202   28.4137 H       1  UNL1        0.1564
      7 C           1.2883    1.3093   29.9590 C.ar    1  UNL1        0.0546
      8 C           2.1967    0.4845   30.8219 C.ar    1  UNL1        0.0339
      9 C           2.5350    0.9443   32.2090 C.ar    1  UNL1        0.0856
     10 C           1.9648    2.2288   32.7333 C.ar    1  UNL1        0.0384
     11 C           1.0563    3.0536   31.8705 C.ar    1  UNL1        0.0856
     12 C           0.7180    2.5938   30.4833 C.ar    1  UNL1        0.0339
     13 N           3.4434    0.1196   33.0718 N.ar    1  UNL1       -0.2281
     14 C           4.1866    0.6012   34.2825 C.ar    1  UNL1        0.1020
     15 C           4.9707   -0.5523   34.8345 C.ar    1  UNL1        0.0431
     16 C           4.7121   -1.7469   33.9649 C.ar    1  UNL1        0.1221
     17 N           3.7682   -1.3317   32.8755 N.ar    1  UNL1       -0.1635
     18 N           0.4861    4.3381   32.3948 N.ar    1  UNL1       -0.2281
     19 C           0.5952    4.8410   33.8039 C.ar    1  UNL1        0.1020
     20 C          -0.1168    6.1589   33.8820 C.ar    1  UNL1        0.0431
     21 C          -0.6659    6.4706   32.5213 C.ar    1  UNL1        0.1221
     22 N          -0.2932    5.3452   31.6022 N.ar    1  UNL1       -0.1635
     23 C           1.9847    2.0966   23.8754 C.3     1  UNL1        0.0214
     24 C           2.4186    1.0830   24.8923 C.3     1  UNL1        0.0770
     25 C           3.7559    0.4158   24.7631 C.3     1  UNL1        0.0661
     26 C           3.8756   -1.0672   24.9531 C.3     1  UNL1        0.1738
     27 O           3.5254   -1.6848   26.2744 O.3     1  UNL1       -0.3697
     28 H           3.6575   -2.6446   26.2279 H       1  UNL1        0.2119
     29 N           4.3457   -1.9328   23.8217 N.3     1  UNL1       -0.2511
     30 C           5.4674   -2.9051   24.0372 C.3     1  UNL1        0.0742
     31 C           5.9374   -3.7706   22.9059 C.3     1  UNL1        0.0175
     32 C           5.2857   -3.6638   21.5591 C.3     1  UNL1        0.0031
     33 C           4.1640   -2.6915   21.3436 C.3     1  UNL1        0.0205
     34 C           3.6940   -1.8260   22.4749 C.3     1  UNL1        0.0745
     35 C           3.5123   -2.5848   19.9968 C.3     1  UNL1        0.0277
     36 C           2.9090   -1.2840   19.5565 C.ar    1  UNL1       -0.0220
     37 C           3.7062   -0.3355   18.7109 C.ar    1  UNL1       -0.0020
     38 C           3.1029    0.9653   18.2706 C.ar    1  UNL1        0.0293
     39 C           1.7024    1.3177   18.6760 C.ar    1  UNL1        0.1401
     40 F           1.0990    2.6186   18.2357 F       1  UNL1       -0.2042
     41 C           0.9052    0.3694   19.5216 C.ar    1  UNL1        0.0293
     42 C           1.5085   -0.9315   19.9619 C.ar    1  UNL1       -0.0020
@<TRIPOS>BOND
     1    24    23    1
     2    24    25    1
     3    25    26    1
     4    26    27    1
     5    26    29    1
     6    29    30    1
     7    30    31    1
     8    31    32    1
     9    32    33    1
    10    33    35    1
    11    35    36    1
    12    36    37   ar
    13    37    38   ar
    14    38    39   ar
    15    39    40    1
    16    39    41   ar
    17    41    42   ar
    18    33    34    1
    19    24     1    1
    20     1     2   am
    21     2     3    2
    22     2     4   am
    23     4     7    1
    24     7     8   ar
    25     8     9   ar
    26     9    13    1
    27    13    14   ar
    28    14    15   ar
    29    15    16   ar
    30    16    17   ar
    31     9    10   ar
    32    10    11   ar
    33    11    18    1
    34    18    19   ar
    35    19    20   ar
    36    20    21   ar
    37    21    22   ar
    38    11    12   ar
    39    34    29    1
    40    12     7   ar
    41    42    36   ar
    42    17    13   ar
    43    22    18   ar
    44    27    28    1
    45     1     5    1
    46     4     6    1
@<TRIPOS>MOLECULE
*****
 42 46 0 0 0
SMALL
GASTEIGER

@<TRIPOS>ATOM
      1 N           7.4330   -2.3859   28.3192 N.am    1  UNL1       -0.2902
      2 C           6.2024   -1.9708   27.5687 C.2     1  UNL1        0.3044
      3 O           4.9260   -2.7405   27.7370 O.2     1  UNL1       -0.2525
      4 N           6.2482   -0.7861   26.6498 N.am    1  UNL1       -0.2682
      5 H           8.2708   -1.8807   28.2087 H       1  UNL1        0.1509
      6 H           7.0859   -0.2809   26.5394 H       1  UNL1        0.1564
      7 C           5.0176   -0.3710   25.8993 C.ar    1  UNL1        0.0546
      8 C           4.9957   -0.4351   24.4008 C.ar    1  UNL1        0.0339
      9 C           3.7651   -0.0200   23.6503 C.ar    1  UNL1        0.0856
     10 C           2.5563    0.4591   24.3982 C.ar    1  UNL1        0.0384
     11 C           2.5782    0.5232   25.8967 C.ar    1  UNL1        0.0856
     12 C           3.8089    0.1081   26.6473 C.ar    1  UNL1        0.0339
     13 N           3.7432   -0.0841   22.1519 N.ar    1  UNL1       -0.2281
     14 C           4.9352    0.0214   21.2473 C.ar    1  UNL1        0.1020
     15 C           4.4542   -0.0942   19.8312 C.ar    1  UNL1        0.0431
     16 C           2.9649   -0.2711   19.8605 C.ar    1  UNL1        0.1221
     17 N           2.5255   -0.2649   21.2948 N.ar    1  UNL1       -0.1635
     18 N           1.3695    1.0023   26.6446 N.ar    1  UNL1       -0.2281
     19 C           0.1928    1.7194   26.0519 C.ar    1  UNL1        0.1020
     20 C          -0.7787    2.0088   27.1576 C.ar    1  UNL1        0.0431
     21 C          -0.2025    1.4706   28.4336 C.ar    1  UNL1        0.1221
     22 N           1.1252    0.8486   28.1166 N.ar    1  UNL1       -0.1635
     23 C           7.0638   -3.3813   30.6904 C.3     1  UNL1        0.0214
     24 C           7.3872   -3.5706   29.2380 C.3     1  UNL1        0.0770
     25 C           7.6649   -4.9448   28.7044 C.3     1  UNL1        0.0661
     26 C           6.7677   -5.5391   27.6595 C.3     1  UNL1        0.1738
     27 O           5.3432   -5.8692   27.9939 O.3     1  UNL1       -0.3697
     28 H           4.9059   -6.2426   27.2127 H       1  UNL1        0.2119
     29 N           7.2950   -5.8032   26.2803 N.3     1  UNL1       -0.2511
     30 C           7.8687   -7.1471   25.9413 C.3     1  UNL1        0.0742
     31 C           8.3959   -7.4112   24.5621 C.3     1  UNL1        0.0175
     32 C           8.3494   -6.3314   23.5219 C.3     1  UNL1        0.0031
     33 C           7.7757   -4.9876   23.8609 C.3     1  UNL1        0.0205
     34 C           7.2485   -4.7235   25.2401 C.3     1  UNL1        0.0745
     35 C           7.7292   -3.9079   22.8207 C.3     1  UNL1        0.0277
     36 C           6.5733   -3.8338   21.8677 C.ar    1  UNL1       -0.0220
     37 C           6.8154   -3.8970   20.3886 C.ar    1  UNL1       -0.0020
     38 C           5.6594   -3.8230   19.4356 C.ar    1  UNL1        0.0293
     39 C           4.2614   -3.6857   19.9616 C.ar    1  UNL1        0.1401
     40 F           3.1054   -3.6117   19.0085 F       1  UNL1       -0.2042
     41 C           4.0193   -3.6225   21.4405 C.ar    1  UNL1        0.0293
     42 C           5.1753   -3.6966   22.3936 C.ar    1  UNL1       -0.0020
@<TRIPOS>BOND
     1    24    23    1
     2    24    25    1
     3    25    26    1
     4    26    27    1
     5    26    29    1
     6    29    30    1
     7    30    31    1
     8    31    32    1
     9    32    33    1
    10    33    35    1
    11    35    36    1
    12    36    37   ar
    13    37    38   ar
    14    38    39   ar
    15    39    40    1
    16    39    41   ar
    17    41    42   ar
    18    33    34    1
    19    24     1    1
    20     1     2   am
    21     2     3    2
    22     2     4   am
    23     4     7    1
    24     7     8   ar
    25     8     9   ar
    26     9    13    1
    27    13    14   ar
    28    14    15   ar
    29    15    16   ar
    30    16    17   ar
    31     9    10   ar
    32    10    11   ar
    33    11    18    1
    34    18    19   ar
    35    19    20   ar
    36    20    21   ar
    37    21    22   ar
    38    11    12   ar
    39    34    29    1
    40    12     7   ar
    41    42    36   ar
    42    17    13   ar
    43    22    18   ar
    44    27    28    1
    45     1     5    1
    46     4     6    1
@<TRIPOS>MOLECULE
*****
 42 46 0 0 0
SMALL
GASTEIGER

@<TRIPOS>ATOM
      1 N           7.6671   -2.4903   28.3417 N.am    1  UNL1       -0.2902
      2 C           6.4225   -2.0589   27.6242 C.2     1  UNL1        0.3044
      3 O           5.1421   -2.8145   27.8230 O.2     1  UNL1       -0.2525
      4 N           6.4583   -0.8718   26.7079 N.am    1  UNL1       -0.2682
      5 H           8.5075   -1.9943   28.2112 H       1  UNL1        0.1509
      6 H           7.2987   -0.3759   26.5774 H       1  UNL1        0.1564
      7 C           5.2138   -0.4404   25.9903 C.ar    1  UNL1        0.0546
      8 C           4.0400    0.0759   26.7687 C.ar    1  UNL1        0.0339
      9 C           2.7955    0.5073   26.0512 C.ar    1  UNL1        0.0856
     10 C           2.7246    0.4224   24.5553 C.ar    1  UNL1        0.0384
     11 C           3.8982   -0.0939   23.7769 C.ar    1  UNL1        0.0856
     12 C           5.1429   -0.5253   24.4944 C.ar    1  UNL1        0.0339
     13 N           1.6218    1.0236   26.8296 N.ar    1  UNL1       -0.2281
     14 C           0.2315    1.2205   26.3018 C.ar    1  UNL1        0.1020
     15 C          -0.6172    1.7523   27.4184 C.ar    1  UNL1        0.0431
     16 C           0.2485    1.8841   28.6364 C.ar    1  UNL1        0.1221
     17 N           1.6323    1.4337   28.2724 N.ar    1  UNL1       -0.1635
     18 N           3.8273   -0.1788   22.2810 N.ar    1  UNL1       -0.2281
     19 C           2.5741   -0.2667   21.4613 C.ar    1  UNL1        0.1020
     20 C           2.9694   -0.3329   20.0158 C.ar    1  UNL1        0.0431
     21 C           4.4669   -0.2859   19.9421 C.ar    1  UNL1        0.1221
     22 N           4.9970   -0.1906   21.3421 N.ar    1  UNL1       -0.1635
     23 C           7.4147   -3.4826   30.7295 C.3     1  UNL1        0.0214
     24 C           7.6312   -3.6773   29.2581 C.3     1  UNL1        0.0770
     25 C           7.8119   -5.0591   28.7029 C.3     1  UNL1        0.0661
     26 C           6.8873   -5.5655   27.6359 C.3     1  UNL1        0.1738
     27 O           5.4486   -5.8408   27.9590 O.3     1  UNL1       -0.3697
     28 H           4.9939   -6.1598   27.1638 H       1  UNL1        0.2119
     29 N           7.4013   -5.7966   26.2458 N.3     1  UNL1       -0.2511
     30 C           8.0299   -7.1105   25.8874 C.3     1  UNL1        0.0742
     31 C           8.5439   -7.3415   24.4973 C.3     1  UNL1        0.0175
     32 C           8.4291   -6.2587   23.4656 C.3     1  UNL1        0.0031
     33 C           7.8005   -4.9449   23.8240 C.3     1  UNL1        0.0205
     34 C           7.2865   -4.7138   25.2141 C.3     1  UNL1        0.0745
     35 C           7.6857   -3.8621   22.7923 C.3     1  UNL1        0.0277
     36 C           6.5143   -3.8396   21.8557 C.ar    1  UNL1       -0.0220
     37 C           6.7394   -3.8496   20.3727 C.ar    1  UNL1       -0.0020
     38 C           5.5680   -3.8271   19.4361 C.ar    1  UNL1        0.0293
     39 C           4.1714   -3.7946   19.9825 C.ar    1  UNL1        0.1401
     40 F           2.9999   -3.7721   19.0459 F       1  UNL1       -0.2042
     41 C           3.9463   -3.7846   21.4655 C.ar    1  UNL1        0.0293
     42 C           5.1177   -3.8071   22.4021 C.ar    1  UNL1       -0.0020
@<TRIPOS>BOND
     1    24    23    1
     2    24    25    1
     3    25    26    1
     4    26    27    1
     5    26    29    1
     6    29    30    1
     7    30    31    1
     8    31    32    1
     9    32    33    1
    10    33    35    1
    11    35    36    1
    12    36    37   ar
    13    37    38   ar
    14    38    39   ar
    15    39    40    1
    16    39    41   ar
    17    41    42   ar
    18    33    34    1
    19    24     1    1
    20     1     2   am
    21     2     3    2
    22     2     4   am
    23     4     7    1
    24     7     8   ar
    25     8     9   ar
    26     9    13    1
    27    13    14   ar
    28    14    15   ar
    29    15    16   ar
    30    16    17   ar
    31     9    10   ar
    32    10    11   ar
    33    11    18    1
    34    18    19   ar
    35    19    20   ar
    36    20    21   ar
    37    21    22   ar
    38    11    12   ar
    39    34    29    1
    40    12     7   ar
    41    42    36   ar
    42    17    13   ar
    43    22    18   ar
    44    27    28    1
    45     1     5    1
    46     4     6    1
@<TRIPOS>MOLECULE
*****
 42 46 0 0 0
SMALL
GASTEIGER

@<TRIPOS>ATOM
      1 N           1.3696    0.6692   25.3339 N.am    1  UNL1       -0.2902
      2 C           1.8765    0.8444   26.7347 C.2     1  UNL1        0.3044
      3 O           3.1791    1.5470   26.9786 O.2     1  UNL1       -0.2525
      4 N           1.0808    0.3169   27.8917 N.am    1  UNL1       -0.2682
      5 H           0.5147    0.2080   25.1738 H       1  UNL1        0.1509
      6 H           0.2258   -0.1443   27.7316 H       1  UNL1        0.1564
      7 C           1.5876    0.4920   29.2925 C.ar    1  UNL1        0.0546
      8 C           1.1271    1.6579   30.1165 C.ar    1  UNL1        0.0339
      9 C           1.6339    1.8330   31.5173 C.ar    1  UNL1        0.0856
     10 C           2.6013    0.8424   32.0942 C.ar    1  UNL1        0.0384
     11 C           3.0619   -0.3233   31.2704 C.ar    1  UNL1        0.0856
     12 C           2.5550   -0.4986   29.8694 C.ar    1  UNL1        0.0339
     13 N           1.1734    2.9988   32.3412 N.ar    1  UNL1       -0.2281
     14 C           0.0567    3.9380   31.9933 C.ar    1  UNL1        0.1020
     15 C          -0.0582    4.9498   33.0947 C.ar    1  UNL1        0.0431
     16 C           0.9874    4.6359   34.1234 C.ar    1  UNL1        0.1221
     17 N           1.7486    3.4301   33.6577 N.ar    1  UNL1       -0.1635
     18 N           4.0293   -1.3139   31.8473 N.ar    1  UNL1       -0.2281
     19 C           5.4052   -1.6083   31.3272 C.ar    1  UNL1        0.1020
     20 C           6.0168   -2.6604   32.2042 C.ar    1  UNL1        0.0431
     21 C           5.0190   -3.0163   33.2661 C.ar    1  UNL1        0.1221
     22 N           3.7907   -2.1841   33.0456 N.ar    1  UNL1       -0.1635
     23 C           1.6470    2.3539   23.3756 C.3     1  UNL1        0.0214
     24 C           2.1654    1.1967   24.1769 C.3     1  UNL1        0.0770
     25 C           3.4795    0.5669   23.8212 C.3     1  UNL1        0.0661
     26 C           3.6346   -0.9242   23.8713 C.3     1  UNL1        0.1738
     27 O           3.5814   -1.6399   25.1884 O.3     1  UNL1       -0.3697
     28 H           3.6978   -2.5920   25.0440 H       1  UNL1        0.2119
     29 N           3.8428   -1.6996   22.6042 N.3     1  UNL1       -0.2511
     30 C           4.3996   -3.0913   22.6595 C.3     1  UNL1        0.0742
     31 C           4.6078   -3.8666   21.3925 C.3     1  UNL1        0.0175
     32 C           4.2593   -3.2502   20.0701 C.3     1  UNL1        0.0031
     33 C           3.7025   -1.8585   20.0148 C.3     1  UNL1        0.0205
     34 C           3.4943   -1.0832   21.2819 C.3     1  UNL1        0.0745
     35 C           3.3539   -1.2422   18.6925 C.3     1  UNL1        0.0277
     36 C           2.8213    0.1589   18.6352 C.ar    1  UNL1       -0.0220
     37 C           3.7688    1.3186   18.5491 C.ar    1  UNL1       -0.0020
     38 C           3.2361    2.7196   18.4918 C.ar    1  UNL1        0.0293
     39 C           1.7559    2.9610   18.5206 C.ar    1  UNL1        0.1401
     40 F           1.2233    4.3621   18.4633 F       1  UNL1       -0.2042
     41 C           0.8084    1.8014   18.6067 C.ar    1  UNL1        0.0293
     42 C           1.3411    0.4003   18.6640 C.ar    1  UNL1       -0.0020
@<TRIPOS>BOND
     1    24    23    1
     2    24    25    1
     3    25    26    1
     4    26    27    1
     5    26    29    1
     6    29    30    1
     7    30    31    1
     8    31    32    1
     9    32    33    1
    10    33    35    1
    11    35    36    1
    12    36    37   ar
    13    37    38   ar
    14    38    39   ar
    15    39    40    1
    16    39    41   ar
    17    41    42   ar
    18    33    34    1
    19    24     1    1
    20     1     2   am
    21     2     3    2
    22     2     4   am
    23     4     7    1
    24     7     8   ar
    25     8     9   ar
    26     9    13    1
    27    13    14   ar
    28    14    15   ar
    29    15    16   ar
    30    16    17   ar
    31     9    10   ar
    32    10    11   ar
    33    11    18    1
    34    18    19   ar
    35    19    20   ar
    36    20    21   ar
    37    21    22   ar
    38    11    12   ar
    39    34    29    1
    40    12     7   ar
    41    42    36   ar
    42    17    13   ar
    43    22    18   ar
    44    27    28    1
    45     1     5    1
    46     4     6    1
@<TRIPOS>MOLECULE
*****
 42 46 0 0 0
SMALL
GASTEIGER

@<TRIPOS>ATOM
      1 N           2.7395    1.4667   27.9639 N.am    1  UNL1       -0.2902
      2 C           3.2412    0.2362   27.2682 C.2     1  UNL1        0.3044
      3 O           2.8627   -1.1218   27.7804 O.2     1  UNL1       -0.2525
      4 N           4.1213    0.3637   26.0602 N.am    1  UNL1       -0.2682
      5 H           2.9879    2.3581   27.6277 H       1  UNL1        0.1509
      6 H           4.3696    1.2551   25.7240 H       1  UNL1        0.1564
      7 C           4.6229   -0.8668   25.3645 C.ar    1  UNL1        0.0546
      8 C           4.1887   -1.1639   23.9597 C.ar    1  UNL1        0.0339
      9 C           4.6904   -2.3945   23.2640 C.ar    1  UNL1        0.0856
     10 C           5.6263   -3.3280   23.9730 C.ar    1  UNL1        0.0384
     11 C           6.0605   -3.0309   25.3777 C.ar    1  UNL1        0.0856
     12 C           5.5588   -1.8004   26.0735 C.ar    1  UNL1        0.0339
     13 N           4.2562   -2.6915   21.8594 N.ar    1  UNL1       -0.2281
     14 C           4.4886   -3.9742   21.1172 C.ar    1  UNL1        0.1020
     15 C           3.8893   -3.8335   19.7493 C.ar    1  UNL1        0.0431
     16 C           3.2865   -2.4638   19.6460 C.ar    1  UNL1        0.1221
     17 N           3.5132   -1.7580   20.9501 N.ar    1  UNL1       -0.1635
     18 N           6.9964   -3.9645   26.0867 N.ar    1  UNL1       -0.2281
     19 C           8.1023   -3.5651   27.0182 C.ar    1  UNL1        0.1020
     20 C           8.7801   -4.8151   27.4958 C.ar    1  UNL1        0.0431
     21 C           8.0932   -5.9870   26.8596 C.ar    1  UNL1        0.1221
     22 N           6.9908   -5.4612   25.9887 N.ar    1  UNL1       -0.1635
     23 C           0.3684    1.2994   29.0126 C.3     1  UNL1        0.0214
     24 C           1.8594    1.3392   29.1718 C.3     1  UNL1        0.0770
     25 C           2.4703    1.2516   30.5390 C.3     1  UNL1        0.0661
     26 C           2.6660   -0.0862   31.1887 C.3     1  UNL1        0.1738
     27 O           2.0556   -1.3129   30.5783 O.3     1  UNL1       -0.3697
     28 H           2.2767   -2.0873   31.1189 H       1  UNL1        0.2119
     29 N           3.4721   -0.1973   32.4488 N.3     1  UNL1       -0.2511
     30 C           4.2367   -1.4541   32.7417 C.3     1  UNL1        0.0742
     31 C           5.0427   -1.5651   34.0018 C.3     1  UNL1        0.0175
     32 C           5.0843   -0.4194   34.9690 C.3     1  UNL1        0.0031
     33 C           4.3197    0.8375   34.6761 C.3     1  UNL1        0.0205
     34 C           3.5136    0.9485   33.4160 C.3     1  UNL1        0.0745
     35 C           4.3612    1.9832   35.6433 C.3     1  UNL1        0.0277
     36 C           3.3766    2.0471   36.7730 C.ar    1  UNL1       -0.0220
     37 C           3.3098    0.9317   37.7738 C.ar    1  UNL1       -0.0020
     38 C           2.3251    0.9956   38.9035 C.ar    1  UNL1        0.0293
     39 C           1.4072    2.1749   39.0325 C.ar    1  UNL1        0.1401
     40 F           0.4225    2.2388   40.1623 F       1  UNL1       -0.2042
     41 C           1.4739    3.2903   38.0318 C.ar    1  UNL1        0.0293
     42 C           2.4586    3.2264   36.9020 C.ar    1  UNL1       -0.0020
@<TRIPOS>BOND
     1    24    23    1
     2    24    25    1
     3    25    26    1
     4    26    27    1
     5    26    29    1
     6    29    30    1
     7    30    31    1
     8    31    32    1
     9    32    33    1
    10    33    35    1
    11    35    36    1
    12    36    37   ar
    13    37    38   ar
    14    38    39   ar
    15    39    40    1
    16    39    41   ar
    17    41    42   ar
    18    33    34    1
    19    24     1    1
    20     1     2   am
    21     2     3    2
    22     2     4   am
    23     4     7    1
    24     7     8   ar
    25     8     9   ar
    26     9    13    1
    27    13    14   ar
    28    14    15   ar
    29    15    16   ar
    30    16    17   ar
    31     9    10   ar
    32    10    11   ar
    33    11    18    1
    34    18    19   ar
    35    19    20   ar
    36    20    21   ar
    37    21    22   ar
    38    11    12   ar
    39    34    29    1
    40    12     7   ar
    41    42    36   ar
    42    17    13   ar
    43    22    18   ar
    44    27    28    1
    45     1     5    1
    46     4     6    1
