@<TRIPOS>MOLECULE
*****
 33 35 0 0 0
SMALL
GASTEIGER

@<TRIPOS>ATOM
      1 C          -8.5853  -18.1129   23.1017 C.ar    1  UNL1       -0.0063
      2 C          -7.7409  -17.2740   22.1889 C.ar    1  UNL1       -0.0001
      3 C          -6.6896  -17.9196   21.3358 C.ar    1  UNL1        0.0372
      4 C          -6.4827  -19.4040   21.3954 C.ar    1  UNL1        0.1454
      5 C          -7.3271  -20.2429   22.3081 C.ar    1  UNL1        0.0372
      6 C          -8.3785  -19.5973   23.1613 C.ar    1  UNL1       -0.0001
      7 C          -9.6367  -17.4673   23.9549 C.3     1  UNL1        0.1354
      8 C         -11.0865  -17.6175   23.6005 C.3     1  UNL1        0.2618
      9 O         -12.1724  -18.1005   24.5157 O.3     1  UNL1       -0.4273
     10 C         -13.4620  -18.0925   23.7495 C.2     1  UNL1        0.4079
     11 O         -14.8047  -18.5008   24.2791 O.2     1  UNL1       -0.2260
     12 N         -13.1731  -17.6046   22.3609 N.am    1  UNL1       -0.2180
     13 C         -11.7050  -17.3110   22.2688 C.2     1  UNL1        0.2724
     14 O         -10.9823  -16.8005   21.0575 O.2     1  UNL1       -0.2707
     15 H         -13.8315  -17.4961   21.6370 H       1  UNL1        0.1610
     16 C          -8.4414  -15.0801   27.5774 C.3     1  UNL1        0.0900
     17 C          -8.8398  -15.8758   26.3699 C.1     1  UNL1       -0.0896
     18 C          -9.2383  -16.6716   25.1624 C.1     1  UNL1       -0.0833
     19 O          -5.4313  -20.0496   20.5422 O.3     1  UNL1       -0.4504
     20 C          -4.0739  -19.4228   20.4220 C.ar    1  UNL1        0.1791
     21 C          -3.4312  -19.2783   19.0744 C.ar    1  UNL1        0.0406
     22 C          -2.0737  -18.6514   18.9542 C.ar    1  UNL1        0.0072
     23 C          -1.3591  -18.1690   20.1816 C.ar    1  UNL1        0.0746
     24 C          -2.0018  -18.3135   21.5292 C.ar    1  UNL1        0.0441
     25 C          -3.3592  -18.9404   21.6494 C.ar    1  UNL1        0.1785
     26 C          -0.0017  -17.5422   20.0614 C.3     1  UNL1        0.4187
     27 F           1.3558  -16.9153   19.9411 F       1  UNL1       -0.1659
     28 F          -0.5843  -16.2100   20.4299 F       1  UNL1       -0.1659
     29 F           0.5809  -18.8743   19.6929 F       1  UNL1       -0.1659
     30 O          -4.0019  -19.0848   22.9970 O.3     1  UNL1       -0.4205
     31 C          -4.0142  -17.9267   23.9501 C.3     1  UNL1        0.5087
     32 F          -3.3229  -18.0396   25.2765 F       1  UNL1       -0.1550
     33 F          -4.7178  -16.6557   23.5769 F       1  UNL1       -0.1550
@<TRIPOS>BOND
     1    16    17    1
     2    17    18    3
     3     7    18    1
     4     7     1    1
     5     1     2   ar
     6     2     3   ar
     7     3     4   ar
     8     4    19    1
     9    19    20    1
    10    20    21   ar
    11    21    22   ar
    12    22    23   ar
    13    23    26    1
    14    26    27    1
    15    26    28    1
    16    26    29    1
    17    23    24   ar
    18    24    25   ar
    19    25    30    1
    20    30    31    1
    21    31    32    1
    22    31    33    1
    23     4     5   ar
    24     5     6   ar
    25     7     8    1
    26     8     9    1
    27     9    10    1
    28    10    11    2
    29    10    12   am
    30    12    13   am
    31    13    14    2
    32     6     1   ar
    33    13     8    1
    34    25    20   ar
    35    12    15    1
@<TRIPOS>MOLECULE
*****
 33 35 0 0 0
SMALL
GASTEIGER

@<TRIPOS>ATOM
      1 C          -5.2193  -18.1865   22.4712 C.ar    1  UNL1       -0.0063
      2 C          -5.4965  -19.3226   21.5319 C.ar    1  UNL1       -0.0001
      3 C          -6.8834  -19.5362   21.0019 C.ar    1  UNL1        0.0372
      4 C          -7.9930  -18.6135   21.4112 C.ar    1  UNL1        0.1454
      5 C          -7.7158  -17.4774   22.3504 C.ar    1  UNL1        0.0372
      6 C          -6.3289  -17.2639   22.8804 C.ar    1  UNL1       -0.0001
      7 C          -3.8323  -17.9729   23.0012 C.3     1  UNL1        0.1354
      8 C          -2.6840  -17.8043   22.0510 C.3     1  UNL1        0.2618
      9 O          -1.8799  -18.9104   21.4347 O.3     1  UNL1       -0.4273
     10 C          -0.8371  -18.2897   20.5530 C.2     1  UNL1        0.4079
     11 O           0.1858  -19.0290   19.7423 O.2     1  UNL1       -0.2260
     12 N          -0.9967  -16.7999   20.6244 N.am    1  UNL1       -0.2180
     13 C          -2.1382  -16.5000   21.5502 C.2     1  UNL1        0.2724
     14 O          -2.6449  -15.1352   21.9117 O.2     1  UNL1       -0.2707
     15 H          -0.4486  -16.1357   20.1474 H       1  UNL1        0.1610
     16 C          -3.1166  -17.8380   27.4419 C.3     1  UNL1        0.0900
     17 C          -3.3552  -17.8830   25.9617 C.1     1  UNL1       -0.0896
     18 C          -3.5938  -17.9280   24.4814 C.1     1  UNL1       -0.0833
     19 O          -9.3800  -18.8271   20.8811 O.3     1  UNL1       -0.4504
     20 C         -10.5578  -18.7407   21.8058 C.ar    1  UNL1        0.1791
     21 C         -10.4901  -19.3669   23.1672 C.ar    1  UNL1        0.0406
     22 C         -11.6680  -19.2805   24.0919 C.ar    1  UNL1        0.0072
     23 C         -12.9136  -18.5680   23.6553 C.ar    1  UNL1        0.0746
     24 C         -12.9814  -17.9418   22.2939 C.ar    1  UNL1        0.0441
     25 C         -11.8035  -18.0282   21.3692 C.ar    1  UNL1        0.1785
     26 C         -14.0915  -18.4816   24.5800 C.3     1  UNL1        0.4187
     27 F         -15.2695  -18.3952   25.5047 F       1  UNL1       -0.1659
     28 F         -13.1689  -18.5435   25.7610 F       1  UNL1       -0.1659
     29 F         -15.0141  -18.4197   23.3990 F       1  UNL1       -0.1659
     30 O         -11.8713  -17.4021   20.0078 O.3     1  UNL1       -0.4205
     31 C         -11.4029  -15.9913   19.8070 C.3     1  UNL1        0.5087
     32 F         -10.4024  -15.3917   20.7501 F       1  UNL1       -0.1550
     33 F         -11.9351  -15.1801   18.6630 F       1  UNL1       -0.1550
@<TRIPOS>BOND
     1    16    17    1
     2    17    18    3
     3     7    18    1
     4     7     1    1
     5     1     2   ar
     6     2     3   ar
     7     3     4   ar
     8     4    19    1
     9    19    20    1
    10    20    21   ar
    11    21    22   ar
    12    22    23   ar
    13    23    26    1
    14    26    27    1
    15    26    28    1
    16    26    29    1
    17    23    24   ar
    18    24    25   ar
    19    25    30    1
    20    30    31    1
    21    31    32    1
    22    31    33    1
    23     4     5   ar
    24     5     6   ar
    25     7     8    1
    26     8     9    1
    27     9    10    1
    28    10    11    2
    29    10    12   am
    30    12    13   am
    31    13    14    2
    32     6     1   ar
    33    13     8    1
    34    25    20   ar
    35    12    15    1
@<TRIPOS>MOLECULE
*****
 33 35 0 0 0
SMALL
GASTEIGER

@<TRIPOS>ATOM
      1 C           0.9207    1.8641   25.4477 C.ar    1  UNL1       -0.0063
      2 C           0.2905    1.1904   24.2650 C.ar    1  UNL1       -0.0001
      3 C           1.0866    0.9759   23.0119 C.ar    1  UNL1        0.0372
      4 C           2.5128    1.4352   22.9416 C.ar    1  UNL1        0.1454
      5 C           3.1430    2.1090   24.1243 C.ar    1  UNL1        0.0372
      6 C           2.3469    2.3235   25.3774 C.ar    1  UNL1       -0.0001
      7 C           0.1246    2.0786   26.7009 C.3     1  UNL1        0.1354
      8 C           0.6883    1.6641   28.0277 C.3     1  UNL1        0.2618
      9 O           1.1376    0.2827   28.4020 O.3     1  UNL1       -0.4273
     10 C           1.6287    0.3230   29.8187 C.2     1  UNL1        0.4079
     11 O           2.1704   -0.8390   30.5974 O.2     1  UNL1       -0.2260
     12 N           1.4829    1.7292   30.3201 N.am    1  UNL1       -0.2180
     13 C           0.9018    2.5580   29.2131 C.2     1  UNL1        0.2724
     14 O           0.5889    4.0235   29.2799 O.2     1  UNL1       -0.2707
     15 H           1.7260    2.0516   31.2179 H       1  UNL1        0.1610
     16 C          -3.9546    3.9657   26.4798 C.3     1  UNL1        0.0900
     17 C          -2.5949    3.3367   26.5535 C.1     1  UNL1       -0.0896
     18 C          -1.2351    2.7076   26.6272 C.1     1  UNL1       -0.0833
     19 O           3.3089    1.2208   21.6884 O.3     1  UNL1       -0.4504
     20 C           3.5196   -0.1680   21.1622 C.ar    1  UNL1        0.1791
     21 C           4.1209   -1.2213   22.0449 C.ar    1  UNL1        0.0406
     22 C           4.3316   -2.6101   21.5186 C.ar    1  UNL1        0.0072
     23 C           3.9411   -2.9455   20.1097 C.ar    1  UNL1        0.0746
     24 C           3.3399   -1.8922   19.2271 C.ar    1  UNL1        0.0441
     25 C           3.1291   -0.5035   19.7533 C.ar    1  UNL1        0.1785
     26 C           4.1518   -4.3343   19.5835 C.3     1  UNL1        0.4187
     27 F           4.3626   -5.7231   19.0573 F       1  UNL1       -0.1659
     28 F           2.7500   -4.3448   19.0498 F       1  UNL1       -0.1659
     29 F           5.5536   -4.3238   20.1172 F       1  UNL1       -0.1659
     30 O           2.5279    0.5498   18.8706 O.3     1  UNL1       -0.4205
     31 C           1.0474    0.7896   18.8907 C.3     1  UNL1        0.5087
     32 F           0.4261    1.7282   17.8992 F       1  UNL1       -0.1550
     33 F           0.1881    0.0908   19.9022 F       1  UNL1       -0.1550
@<TRIPOS>BOND
     1    16    17    1
     2    17    18    3
     3     7    18    1
     4     7     1    1
     5     1     2   ar
     6     2     3   ar
     7     3     4   ar
     8     4    19    1
     9    19    20    1
    10    20    21   ar
    11    21    22   ar
    12    22    23   ar
    13    23    26    1
    14    26    27    1
    15    26    28    1
    16    26    29    1
    17    23    24   ar
    18    24    25   ar
    19    25    30    1
    20    30    31    1
    21    31    32    1
    22    31    33    1
    23     4     5   ar
    24     5     6   ar
    25     7     8    1
    26     8     9    1
    27     9    10    1
    28    10    11    2
    29    10    12   am
    30    12    13   am
    31    13    14    2
    32     6     1   ar
    33    13     8    1
    34    25    20   ar
    35    12    15    1
@<TRIPOS>MOLECULE
*****
 33 35 0 0 0
SMALL
GASTEIGER

@<TRIPOS>ATOM
      1 C           2.4354   -0.1502   21.0436 C.ar    1  UNL1       -0.0063
      2 C           2.8947    1.2643   21.2390 C.ar    1  UNL1       -0.0001
      3 C           1.9841    2.4037   20.8892 C.ar    1  UNL1        0.0372
      4 C           0.6140    2.1286   20.3439 C.ar    1  UNL1        0.1454
      5 C           0.1546    0.7141   20.1486 C.ar    1  UNL1        0.0372
      6 C           1.0653   -0.4253   20.4984 C.ar    1  UNL1       -0.0001
      7 C           3.3461   -1.2897   21.3935 C.3     1  UNL1        0.1354
      8 C           3.7668   -2.2657   20.3350 C.3     1  UNL1        0.2618
      9 O           3.9681   -3.7399   20.5249 O.3     1  UNL1       -0.4273
     10 C           4.3858   -4.3242   19.2080 C.2     1  UNL1        0.4079
     11 O           4.6927   -5.7681   18.9417 O.2     1  UNL1       -0.2260
     12 N           4.4427   -3.2110   18.2042 N.am    1  UNL1       -0.2180
     13 C           4.0601   -1.9388   18.9007 C.2     1  UNL1        0.2724
     14 O           3.9843   -0.5785   18.2731 O.2     1  UNL1       -0.2707
     15 H           4.6881   -3.2998   17.2549 H       1  UNL1        0.1610
     16 C           4.8158   -1.7799   25.6183 C.3     1  UNL1        0.0900
     17 C           4.3259   -1.6165   24.2101 C.1     1  UNL1       -0.0896
     18 C           3.8360   -1.4531   22.8017 C.1     1  UNL1       -0.0833
     19 O          -0.2967    3.2681   19.9941 O.3     1  UNL1       -0.4504
     20 C          -1.6531    3.3657   20.6271 C.ar    1  UNL1        0.1791
     21 C          -2.8831    3.3663   19.7685 C.ar    1  UNL1        0.0406
     22 C          -4.2395    3.4639   20.4015 C.ar    1  UNL1        0.0072
     23 C          -4.3659    3.5609   21.8930 C.ar    1  UNL1        0.0746
     24 C          -3.1359    3.5603   22.7516 C.ar    1  UNL1        0.0441
     25 C          -1.7795    3.4627   22.1186 C.ar    1  UNL1        0.1785
     26 C          -5.7222    3.6585   22.5260 C.3     1  UNL1        0.4187
     27 F          -7.0787    3.7561   23.1589 F       1  UNL1       -0.1659
     28 F          -5.1592    3.1340   23.8135 F       1  UNL1       -0.1659
     29 F          -6.2853    4.1830   21.2385 F       1  UNL1       -0.1659
     30 O          -0.5495    3.4621   22.9772 O.3     1  UNL1       -0.4205
     31 C          -0.3436    2.3767   23.9918 C.3     1  UNL1        0.5087
     32 F          -1.0760    2.4242   25.3000 F       1  UNL1       -0.1550
     33 F           0.5947    1.2438   23.6982 F       1  UNL1       -0.1550
@<TRIPOS>BOND
     1    16    17    1
     2    17    18    3
     3     7    18    1
     4     7     1    1
     5     1     2   ar
     6     2     3   ar
     7     3     4   ar
     8     4    19    1
     9    19    20    1
    10    20    21   ar
    11    21    22   ar
    12    22    23   ar
    13    23    26    1
    14    26    27    1
    15    26    28    1
    16    26    29    1
    17    23    24   ar
    18    24    25   ar
    19    25    30    1
    20    30    31    1
    21    31    32    1
    22    31    33    1
    23     4     5   ar
    24     5     6   ar
    25     7     8    1
    26     8     9    1
    27     9    10    1
    28    10    11    2
    29    10    12   am
    30    12    13   am
    31    13    14    2
    32     6     1   ar
    33    13     8    1
    34    25    20   ar
    35    12    15    1
@<TRIPOS>MOLECULE
*****
 33 35 0 0 0
SMALL
GASTEIGER

@<TRIPOS>ATOM
      1 C           0.4362    2.0932   24.1152 C.ar    1  UNL1       -0.0063
      2 C           0.5907    2.9754   22.9120 C.ar    1  UNL1       -0.0001
      3 C           1.6456    2.6716   21.8898 C.ar    1  UNL1        0.0372
      4 C           2.5460    1.4857   22.0709 C.ar    1  UNL1        0.1454
      5 C           2.3915    0.6035   23.2742 C.ar    1  UNL1        0.0372
      6 C           1.3366    0.9073   24.2963 C.ar    1  UNL1       -0.0001
      7 C          -0.6188    2.3969   25.1375 C.3     1  UNL1        0.1354
      8 C          -0.3933    2.0398   26.5768 C.3     1  UNL1        0.2618
      9 O          -0.8012    0.7586   27.2416 O.3     1  UNL1       -0.4273
     10 C          -0.3804    0.8281   28.6797 C.2     1  UNL1        0.4079
     11 O          -0.5907   -0.2393   29.7125 O.2     1  UNL1       -0.2260
     12 N           0.2877    2.1523   28.9037 N.am    1  UNL1       -0.2180
     13 C           0.2797    2.9011   27.6040 C.2     1  UNL1        0.2724
     14 O           0.8453    4.2709   27.3722 O.2     1  UNL1       -0.2707
     15 H           0.6651    2.4735   29.7543 H       1  UNL1        0.1610
     16 C          -4.4598    4.3795   23.8862 C.3     1  UNL1        0.0900
     17 C          -3.1795    3.7186   24.3033 C.1     1  UNL1       -0.0896
     18 C          -1.8991    3.0578   24.7204 C.1     1  UNL1       -0.0833
     19 O           3.6010    1.1820   21.0487 O.3     1  UNL1       -0.4504
     20 C           3.8155   -0.2296   20.5889 C.ar    1  UNL1        0.1791
     21 C           4.5646   -1.1958   21.4580 C.ar    1  UNL1        0.0406
     22 C           4.7792   -2.6074   20.9982 C.ar    1  UNL1        0.0072
     23 C           4.2446   -3.0528   19.6694 C.ar    1  UNL1        0.0746
     24 C           3.4954   -2.0866   18.8003 C.ar    1  UNL1        0.0441
     25 C           3.2809   -0.6751   19.2601 C.ar    1  UNL1        0.1785
     26 C           4.4591   -4.4644   19.2097 C.3     1  UNL1        0.4187
     27 F           4.6737   -5.8760   18.7499 F       1  UNL1       -0.1659
     28 F           3.0318   -4.5328   18.7536 F       1  UNL1       -0.1659
     29 F           5.8864   -4.3960   19.6658 F       1  UNL1       -0.1659
     30 O           2.5318    0.2911   18.3910 O.3     1  UNL1       -0.4205
     31 C           1.1100    0.6436   18.7139 C.3     1  UNL1        0.5087
     32 F           0.4081   -0.0377   19.8511 F       1  UNL1       -0.1550
     33 F           0.3901    1.6773   17.8996 F       1  UNL1       -0.1550
@<TRIPOS>BOND
     1    16    17    1
     2    17    18    3
     3     7    18    1
     4     7     1    1
     5     1     2   ar
     6     2     3   ar
     7     3     4   ar
     8     4    19    1
     9    19    20    1
    10    20    21   ar
    11    21    22   ar
    12    22    23   ar
    13    23    26    1
    14    26    27    1
    15    26    28    1
    16    26    29    1
    17    23    24   ar
    18    24    25   ar
    19    25    30    1
    20    30    31    1
    21    31    32    1
    22    31    33    1
    23     4     5   ar
    24     5     6   ar
    25     7     8    1
    26     8     9    1
    27     9    10    1
    28    10    11    2
    29    10    12   am
    30    12    13   am
    31    13    14    2
    32     6     1   ar
    33    13     8    1
    34    25    20   ar
    35    12    15    1
@<TRIPOS>MOLECULE
*****
 33 35 0 0 0
SMALL
GASTEIGER

@<TRIPOS>ATOM
      1 C           2.3112   -0.1825   21.1188 C.ar    1  UNL1       -0.0063
      2 C           0.9934   -0.5153   20.4844 C.ar    1  UNL1       -0.0001
      3 C           0.0066    0.5751   20.1890 C.ar    1  UNL1        0.0372
      4 C           0.3376    1.9982   20.5282 C.ar    1  UNL1        0.1454
      5 C           1.6554    2.3310   21.1627 C.ar    1  UNL1        0.0372
      6 C           2.6422    1.2407   21.4580 C.ar    1  UNL1       -0.0001
      7 C           3.2981   -1.2729   21.4142 C.3     1  UNL1        0.1354
      8 C           3.7390   -2.2015   20.3218 C.3     1  UNL1        0.2618
      9 O           3.9689   -3.6774   20.4586 O.3     1  UNL1       -0.4273
     10 C           4.3993   -4.2054   19.1221 C.2     1  UNL1        0.4079
     11 O           4.7347   -5.6324   18.8043 O.2     1  UNL1       -0.2260
     12 N           4.4354   -3.0557   18.1594 N.am    1  UNL1       -0.2180
     13 C           4.0273   -1.8173   18.9008 C.2     1  UNL1        0.2724
     14 O           3.9254   -0.4369   18.3227 O.2     1  UNL1       -0.2707
     15 H           4.6834   -3.1052   17.2079 H       1  UNL1        0.1610
     16 C           4.9362   -1.7580   25.5773 C.3     1  UNL1        0.0900
     17 C           4.3902   -1.5963   24.1896 C.1     1  UNL1       -0.0896
     18 C           3.8441   -1.4346   22.8019 C.1     1  UNL1       -0.0833
     19 O          -0.6493    3.0886   20.2329 O.3     1  UNL1       -0.4504
     20 C          -1.8087    3.3210   21.1557 C.ar    1  UNL1        0.1791
     21 C          -1.5918    3.3511   22.6397 C.ar    1  UNL1        0.0406
     22 C          -2.7513    3.5835   23.5626 C.ar    1  UNL1        0.0072
     23 C          -4.1276    3.7858   23.0015 C.ar    1  UNL1        0.0746
     24 C          -4.3445    3.7557   21.5176 C.ar    1  UNL1        0.0441
     25 C          -3.1851    3.5233   20.5947 C.ar    1  UNL1        0.1785
     26 C          -5.2870    4.0182   23.9244 C.3     1  UNL1        0.4187
     27 F          -6.4465    4.2506   24.8473 F       1  UNL1       -0.1659
     28 F          -4.3456    4.5115   24.9828 F       1  UNL1       -0.1659
     29 F          -6.2284    3.5248   22.8659 F       1  UNL1       -0.1659
     30 O          -3.4020    3.4932   19.1108 O.3     1  UNL1       -0.4205
     31 C          -4.7644    3.7674   18.5462 C.3     1  UNL1        0.5087
     32 F          -5.8907    2.8118   18.8074 F       1  UNL1       -0.1550
     33 F          -5.0004    4.9972   17.7205 F       1  UNL1       -0.1550
@<TRIPOS>BOND
     1    16    17    1
     2    17    18    3
     3     7    18    1
     4     7     1    1
     5     1     2   ar
     6     2     3   ar
     7     3     4   ar
     8     4    19    1
     9    19    20    1
    10    20    21   ar
    11    21    22   ar
    12    22    23   ar
    13    23    26    1
    14    26    27    1
    15    26    28    1
    16    26    29    1
    17    23    24   ar
    18    24    25   ar
    19    25    30    1
    20    30    31    1
    21    31    32    1
    22    31    33    1
    23     4     5   ar
    24     5     6   ar
    25     7     8    1
    26     8     9    1
    27     9    10    1
    28    10    11    2
    29    10    12   am
    30    12    13   am
    31    13    14    2
    32     6     1   ar
    33    13     8    1
    34    25    20   ar
    35    12    15    1
@<TRIPOS>MOLECULE
*****
 33 35 0 0 0
SMALL
GASTEIGER

@<TRIPOS>ATOM
      1 C           4.8262   -1.8041   22.5926 C.ar    1  UNL1       -0.0063
      2 C           4.3047   -2.0499   23.9773 C.ar    1  UNL1       -0.0001
      3 C           5.2315   -1.9656   25.1537 C.ar    1  UNL1        0.0372
      4 C           6.6798   -1.6353   24.9453 C.ar    1  UNL1        0.1454
      5 C           7.2013   -1.3895   23.5606 C.ar    1  UNL1        0.0372
      6 C           6.2744   -1.4738   22.3842 C.ar    1  UNL1       -0.0001
      7 C           3.8993   -1.8884   21.4161 C.3     1  UNL1        0.1354
      8 C           4.1467   -2.9012   20.3377 C.3     1  UNL1        0.2618
      9 O           4.4300   -4.3594   20.5457 O.3     1  UNL1       -0.4273
     10 C           4.6125   -4.9930   19.1984 C.2     1  UNL1        0.4079
     11 O           4.9128   -6.4393   18.9376 O.2     1  UNL1       -0.2260
     12 N           4.4420   -3.9264   18.1576 N.am    1  UNL1       -0.2180
     13 C           4.1541   -2.6335   18.8617 C.2     1  UNL1        0.2724
     14 O           3.9155   -1.3061   18.2052 O.2     1  UNL1       -0.2707
     15 H           4.5076   -4.0526   17.1835 H       1  UNL1        0.1610
     16 C           0.3771    0.8968   21.1224 C.3     1  UNL1        0.0900
     17 C           1.5512   -0.0316   21.2203 C.1     1  UNL1       -0.0896
     18 C           2.7253   -0.9600   21.3182 C.1     1  UNL1       -0.0833
     19 O           7.6066   -1.5510   26.1218 O.3     1  UNL1       -0.4504
     20 C           7.4382   -2.4913   27.2781 C.ar    1  UNL1        0.1791
     21 C           6.8930   -1.9873   28.5815 C.ar    1  UNL1        0.0406
     22 C           6.7246   -2.9278   29.7379 C.ar    1  UNL1        0.0072
     23 C           7.1014   -4.3722   29.5910 C.ar    1  UNL1        0.0746
     24 C           7.6466   -4.8762   28.2876 C.ar    1  UNL1        0.0441
     25 C           7.8150   -3.9358   27.1313 C.ar    1  UNL1        0.1785
     26 C           6.9330   -5.3125   30.7474 C.3     1  UNL1        0.4187
     27 F           6.7646   -6.2529   31.9039 F       1  UNL1       -0.1659
     28 F           7.4202   -6.4471   29.8957 F       1  UNL1       -0.1659
     29 F           6.4457   -4.1780   31.5990 F       1  UNL1       -0.1659
     30 O           8.3603   -4.4399   25.8279 O.3     1  UNL1       -0.4205
     31 C           7.5201   -5.3247   24.9555 C.3     1  UNL1        0.5087
     32 F           6.7894   -4.7443   23.7811 F       1  UNL1       -0.1550
     33 F           7.4108   -6.7899   25.2574 F       1  UNL1       -0.1550
@<TRIPOS>BOND
     1    16    17    1
     2    17    18    3
     3     7    18    1
     4     7     1    1
     5     1     2   ar
     6     2     3   ar
     7     3     4   ar
     8     4    19    1
     9    19    20    1
    10    20    21   ar
    11    21    22   ar
    12    22    23   ar
    13    23    26    1
    14    26    27    1
    15    26    28    1
    16    26    29    1
    17    23    24   ar
    18    24    25   ar
    19    25    30    1
    20    30    31    1
    21    31    32    1
    22    31    33    1
    23     4     5   ar
    24     5     6   ar
    25     7     8    1
    26     8     9    1
    27     9    10    1
    28    10    11    2
    29    10    12   am
    30    12    13   am
    31    13    14    2
    32     6     1   ar
    33    13     8    1
    34    25    20   ar
    35    12    15    1
@<TRIPOS>MOLECULE
*****
 33 35 0 0 0
SMALL
GASTEIGER

@<TRIPOS>ATOM
      1 C           0.5177    1.7980   19.4247 C.ar    1  UNL1       -0.0063
      2 C           1.8003    1.8365   18.6479 C.ar    1  UNL1       -0.0001
      3 C           2.7253    0.6559   18.6685 C.ar    1  UNL1        0.0372
      4 C           2.3677   -0.5632   19.4659 C.ar    1  UNL1        0.1454
      5 C           1.0851   -0.6017   20.2427 C.ar    1  UNL1        0.0372
      6 C           0.1601    0.5789   20.2221 C.ar    1  UNL1       -0.0001
      7 C          -0.4074    2.9787   19.4041 C.3     1  UNL1        0.1354
      8 C          -1.3869    3.1835   20.5215 C.3     1  UNL1        0.2618
      9 O          -2.8505    2.8574   20.4818 O.3     1  UNL1       -0.4273
     10 C          -3.4430    3.2228   21.8105 C.2     1  UNL1        0.4079
     11 O          -4.8805    3.0641   22.2085 O.2     1  UNL1       -0.2260
     12 N          -2.3456    3.7747   22.6714 N.am    1  UNL1       -0.2180
     13 C          -1.0749    3.7504   21.8747 C.2     1  UNL1        0.2724
     14 O           0.2715    4.2120   22.3482 O.2     1  UNL1       -0.2707
     15 H          -2.4423    4.0964   23.5968 H       1  UNL1        0.1610
     16 C          -0.2439    5.9060   15.9903 C.3     1  UNL1        0.0900
     17 C          -0.2984    4.9302   17.1282 C.1     1  UNL1       -0.0896
     18 C          -0.3528    3.9544   18.2662 C.1     1  UNL1       -0.0833
     19 O           3.2927   -1.7439   19.4864 O.3     1  UNL1       -0.4504
     20 C           3.9558   -2.1549   20.7676 C.ar    1  UNL1        0.1791
     21 C           3.5882   -1.4762   22.0537 C.ar    1  UNL1        0.0406
     22 C           4.2513   -1.8873   23.3349 C.ar    1  UNL1        0.0072
     23 C           5.2821   -2.9770   23.3299 C.ar    1  UNL1        0.0746
     24 C           5.6497   -3.6557   22.0437 C.ar    1  UNL1        0.0441
     25 C           4.9867   -3.2447   20.7626 C.ar    1  UNL1        0.1785
     26 C           5.9452   -3.3880   24.6110 C.3     1  UNL1        0.4187
     27 F           6.6083   -3.7990   25.8922 F       1  UNL1       -0.1659
     28 F           6.5114   -4.5984   23.9296 F       1  UNL1       -0.1659
     29 F           5.3789   -2.1777   25.2924 F       1  UNL1       -0.1659
     30 O           5.3543   -3.9234   19.4764 O.3     1  UNL1       -0.4205
     31 C           4.4577   -4.9804   18.9032 C.3     1  UNL1        0.5087
     32 F           5.0043   -6.3439   18.5999 F       1  UNL1       -0.1550
     33 F           3.0144   -4.6739   18.6333 F       1  UNL1       -0.1550
@<TRIPOS>BOND
     1    16    17    1
     2    17    18    3
     3     7    18    1
     4     7     1    1
     5     1     2   ar
     6     2     3   ar
     7     3     4   ar
     8     4    19    1
     9    19    20    1
    10    20    21   ar
    11    21    22   ar
    12    22    23   ar
    13    23    26    1
    14    26    27    1
    15    26    28    1
    16    26    29    1
    17    23    24   ar
    18    24    25   ar
    19    25    30    1
    20    30    31    1
    21    31    32    1
    22    31    33    1
    23     4     5   ar
    24     5     6   ar
    25     7     8    1
    26     8     9    1
    27     9    10    1
    28    10    11    2
    29    10    12   am
    30    12    13   am
    31    13    14    2
    32     6     1   ar
    33    13     8    1
    34    25    20   ar
    35    12    15    1
@<TRIPOS>MOLECULE
*****
 33 35 0 0 0
SMALL
GASTEIGER

@<TRIPOS>ATOM
      1 C           1.0862    1.7557   25.6024 C.ar    1  UNL1       -0.0063
      2 C           0.4721    1.1391   24.3807 C.ar    1  UNL1       -0.0001
      3 C           1.3013    0.9313   23.1481 C.ar    1  UNL1        0.0372
      4 C           2.7445    1.3401   23.1373 C.ar    1  UNL1        0.1454
      5 C           3.3585    1.9566   24.3591 C.ar    1  UNL1        0.0372
      6 C           2.5294    2.1644   25.5916 C.ar    1  UNL1       -0.0001
      7 C           0.2571    1.9635   26.8351 C.3     1  UNL1        0.1354
      8 C           0.7836    1.5380   28.1737 C.3     1  UNL1        0.2618
      9 O           1.2421    0.1583   28.5428 O.3     1  UNL1       -0.4273
     10 C           1.6859    0.1850   29.9753 C.2     1  UNL1        0.4079
     11 O           2.2201   -0.9800   30.7547 O.2     1  UNL1       -0.2260
     12 N           1.5017    1.5812   30.4917 N.am    1  UNL1       -0.2180
     13 C           0.9440    2.4174   29.3782 C.2     1  UNL1        0.2724
     14 O           0.6061    3.8768   29.4556 O.2     1  UNL1       -0.2707
     15 H           1.7102    1.8939   31.4016 H       1  UNL1        0.1610
     16 C          -3.8097    3.8635   26.5174 C.3     1  UNL1        0.0900
     17 C          -2.4542    3.2302   26.6233 C.1     1  UNL1       -0.0896
     18 C          -1.0985    2.5968   26.7292 C.1     1  UNL1       -0.0833
     19 O           3.5736    1.1322   21.9046 O.3     1  UNL1       -0.4504
     20 C           3.7230   -0.2428   21.3243 C.ar    1  UNL1        0.1791
     21 C           3.0892   -0.5732   20.0055 C.ar    1  UNL1        0.0406
     22 C           3.2387   -1.9484   19.4251 C.ar    1  UNL1        0.0072
     23 C           4.0218   -2.9930   20.1636 C.ar    1  UNL1        0.0746
     24 C           4.6556   -2.6626   21.4823 C.ar    1  UNL1        0.0441
     25 C           4.5062   -1.2876   22.0627 C.ar    1  UNL1        0.1785
     26 C           4.1712   -4.3681   19.5832 C.3     1  UNL1        0.4187
     27 F           4.3206   -5.7432   19.0028 F       1  UNL1       -0.1659
     28 F           2.7633   -4.3043   19.0698 F       1  UNL1       -0.1659
     29 F           5.5791   -4.4318   20.0966 F       1  UNL1       -0.1659
     30 O           5.1400   -0.9572   23.3815 O.3     1  UNL1       -0.4205
     31 C           4.6693   -1.6394   24.6316 C.3     1  UNL1        0.5087
     32 F           5.5129   -2.7038   25.2683 F       1  UNL1       -0.1550
     33 F           3.3550   -1.2572   25.2452 F       1  UNL1       -0.1550
@<TRIPOS>BOND
     1    16    17    1
     2    17    18    3
     3     7    18    1
     4     7     1    1
     5     1     2   ar
     6     2     3   ar
     7     3     4   ar
     8     4    19    1
     9    19    20    1
    10    20    21   ar
    11    21    22   ar
    12    22    23   ar
    13    23    26    1
    14    26    27    1
    15    26    28    1
    16    26    29    1
    17    23    24   ar
    18    24    25   ar
    19    25    30    1
    20    30    31    1
    21    31    32    1
    22    31    33    1
    23     4     5   ar
    24     5     6   ar
    25     7     8    1
    26     8     9    1
    27     9    10    1
    28    10    11    2
    29    10    12   am
    30    12    13   am
    31    13    14    2
    32     6     1   ar
    33    13     8    1
    34    25    20   ar
    35    12    15    1
