@<TRIPOS>MOLECULE
*****
 38 41 0 0 0
SMALL
GASTEIGER

@<TRIPOS>ATOM
      1 C           0.7822    1.4441   29.8344 C.ar    1  UNL1        0.0078
      2 C          -0.2763    0.3945   29.6679 C.ar    1  UNL1        0.0006
      3 C          -1.0344    0.2920   28.3776 C.ar    1  UNL1        0.0013
      4 C          -0.7339    1.2391   27.2539 C.ar    1  UNL1        0.0143
      5 C           0.3247    2.2887   27.4205 C.ar    1  UNL1        0.0446
      6 C           1.0827    2.3912   28.7107 C.ar    1  UNL1        0.0148
      7 C           3.1821    1.1748   32.8731 C.ar    1  UNL1        0.1527
      8 C           2.2318    2.2341   33.3474 C.ar    1  UNL1        0.0779
      9 S           1.2171    2.4638   32.2668 S.2     1  UNL1       -0.0821
     10 C           1.5404    1.5466   31.1247 C.ar    1  UNL1        0.0388
     11 C           2.7548    0.7500   31.4995 C.ar    1  UNL1        0.0750
     12 BR          3.4244   -0.2891   30.6498 Br      1  UNL1       -0.0453
     13 C           2.2865    2.9396   34.6699 C.2     1  UNL1        0.0818
     14 O           2.3096    4.4386   34.7199 O.co2   1  UNL1       -0.5440
     15 O           2.3180    2.1461   35.9425 O.co2   1  UNL1       -0.5440
     16 O           4.3540    0.6351   33.6382 O.3     1  UNL1       -0.4683
     17 C           4.2237   -0.6489   34.4026 C.3     1  UNL1        0.2469
     18 O           3.6412   -3.1107   33.8110 O.co2   1  UNL1       -0.5454
     19 C           4.5892   -1.9498   33.7514 C.2     1  UNL1        0.0940
     20 O           5.9027   -2.0898   33.0407 O.co2   1  UNL1       -0.5454
     21 N           0.6251    3.2359   26.2968 N.pl3   1  UNL1       -0.3339
     22 H           0.7401    4.1963   26.4800 H       1  UNL1        0.1468
     23 C           0.7504    2.7196   24.8940 C.3     1  UNL1        0.0719
     24 C          -0.3048    3.0440   23.8784 C.3     1  UNL1        0.0386
     25 C          -0.1795    2.5278   22.4756 C.3     1  UNL1        0.0971
     26 N           1.0009    1.6872   22.0884 N.3     1  UNL1       -0.1590
     27 C           2.0561    1.3628   23.1039 C.3     1  UNL1        0.0971
     28 C           1.9309    1.8790   24.5068 C.3     1  UNL1        0.0386
     29 S           1.1262    1.1710   20.6856 S.O2    1  UNL1        0.0481
     30 O          -0.1574    0.4125   20.8501 O.2     1  UNL1       -0.1570
     31 O           2.4097    1.9295   20.5210 O.2     1  UNL1       -0.1570
     32 C           1.2513    0.6548   19.2828 C.3     1  UNL1        0.1954
     33 C           2.3550   -0.2977   18.9298 C.ar    1  UNL1        0.0029
     34 C           2.6553   -1.4628   19.8255 C.ar    1  UNL1       -0.0025
     35 C           3.7590   -2.4153   19.4726 C.ar    1  UNL1       -0.0003
     36 C           4.5624   -2.2027   18.2239 C.ar    1  UNL1       -0.0000
     37 C           4.2621   -1.0376   17.3281 C.ar    1  UNL1       -0.0003
     38 C           3.1584   -0.0851   17.6811 C.ar    1  UNL1       -0.0025
@<TRIPOS>UNITY_ATOM_ATTR
14 1
charge -1
18 1
charge -1
@<TRIPOS>BOND
     1    18    19   ar
     2    19    20   ar
     3    19    17    1
     4    17    16    1
     5    16     7    1
     6     7     8   ar
     7     8    13    1
     8    13    14   ar
     9    13    15   ar
    10     8     9   ar
    11     9    10   ar
    12    10     1    1
    13     1     2   ar
    14     2     3   ar
    15     3     4   ar
    16     4     5   ar
    17     5    21    1
    18    21    23    1
    19    23    24    1
    20    24    25    1
    21    25    26    1
    22    26    29    1
    23    29    30    2
    24    29    31    2
    25    29    32    1
    26    32    33    1
    27    33    34   ar
    28    34    35   ar
    29    35    36   ar
    30    36    37   ar
    31    37    38   ar
    32    26    27    1
    33    27    28    1
    34     5     6   ar
    35    10    11   ar
    36    11    12    1
    37    11     7   ar
    38     6     1   ar
    39    28    23    1
    40    38    33   ar
    41    21    22    1
@<TRIPOS>MOLECULE
*****
 38 41 0 0 0
SMALL
GASTEIGER

@<TRIPOS>ATOM
      1 C           7.3793   -5.3218   26.9285 C.ar    1  UNL1        0.0078
      2 C           7.1378   -6.8016   26.9690 C.ar    1  UNL1        0.0006
      3 C           7.5008   -7.6533   25.7888 C.ar    1  UNL1        0.0013
      4 C           8.1055   -7.0252   24.5682 C.ar    1  UNL1        0.0143
      5 C           8.3470   -5.5453   24.5278 C.ar    1  UNL1        0.0446
      6 C           7.9839   -4.6936   25.7079 C.ar    1  UNL1        0.0148
      7 C           6.2327   -2.6138   29.4618 C.ar    1  UNL1        0.1527
      8 C           6.6824   -3.7049   30.3877 C.ar    1  UNL1        0.0779
      9 S           7.1667   -4.8521   29.5514 S.2     1  UNL1       -0.0821
     10 C           7.0162   -4.4700   28.1087 C.ar    1  UNL1        0.0388
     11 C           6.4390   -3.0867   28.0533 C.ar    1  UNL1        0.0750
     12 BR          6.1234   -2.3121   26.8081 Br      1  UNL1       -0.0453
     13 C           6.6531   -3.6572   31.8866 C.2     1  UNL1        0.0818
     14 O           6.2490   -4.8722   32.6679 O.co2   1  UNL1       -0.5440
     15 O           7.0278   -2.3944   32.6042 O.co2   1  UNL1       -0.5440
     16 O           5.6746   -1.2834   29.8724 O.3     1  UNL1       -0.4683
     17 C           4.2055   -1.0122   29.7370 C.3     1  UNL1        0.2469
     18 O           3.6943   -1.6957   32.1908 O.co2   1  UNL1       -0.5454
     19 C           3.3458   -0.9095   30.9619 C.2     1  UNL1        0.0940
     20 O           2.1376   -0.0205   30.9578 O.co2   1  UNL1       -0.5454
     21 N           8.9517   -4.9172   23.3072 N.pl3   1  UNL1       -0.3339
     22 H           9.9251   -4.9552   23.1649 H       1  UNL1        0.1468
     23 C           8.0732   -4.2312   22.3034 C.3     1  UNL1        0.0719
     24 C           8.6711   -3.6503   21.0563 C.3     1  UNL1        0.0386
     25 C           7.7927   -2.9643   20.0525 C.3     1  UNL1        0.0971
     26 N           6.3163   -2.8592   20.2957 N.3     1  UNL1       -0.1590
     27 C           5.7183   -3.4400   21.5426 C.3     1  UNL1        0.0971
     28 C           6.5968   -4.1261   22.5465 C.3     1  UNL1        0.0386
     29 S           5.4378   -2.1731   19.2918 S.O2    1  UNL1        0.0481
     30 O           5.8959   -0.8393   19.8025 O.2     1  UNL1       -0.1570
     31 O           4.9797   -3.5070   18.7810 O.2     1  UNL1       -0.1570
     32 C           4.5594   -1.4871   18.2880 C.3     1  UNL1        0.1954
     33 C           3.2804   -0.8393   18.7291 C.ar    1  UNL1        0.0029
     34 C           2.7332    0.3334   17.9708 C.ar    1  UNL1       -0.0025
     35 C           1.4542    0.9812   18.4120 C.ar    1  UNL1       -0.0003
     36 C           0.7224    0.4561   19.6114 C.ar    1  UNL1       -0.0000
     37 C           1.2697   -0.7166   20.3698 C.ar    1  UNL1       -0.0003
     38 C           2.5486   -1.3644   19.9286 C.ar    1  UNL1       -0.0025
@<TRIPOS>UNITY_ATOM_ATTR
14 1
charge -1
18 1
charge -1
@<TRIPOS>BOND
     1    18    19   ar
     2    19    20   ar
     3    19    17    1
     4    17    16    1
     5    16     7    1
     6     7     8   ar
     7     8    13    1
     8    13    14   ar
     9    13    15   ar
    10     8     9   ar
    11     9    10   ar
    12    10     1    1
    13     1     2   ar
    14     2     3   ar
    15     3     4   ar
    16     4     5   ar
    17     5    21    1
    18    21    23    1
    19    23    24    1
    20    24    25    1
    21    25    26    1
    22    26    29    1
    23    29    30    2
    24    29    31    2
    25    29    32    1
    26    32    33    1
    27    33    34   ar
    28    34    35   ar
    29    35    36   ar
    30    36    37   ar
    31    37    38   ar
    32    26    27    1
    33    27    28    1
    34     5     6   ar
    35    10    11   ar
    36    11    12    1
    37    11     7   ar
    38     6     1   ar
    39    28    23    1
    40    38    33   ar
    41    21    22    1
@<TRIPOS>MOLECULE
*****
 38 41 0 0 0
SMALL
GASTEIGER

@<TRIPOS>ATOM
      1 C           4.4016   -2.8386   21.9536 C.ar    1  UNL1        0.0078
      2 C           4.3202   -4.2592   21.4789 C.ar    1  UNL1        0.0006
      3 C           3.9719   -4.5537   20.0500 C.ar    1  UNL1        0.0013
      4 C           3.7051   -3.4276   19.0957 C.ar    1  UNL1        0.0143
      5 C           3.7866   -2.0070   19.5703 C.ar    1  UNL1        0.0446
      6 C           4.1348   -1.7125   20.9992 C.ar    1  UNL1        0.0148
      7 C           5.8816   -2.5432   25.5296 C.ar    1  UNL1        0.1527
      8 C           4.6897   -1.6384   25.6336 C.ar    1  UNL1        0.0779
      9 S           3.9903   -1.6390   24.3066 S.2     1  UNL1       -0.0821
     10 C           4.7499   -2.5441   23.3826 C.ar    1  UNL1        0.0388
     11 C           5.9188   -3.1029   24.1384 C.ar    1  UNL1        0.0750
     12 BR          6.9448   -4.0544   23.5980 Br      1  UNL1       -0.0453
     13 C           4.2708   -0.8683   26.8507 C.2     1  UNL1        0.0818
     14 O           3.2495   -1.4429   27.7871 O.co2   1  UNL1       -0.5440
     15 O           4.8733    0.4764   27.1315 O.co2   1  UNL1       -0.5440
     16 O           6.8640   -2.8367   26.6246 O.3     1  UNL1       -0.4683
     17 C           6.4012   -3.4942   27.8909 C.3     1  UNL1        0.2469
     18 O           6.5136   -5.6199   29.3803 O.co2   1  UNL1       -0.5454
     19 C           6.4500   -4.9877   28.0216 C.2     1  UNL1        0.0940
     20 O           6.4351   -5.8490   26.7936 O.co2   1  UNL1       -0.5454
     21 N           3.5198   -0.8809   18.6159 N.pl3   1  UNL1       -0.3339
     22 H           4.0447   -0.8037   17.7867 H       1  UNL1        0.1468
     23 C           2.4532    0.1274   18.9251 C.3     1  UNL1        0.0719
     24 C           1.2744   -0.2619   19.7672 C.3     1  UNL1        0.0386
     25 C           0.2078    0.7464   20.0763 C.3     1  UNL1        0.0971
     26 N           0.3199    2.1441   19.5434 N.3     1  UNL1       -0.1590
     27 C           1.4986    2.5334   18.7014 C.3     1  UNL1        0.0971
     28 C           2.5653    1.5250   18.3922 C.3     1  UNL1        0.0386
     29 S          -0.7468    3.1524   19.8526 S.O2    1  UNL1        0.0481
     30 O          -1.3686    2.1959   20.8264 O.2     1  UNL1       -0.1570
     31 O          -0.1249    4.1089   18.8788 O.2     1  UNL1       -0.1570
     32 C          -1.8134    4.1607   20.1618 C.3     1  UNL1        0.1954
     33 C          -3.2063    3.9624   19.6417 C.ar    1  UNL1        0.0029
     34 C          -3.4638    3.9733   18.1641 C.ar    1  UNL1       -0.0025
     35 C          -4.8567    3.7750   17.6440 C.ar    1  UNL1       -0.0003
     36 C          -5.9921    3.5658   18.6016 C.ar    1  UNL1       -0.0000
     37 C          -5.7346    3.5548   20.0792 C.ar    1  UNL1       -0.0003
     38 C          -4.3417    3.7531   20.5993 C.ar    1  UNL1       -0.0025
@<TRIPOS>UNITY_ATOM_ATTR
14 1
charge -1
18 1
charge -1
@<TRIPOS>BOND
     1    18    19   ar
     2    19    20   ar
     3    19    17    1
     4    17    16    1
     5    16     7    1
     6     7     8   ar
     7     8    13    1
     8    13    14   ar
     9    13    15   ar
    10     8     9   ar
    11     9    10   ar
    12    10     1    1
    13     1     2   ar
    14     2     3   ar
    15     3     4   ar
    16     4     5   ar
    17     5    21    1
    18    21    23    1
    19    23    24    1
    20    24    25    1
    21    25    26    1
    22    26    29    1
    23    29    30    2
    24    29    31    2
    25    29    32    1
    26    32    33    1
    27    33    34   ar
    28    34    35   ar
    29    35    36   ar
    30    36    37   ar
    31    37    38   ar
    32    26    27    1
    33    27    28    1
    34     5     6   ar
    35    10    11   ar
    36    11    12    1
    37    11     7   ar
    38     6     1   ar
    39    28    23    1
    40    38    33   ar
    41    21    22    1
@<TRIPOS>MOLECULE
*****
 38 41 0 0 0
SMALL
GASTEIGER

@<TRIPOS>ATOM
      1 C           0.0764    2.3320   20.4154 C.ar    1  UNL1        0.0078
      2 C           0.8926    3.1652   19.4723 C.ar    1  UNL1        0.0006
      3 C           1.9336    2.5175   18.6082 C.ar    1  UNL1        0.0013
      4 C           2.1586    1.0366   18.6874 C.ar    1  UNL1        0.0143
      5 C           1.3424    0.2034   19.6305 C.ar    1  UNL1        0.0446
      6 C           0.3014    0.8511   20.4945 C.ar    1  UNL1        0.0148
      7 C          -2.0778    4.0048   23.1771 C.ar    1  UNL1        0.1527
      8 C          -3.0560    3.9478   22.0412 C.ar    1  UNL1        0.0779
      9 S          -2.3680    3.3142   20.8685 S.2     1  UNL1       -0.0821
     10 C          -0.9647    2.9797   21.2795 C.ar    1  UNL1        0.0388
     11 C          -0.7854    3.4065   22.7063 C.ar    1  UNL1        0.0750
     12 BR          0.4665    3.2606   23.5195 Br      1  UNL1       -0.0453
     13 C          -4.4731    4.4382   22.0726 C.2     1  UNL1        0.0818
     14 O          -4.7953    5.7607   22.7030 O.co2   1  UNL1       -0.5440
     15 O          -5.5681    3.6062   21.4737 O.co2   1  UNL1       -0.5440
     16 O          -2.3452    4.5623   24.5437 O.3     1  UNL1       -0.4683
     17 C          -2.9400    3.6877   25.6073 C.3     1  UNL1        0.2469
     18 O          -4.5423    4.6075   27.4338 O.co2   1  UNL1       -0.5454
     19 C          -4.3315    3.9498   26.1024 C.2     1  UNL1        0.0940
     20 O          -5.5121    3.5541   25.2659 O.co2   1  UNL1       -0.5454
     21 N           1.5674   -1.2776   19.7096 N.pl3   1  UNL1       -0.3339
     22 H           0.8507   -1.8991   19.4464 H       1  UNL1        0.1468
     23 C           2.8843   -1.8115   20.1897 C.3     1  UNL1        0.0719
     24 C           3.5520   -2.9345   19.4526 C.3     1  UNL1        0.0386
     25 C           4.8689   -3.4684   19.9327 C.3     1  UNL1        0.0971
     26 N           5.5182   -2.8796   21.1500 N.3     1  UNL1       -0.1590
     27 C           4.8505   -1.7567   21.8871 C.3     1  UNL1        0.0971
     28 C           3.5336   -1.2227   21.4070 C.3     1  UNL1        0.0386
     29 S           6.8352   -3.4136   21.6301 S.O2    1  UNL1        0.0481
     30 O           6.9866   -2.2268   22.5347 O.2     1  UNL1       -0.1570
     31 O           6.6838   -4.6004   20.7254 O.2     1  UNL1       -0.1570
     32 C           8.1521   -3.9476   22.1102 C.3     1  UNL1        0.1954
     33 C           8.1900   -5.1173   23.0484 C.ar    1  UNL1        0.0029
     34 C           8.9491   -6.3554   22.6732 C.ar    1  UNL1       -0.0025
     35 C           8.9870   -7.5252   23.6115 C.ar    1  UNL1       -0.0003
     36 C           8.2658   -7.4568   24.9249 C.ar    1  UNL1       -0.0000
     37 C           7.5067   -6.2186   25.3001 C.ar    1  UNL1       -0.0003
     38 C           7.4688   -5.0489   24.3619 C.ar    1  UNL1       -0.0025
@<TRIPOS>UNITY_ATOM_ATTR
14 1
charge -1
18 1
charge -1
@<TRIPOS>BOND
     1    18    19   ar
     2    19    20   ar
     3    19    17    1
     4    17    16    1
     5    16     7    1
     6     7     8   ar
     7     8    13    1
     8    13    14   ar
     9    13    15   ar
    10     8     9   ar
    11     9    10   ar
    12    10     1    1
    13     1     2   ar
    14     2     3   ar
    15     3     4   ar
    16     4     5   ar
    17     5    21    1
    18    21    23    1
    19    23    24    1
    20    24    25    1
    21    25    26    1
    22    26    29    1
    23    29    30    2
    24    29    31    2
    25    29    32    1
    26    32    33    1
    27    33    34   ar
    28    34    35   ar
    29    35    36   ar
    30    36    37   ar
    31    37    38   ar
    32    26    27    1
    33    27    28    1
    34     5     6   ar
    35    10    11   ar
    36    11    12    1
    37    11     7   ar
    38     6     1   ar
    39    28    23    1
    40    38    33   ar
    41    21    22    1
@<TRIPOS>MOLECULE
*****
 38 41 0 0 0
SMALL
GASTEIGER

@<TRIPOS>ATOM
      1 C           2.4459    2.2861   18.6039 C.ar    1  UNL1        0.0078
      2 C           3.2198    3.5626   18.7502 C.ar    1  UNL1        0.0006
      3 C           2.5365    4.8818   18.5435 C.ar    1  UNL1        0.0013
      4 C           1.0792    4.9245   18.1905 C.ar    1  UNL1        0.0143
      5 C           0.3053    3.6480   18.0442 C.ar    1  UNL1        0.0446
      6 C           0.9886    2.3288   18.2509 C.ar    1  UNL1        0.0148
      7 C           3.5800   -1.3162   19.4997 C.ar    1  UNL1        0.1527
      8 C           4.7814   -0.8103   18.7575 C.ar    1  UNL1        0.0779
      9 S           4.5027    0.6007   18.3316 S.2     1  UNL1       -0.0821
     10 C           3.1292    0.9668   18.8106 C.ar    1  UNL1        0.0388
     11 C           2.5589   -0.2179   19.5325 C.ar    1  UNL1        0.0750
     12 BR          1.2053   -0.2915   20.1745 Br      1  UNL1       -0.0453
     13 C           6.0403   -1.5802   18.4885 C.2     1  UNL1        0.0818
     14 O           6.5617   -2.5460   19.5109 O.co2   1  UNL1       -0.5440
     15 O           6.7777   -1.3842   17.1971 O.co2   1  UNL1       -0.5440
     16 O           3.4267   -2.6809   20.1032 O.3     1  UNL1       -0.4683
     17 C           3.1668   -3.8661   19.2213 C.3     1  UNL1        0.2469
     18 O           3.0514   -6.1643   20.4274 O.co2   1  UNL1       -0.5454
     19 C           3.7832   -5.1939   19.5484 C.2     1  UNL1        0.0940
     20 O           5.1314   -5.5513   18.9965 O.co2   1  UNL1       -0.5454
     21 N          -1.1520    3.6906   17.6912 N.pl3   1  UNL1       -0.3339
     22 H          -1.4298    3.6929   16.7467 H       1  UNL1        0.1468
     23 C          -2.1859    3.7299   18.7772 C.3     1  UNL1        0.0719
     24 C          -3.6178    4.0221   18.4393 C.3     1  UNL1        0.0386
     25 C          -4.6518    4.0613   19.5253 C.3     1  UNL1        0.0971
     26 N          -4.2538    3.8083   20.9492 N.3     1  UNL1       -0.1590
     27 C          -2.8219    3.5160   21.2872 C.3     1  UNL1        0.0971
     28 C          -1.7879    3.4768   20.2011 C.3     1  UNL1        0.0386
     29 S          -5.2878    3.8475   22.0352 S.O2    1  UNL1        0.0481
     30 O          -4.9176    2.4509   22.4381 O.2     1  UNL1       -0.1570
     31 O          -5.6580    5.2441   21.6324 O.2     1  UNL1       -0.1570
     32 C          -6.3217    3.8867   23.1212 C.3     1  UNL1        0.1954
     33 C          -5.9681    4.4291   24.4743 C.ar    1  UNL1        0.0029
     34 C          -4.8486    3.8133   25.2600 C.ar    1  UNL1       -0.0025
     35 C          -4.4949    4.3557   26.6130 C.ar    1  UNL1       -0.0003
     36 C          -5.2609    5.5139   27.1804 C.ar    1  UNL1       -0.0000
     37 C          -6.3804    6.1297   26.3947 C.ar    1  UNL1       -0.0003
     38 C          -6.7340    5.5873   25.0416 C.ar    1  UNL1       -0.0025
@<TRIPOS>UNITY_ATOM_ATTR
14 1
charge -1
18 1
charge -1
@<TRIPOS>BOND
     1    18    19   ar
     2    19    20   ar
     3    19    17    1
     4    17    16    1
     5    16     7    1
     6     7     8   ar
     7     8    13    1
     8    13    14   ar
     9    13    15   ar
    10     8     9   ar
    11     9    10   ar
    12    10     1    1
    13     1     2   ar
    14     2     3   ar
    15     3     4   ar
    16     4     5   ar
    17     5    21    1
    18    21    23    1
    19    23    24    1
    20    24    25    1
    21    25    26    1
    22    26    29    1
    23    29    30    2
    24    29    31    2
    25    29    32    1
    26    32    33    1
    27    33    34   ar
    28    34    35   ar
    29    35    36   ar
    30    36    37   ar
    31    37    38   ar
    32    26    27    1
    33    27    28    1
    34     5     6   ar
    35    10    11   ar
    36    11    12    1
    37    11     7   ar
    38     6     1   ar
    39    28    23    1
    40    38    33   ar
    41    21    22    1
@<TRIPOS>MOLECULE
*****
 38 41 0 0 0
SMALL
GASTEIGER

@<TRIPOS>ATOM
      1 C           0.9216    1.3169   23.0890 C.ar    1  UNL1        0.0078
      2 C           0.5043    2.5018   22.2693 C.ar    1  UNL1        0.0006
      3 C          -0.3873    3.5500   22.8662 C.ar    1  UNL1        0.0013
      4 C          -0.8616    3.4133   24.2826 C.ar    1  UNL1        0.0143
      5 C          -0.4443    2.2284   25.1022 C.ar    1  UNL1        0.0446
      6 C           0.4473    1.1802   24.5054 C.ar    1  UNL1        0.0148
      7 C           2.7943   -1.3131   20.9345 C.ar    1  UNL1        0.1527
      8 C           3.5764   -1.3758   22.2130 C.ar    1  UNL1        0.0779
      9 S           2.9700   -0.3982   23.1757 S.2     1  UNL1       -0.0821
     10 C           1.8132    0.2686   22.4921 C.ar    1  UNL1        0.0388
     11 C           1.7047   -0.2968   21.1071 C.ar    1  UNL1        0.0750
     12 BR          0.6854    0.0867   20.0756 Br      1  UNL1       -0.0453
     13 C           4.7574   -2.2607   22.4817 C.2     1  UNL1        0.0818
     14 O           6.0688   -1.6578   22.8901 O.co2   1  UNL1       -0.5440
     15 O           4.6270   -3.7485   22.3420 O.co2   1  UNL1       -0.5440
     16 O           3.0560   -2.1244   19.7002 O.3     1  UNL1       -0.4683
     17 C           4.1483   -1.7205   18.7549 C.3     1  UNL1        0.2469
     18 O           3.8529   -1.0756   16.2557 O.co2   1  UNL1       -0.5454
     19 C           3.8848   -0.6839   17.7032 C.2     1  UNL1        0.0940
     20 O           3.6533    0.7442   18.0991 O.co2   1  UNL1       -0.5454
     21 N          -0.9186    2.0917   26.5187 N.pl3   1  UNL1       -0.3339
     22 H          -1.8559    2.2902   26.7453 H       1  UNL1        0.1468
     23 C           0.0351    1.6527   27.5899 C.3     1  UNL1        0.0719
     24 C          -0.0690    0.2719   28.1669 C.3     1  UNL1        0.0386
     25 C           0.8847   -0.1671   29.2381 C.3     1  UNL1        0.0971
     26 N           1.9426    0.7745   29.7325 N.3     1  UNL1       -0.1590
     27 C           2.0467    2.1551   29.1556 C.3     1  UNL1        0.0971
     28 C           1.0929    2.5943   28.0843 C.3     1  UNL1        0.0386
     29 S           2.8963    0.3353   30.8037 S.O2    1  UNL1        0.0481
     30 O           2.1681   -0.9711   30.9165 O.2     1  UNL1       -0.1570
     31 O           3.6246    1.6418   30.6910 O.2     1  UNL1       -0.1570
     32 C           3.8500   -0.1038   31.8750 C.3     1  UNL1        0.1954
     33 C           4.8118   -1.2239   31.6098 C.ar    1  UNL1        0.0029
     34 C           5.5350   -1.2966   30.2977 C.ar    1  UNL1       -0.0025
     35 C           6.4968   -2.4167   30.0324 C.ar    1  UNL1       -0.0003
     36 C           6.7354   -3.4641   31.0793 C.ar    1  UNL1       -0.0000
     37 C           6.0121   -3.3914   32.3914 C.ar    1  UNL1       -0.0003
     38 C           5.0504   -2.2713   32.6566 C.ar    1  UNL1       -0.0025
@<TRIPOS>UNITY_ATOM_ATTR
14 1
charge -1
18 1
charge -1
@<TRIPOS>BOND
     1    18    19   ar
     2    19    20   ar
     3    19    17    1
     4    17    16    1
     5    16     7    1
     6     7     8   ar
     7     8    13    1
     8    13    14   ar
     9    13    15   ar
    10     8     9   ar
    11     9    10   ar
    12    10     1    1
    13     1     2   ar
    14     2     3   ar
    15     3     4   ar
    16     4     5   ar
    17     5    21    1
    18    21    23    1
    19    23    24    1
    20    24    25    1
    21    25    26    1
    22    26    29    1
    23    29    30    2
    24    29    31    2
    25    29    32    1
    26    32    33    1
    27    33    34   ar
    28    34    35   ar
    29    35    36   ar
    30    36    37   ar
    31    37    38   ar
    32    26    27    1
    33    27    28    1
    34     5     6   ar
    35    10    11   ar
    36    11    12    1
    37    11     7   ar
    38     6     1   ar
    39    28    23    1
    40    38    33   ar
    41    21    22    1
@<TRIPOS>MOLECULE
*****
 38 41 0 0 0
SMALL
GASTEIGER

@<TRIPOS>ATOM
      1 C           7.4110   -4.7750   23.7313 C.ar    1  UNL1        0.0078
      2 C           8.2785   -5.9524   23.3980 C.ar    1  UNL1        0.0006
      3 C           8.3926   -7.0964   24.3614 C.ar    1  UNL1        0.0013
      4 C           7.6392   -7.0631   25.6580 C.ar    1  UNL1        0.0143
      5 C           6.7716   -5.8857   25.9912 C.ar    1  UNL1        0.0446
      6 C           6.6575   -4.7417   25.0279 C.ar    1  UNL1        0.0148
      7 C           6.3744   -1.9384   21.2930 C.ar    1  UNL1        0.1527
      8 C           7.8682   -1.8021   21.2779 C.ar    1  UNL1        0.0779
      9 S           8.4382   -2.8481   22.1895 S.2     1  UNL1       -0.0821
     10 C           7.2968   -3.6309   22.7679 C.ar    1  UNL1        0.0388
     11 C           6.0213   -3.0686   22.2139 C.ar    1  UNL1        0.0750
     12 BR          4.6360   -3.5518   22.5259 Br      1  UNL1       -0.0453
     13 C           8.6538   -0.7965   20.4897 C.2     1  UNL1        0.0818
     14 O           8.5638    0.6611   20.8324 O.co2   1  UNL1       -0.5440
     15 O           9.5295   -1.2483   19.3588 O.co2   1  UNL1       -0.5440
     16 O           5.4041   -1.0929   20.5225 O.3     1  UNL1       -0.4683
     17 C           4.9559   -1.5214   19.1567 C.3     1  UNL1        0.2469
     18 O           5.1765   -4.0521   18.6121 O.co2   1  UNL1       -0.5454
     19 C           5.6622   -2.6420   18.4528 C.2     1  UNL1        0.0940
     20 O           6.8541   -2.3523   17.5895 O.co2   1  UNL1       -0.5454
     21 N           6.0182   -5.8524   27.2879 N.pl3   1  UNL1       -0.3339
     22 H           5.2718   -6.4762   27.4396 H       1  UNL1        0.1468
     23 C           6.4019   -4.8686   28.3532 C.3     1  UNL1        0.0719
     24 C           6.2641   -3.3966   28.0996 C.3     1  UNL1        0.0386
     25 C           6.6478   -2.4129   29.1649 C.3     1  UNL1        0.0971
     26 N           7.1693   -2.9011   30.4839 N.3     1  UNL1       -0.1590
     27 C           7.3070   -4.3730   30.7376 C.3     1  UNL1        0.0971
     28 C           6.9233   -5.3568   29.6722 C.3     1  UNL1        0.0386
     29 S           7.5530   -1.9173   31.5493 S.O2    1  UNL1        0.0481
     30 O           7.9837   -3.0468   32.4372 O.2     1  UNL1       -0.1570
     31 O           7.1223   -0.7877   30.6613 O.2     1  UNL1       -0.1570
     32 C           7.9367   -0.9335   32.6146 C.3     1  UNL1        0.1954
     33 C           7.0358   -0.7157   33.7940 C.ar    1  UNL1        0.0029
     34 C           5.5702   -1.0154   33.6837 C.ar    1  UNL1       -0.0025
     35 C           4.6693   -0.7976   34.8630 C.ar    1  UNL1       -0.0003
     36 C           5.2339   -0.2801   36.1527 C.ar    1  UNL1       -0.0000
     37 C           6.6995    0.0196   36.2630 C.ar    1  UNL1       -0.0003
     38 C           7.6004   -0.1982   35.0836 C.ar    1  UNL1       -0.0025
@<TRIPOS>UNITY_ATOM_ATTR
14 1
charge -1
18 1
charge -1
@<TRIPOS>BOND
     1    18    19   ar
     2    19    20   ar
     3    19    17    1
     4    17    16    1
     5    16     7    1
     6     7     8   ar
     7     8    13    1
     8    13    14   ar
     9    13    15   ar
    10     8     9   ar
    11     9    10   ar
    12    10     1    1
    13     1     2   ar
    14     2     3   ar
    15     3     4   ar
    16     4     5   ar
    17     5    21    1
    18    21    23    1
    19    23    24    1
    20    24    25    1
    21    25    26    1
    22    26    29    1
    23    29    30    2
    24    29    31    2
    25    29    32    1
    26    32    33    1
    27    33    34   ar
    28    34    35   ar
    29    35    36   ar
    30    36    37   ar
    31    37    38   ar
    32    26    27    1
    33    27    28    1
    34     5     6   ar
    35    10    11   ar
    36    11    12    1
    37    11     7   ar
    38     6     1   ar
    39    28    23    1
    40    38    33   ar
    41    21    22    1
@<TRIPOS>MOLECULE
*****
 38 41 0 0 0
SMALL
GASTEIGER

@<TRIPOS>ATOM
      1 C          -0.1249    2.4254   20.6474 C.ar    1  UNL1        0.0078
      2 C           0.5551    3.2525   19.5969 C.ar    1  UNL1        0.0006
      3 C           1.4900    2.6033   18.6201 C.ar    1  UNL1        0.0013
      4 C           1.7450    1.1270   18.6936 C.ar    1  UNL1        0.0143
      5 C           1.0651    0.2998   19.7440 C.ar    1  UNL1        0.0446
      6 C           0.1301    0.9490   20.7209 C.ar    1  UNL1        0.0148
      7 C          -3.0015    4.1732   22.5802 C.ar    1  UNL1        0.1527
      8 C          -1.9958    3.9738   23.6752 C.ar    1  UNL1        0.0779
      9 S          -0.7958    3.2948   23.0844 S.2     1  UNL1       -0.0821
     10 C          -1.0599    3.0745   21.6243 C.ar    1  UNL1        0.0388
     11 C          -2.4230    3.6174   21.3127 C.ar    1  UNL1        0.0750
     12 BR         -3.0906    3.6064   19.9695 Br      1  UNL1       -0.0453
     13 C          -2.1611    4.3818   25.1091 C.2     1  UNL1        0.0818
     14 O          -1.1864    5.3350   25.7348 O.co2   1  UNL1       -0.5440
     15 O          -3.3010    3.8366   25.9174 O.co2   1  UNL1       -0.5440
     16 O          -4.3490    4.8156   22.7270 O.3     1  UNL1       -0.4683
     17 C          -5.5533    3.9725   23.0249 C.3     1  UNL1        0.2469
     18 O          -7.0068    4.7431   21.0141 O.co2   1  UNL1       -0.5454
     19 C          -6.8899    4.3464   22.4559 C.2     1  UNL1        0.0940
     20 O          -8.1096    4.3234   23.3287 O.co2   1  UNL1       -0.5454
     21 N           1.3200   -1.1765   19.8175 N.pl3   1  UNL1       -0.3339
     22 H           0.6067   -1.8117   19.5790 H       1  UNL1        0.1468
     23 C           2.6618   -1.6850   20.2544 C.3     1  UNL1        0.0719
     24 C           3.2163   -1.2867   21.5901 C.3     1  UNL1        0.0386
     25 C           4.5581   -1.7953   22.0270 C.3     1  UNL1        0.0971
     26 N           5.3455   -2.7021   21.1283 N.3     1  UNL1       -0.1590
     27 C           4.7911   -3.1004   19.7927 C.3     1  UNL1        0.0971
     28 C           3.4492   -2.5919   19.3557 C.3     1  UNL1        0.0386
     29 S           6.6874   -3.2106   21.5653 S.O2    1  UNL1        0.0481
     30 O           6.8815   -1.9801   22.4009 O.2     1  UNL1       -0.1570
     31 O           6.4932   -4.4411   20.7297 O.2     1  UNL1       -0.1570
     32 C           8.0292   -3.7191   22.0023 C.3     1  UNL1        0.1954
     33 C           8.1226   -4.9376   22.8721 C.ar    1  UNL1        0.0029
     34 C           7.4418   -4.9591   24.2084 C.ar    1  UNL1       -0.0025
     35 C           7.5352   -6.1776   25.0782 C.ar    1  UNL1       -0.0003
     36 C           8.3095   -7.3746   24.6116 C.ar    1  UNL1       -0.0000
     37 C           8.9903   -7.3530   23.2752 C.ar    1  UNL1       -0.0003
     38 C           8.8968   -6.1345   22.4054 C.ar    1  UNL1       -0.0025
@<TRIPOS>UNITY_ATOM_ATTR
14 1
charge -1
18 1
charge -1
@<TRIPOS>BOND
     1    18    19   ar
     2    19    20   ar
     3    19    17    1
     4    17    16    1
     5    16     7    1
     6     7     8   ar
     7     8    13    1
     8    13    14   ar
     9    13    15   ar
    10     8     9   ar
    11     9    10   ar
    12    10     1    1
    13     1     2   ar
    14     2     3   ar
    15     3     4   ar
    16     4     5   ar
    17     5    21    1
    18    21    23    1
    19    23    24    1
    20    24    25    1
    21    25    26    1
    22    26    29    1
    23    29    30    2
    24    29    31    2
    25    29    32    1
    26    32    33    1
    27    33    34   ar
    28    34    35   ar
    29    35    36   ar
    30    36    37   ar
    31    37    38   ar
    32    26    27    1
    33    27    28    1
    34     5     6   ar
    35    10    11   ar
    36    11    12    1
    37    11     7   ar
    38     6     1   ar
    39    28    23    1
    40    38    33   ar
    41    21    22    1
@<TRIPOS>MOLECULE
*****
 38 41 0 0 0
SMALL
GASTEIGER

@<TRIPOS>ATOM
      1 C           1.1039    2.4772   18.9709 C.ar    1  UNL1        0.0078
      2 C           2.2175    3.4651   18.7876 C.ar    1  UNL1        0.0006
      3 C           3.5989    2.9848   18.4545 C.ar    1  UNL1        0.0013
      4 C           3.8666    1.5165   18.3048 C.ar    1  UNL1        0.0143
      5 C           2.7530    0.5286   18.4880 C.ar    1  UNL1        0.0446
      6 C           1.3716    1.0089   18.8211 C.ar    1  UNL1        0.0148
      7 C          -2.4721    3.9787   19.1250 C.ar    1  UNL1        0.1527
      8 C          -2.3348    3.4146   20.5081 C.ar    1  UNL1        0.0779
      9 S          -0.9785    2.7835   20.6187 S.2     1  UNL1       -0.0821
     10 C          -0.2776    2.9575   19.3039 C.ar    1  UNL1        0.0388
     11 C          -1.2007    3.6962   18.3808 C.ar    1  UNL1        0.0750
     12 BR         -0.9045    4.0843   16.9625 Br      1  UNL1       -0.0453
     13 C          -3.3716    3.4716   21.5905 C.2     1  UNL1        0.0818
     14 O          -3.2416    4.4707   22.7018 O.co2   1  UNL1       -0.5440
     15 O          -4.5385    2.5295   21.5616 O.co2   1  UNL1       -0.5440
     16 O          -3.6704    4.6989   18.5815 O.3     1  UNL1       -0.4683
     17 C          -4.9223    3.9368   18.2619 C.3     1  UNL1        0.2469
     18 O          -6.5347    4.6461   20.1716 O.co2   1  UNL1       -0.5454
     19 C          -6.2544    4.4612   18.7097 C.2     1  UNL1        0.0940
     20 O          -7.3062    4.8006   17.6955 O.co2   1  UNL1       -0.5454
     21 N           3.0207   -0.9397   18.3383 N.pl3   1  UNL1       -0.3339
     22 H           2.4681   -1.4813   17.7295 H       1  UNL1        0.1468
     23 C           4.1303   -1.5830   19.1161 C.3     1  UNL1        0.0719
     24 C           4.1702   -1.4564   20.6102 C.3     1  UNL1        0.0386
     25 C           5.2798   -2.0996   21.3880 C.3     1  UNL1        0.0971
     26 N           6.3495   -2.8694   20.6717 N.3     1  UNL1       -0.1590
     27 C           6.3097   -2.9960   19.1777 C.3     1  UNL1        0.0971
     28 C           5.2000   -2.3527   18.3998 C.3     1  UNL1        0.0386
     29 S           7.4592   -3.5126   21.4496 S.O2    1  UNL1        0.0481
     30 O           7.1467   -4.8307   20.8054 O.2     1  UNL1       -0.1570
     31 O           7.7717   -2.1946   22.0938 O.2     1  UNL1       -0.1570
     32 C           8.5687   -4.1559   22.2274 C.3     1  UNL1        0.1954
     33 C           8.2499   -5.1216   23.3300 C.ar    1  UNL1        0.0029
     34 C           8.7391   -6.5374   23.2518 C.ar    1  UNL1       -0.0025
     35 C           8.4203   -7.5031   24.3544 C.ar    1  UNL1       -0.0003
     36 C           7.6121   -7.0531   25.5352 C.ar    1  UNL1       -0.0000
     37 C           7.1228   -5.6374   25.6134 C.ar    1  UNL1       -0.0003
     38 C           7.4417   -4.6716   24.5108 C.ar    1  UNL1       -0.0025
@<TRIPOS>UNITY_ATOM_ATTR
14 1
charge -1
18 1
charge -1
@<TRIPOS>BOND
     1    18    19   ar
     2    19    20   ar
     3    19    17    1
     4    17    16    1
     5    16     7    1
     6     7     8   ar
     7     8    13    1
     8    13    14   ar
     9    13    15   ar
    10     8     9   ar
    11     9    10   ar
    12    10     1    1
    13     1     2   ar
    14     2     3   ar
    15     3     4   ar
    16     4     5   ar
    17     5    21    1
    18    21    23    1
    19    23    24    1
    20    24    25    1
    21    25    26    1
    22    26    29    1
    23    29    30    2
    24    29    31    2
    25    29    32    1
    26    32    33    1
    27    33    34   ar
    28    34    35   ar
    29    35    36   ar
    30    36    37   ar
    31    37    38   ar
    32    26    27    1
    33    27    28    1
    34     5     6   ar
    35    10    11   ar
    36    11    12    1
    37    11     7   ar
    38     6     1   ar
    39    28    23    1
    40    38    33   ar
    41    21    22    1
