@<TRIPOS>MOLECULE
*****
 24 27 0 0 0
SMALL
GASTEIGER

@<TRIPOS>ATOM
      1 C          -9.5584  -19.2232   24.2499 C.3     1  UNL1        0.0272
      2 C         -10.9421  -18.7411   23.9291 C.2     1  UNL1       -0.0314
      3 C         -12.0430  -18.8976   24.9359 C.2     1  UNL1        0.0289
      4 C         -13.4267  -18.4155   24.6151 C.2     1  UNL1        0.1343
      5 O         -14.5276  -18.5720   25.6220 O.2     1  UNL1       -0.5055
      6 C         -13.7096  -17.7770   23.2876 C.2     1  UNL1        0.0519
      7 C         -12.6087  -17.6205   22.2809 C.2     1  UNL1        0.0697
      8 N         -12.5872  -17.0350   20.9000 N.2     1  UNL1       -0.2475
      9 C         -11.1901  -17.1553   20.3674 C.2     1  UNL1        0.1013
     10 C         -10.3482  -17.8150   21.4190 C.2     1  UNL1        0.0814
     11 C         -11.2250  -18.1026   22.6016 C.3     1  UNL1        0.0888
     12 H         -14.3510  -18.9709   26.4512 H       1  UNL1        0.2922
     13 C          -8.8863  -18.1316   21.3076 C.2     1  UNL1        0.3394
     14 O          -8.4456  -19.5051   20.8960 O.2     1  UNL1       -0.2452
     15 O          -7.8650  -17.0748   21.6078 O.3     1  UNL1       -0.4456
     16 C          -8.2545  -15.8565   22.3913 C.3     1  UNL1        0.2087
     17 C          -7.8017  -15.7027   23.8130 C.3     1  UNL1        0.0445
     18 C          -6.3451  -15.5179   24.1204 C.3     1  UNL1        0.0210
     19 C          -5.8922  -15.3641   25.5421 C.3     1  UNL1        0.0722
     20 N          -6.8959  -15.3951   26.6565 N.3     1  UNL1       -0.2727
     21 C          -8.3524  -15.5800   26.3491 C.3     1  UNL1        0.0722
     22 C          -8.8052  -15.7338   24.9274 C.3     1  UNL1        0.0210
     23 C          -7.1918  -15.4836   25.8932 C.3     1  UNL1        0.0722
     24 C          -7.6012  -15.6227   24.6076 C.3     1  UNL1        0.0210
@<TRIPOS>BOND
     1     1     2    1
     2     2     3    2
     3     3     4    1
     4     4     5    1
     5     4     6    2
     6     6     7    1
     7     7     8    2
     8     8     9    1
     9     9    10    2
    10    10    13    1
    11    13    14    2
    12    13    15    1
    13    15    16    1
    14    16    17    1
    15    17    18    1
    16    18    19    1
    17    19    20    1
    18    20    21    1
    19    21    22    1
    20    20    23    1
    21    23    24    1
    22    10    11    1
    23    11     2    1
    24    11     7    1
    25    22    17    1
    26    24    17    1
    27     5    12    1
@<TRIPOS>MOLECULE
*****
 24 27 0 0 0
SMALL
GASTEIGER

@<TRIPOS>ATOM
      1 C         -11.4750  -16.7681   21.0337 C.3     1  UNL1        0.0272
      2 C         -11.7786  -17.5058   22.3040 C.2     1  UNL1       -0.0314
      3 C         -13.1464  -17.4182   22.9135 C.2     1  UNL1        0.0289
      4 C         -13.4500  -18.1558   24.1837 C.2     1  UNL1        0.1343
      5 O         -14.8179  -18.0682   24.7933 O.2     1  UNL1       -0.5055
      6 C         -12.3859  -18.9812   24.8446 C.2     1  UNL1        0.0519
      7 C         -11.0181  -19.0687   24.2350 C.2     1  UNL1        0.0697
      8 N          -9.7767  -19.7980   24.6557 N.2     1  UNL1       -0.2475
      9 C          -8.7058  -19.5110   23.6454 C.2     1  UNL1        0.1013
     10 C          -9.2853  -18.6044   22.6003 C.2     1  UNL1        0.0814
     11 C         -10.7145  -18.3311   22.9647 C.3     1  UNL1        0.0888
     12 H         -15.4826  -17.5527   24.3806 H       1  UNL1        0.2922
     13 C          -8.5626  -18.0657   21.4014 C.2     1  UNL1        0.3394
     14 O          -8.6733  -18.7683   20.0807 O.2     1  UNL1       -0.2452
     15 O          -7.7293  -16.8244   21.5230 O.3     1  UNL1       -0.4456
     16 C          -8.1805  -15.7022   22.4100 C.3     1  UNL1        0.2087
     17 C          -7.7109  -15.6356   23.8331 C.3     1  UNL1        0.0445
     18 C          -6.2605  -15.3989   24.1339 C.3     1  UNL1        0.0210
     19 C          -5.7908  -15.3324   25.5569 C.3     1  UNL1        0.0722
     20 N          -6.7715  -15.5025   26.6791 N.3     1  UNL1       -0.2727
     21 C          -8.2218  -15.7392   26.3783 C.3     1  UNL1        0.0722
     22 C          -8.6915  -15.8058   24.9553 C.3     1  UNL1        0.0210
     23 C          -7.0761  -15.5469   25.9154 C.3     1  UNL1        0.0722
     24 C          -7.5007  -15.6071   24.6287 C.3     1  UNL1        0.0210
@<TRIPOS>BOND
     1     1     2    1
     2     2     3    2
     3     3     4    1
     4     4     5    1
     5     4     6    2
     6     6     7    1
     7     7     8    2
     8     8     9    1
     9     9    10    2
    10    10    13    1
    11    13    14    2
    12    13    15    1
    13    15    16    1
    14    16    17    1
    15    17    18    1
    16    18    19    1
    17    19    20    1
    18    20    21    1
    19    21    22    1
    20    20    23    1
    21    23    24    1
    22    10    11    1
    23    11     2    1
    24    11     7    1
    25    22    17    1
    26    24    17    1
    27     5    12    1
@<TRIPOS>MOLECULE
*****
 24 27 0 0 0
SMALL
GASTEIGER

@<TRIPOS>ATOM
      1 C          -9.5909  -19.0919   24.3335 C.3     1  UNL1        0.0272
      2 C         -10.9657  -18.6587   23.9184 C.2     1  UNL1       -0.0314
      3 C         -12.1165  -18.8026   24.8696 C.2     1  UNL1        0.0289
      4 C         -13.4912  -18.3694   24.4546 C.2     1  UNL1        0.1343
      5 O         -14.6421  -18.5134   25.4059 O.2     1  UNL1       -0.5055
      6 C         -13.7153  -17.7923   23.0883 C.2     1  UNL1        0.0519
      7 C         -12.5645  -17.6483   22.1371 C.2     1  UNL1        0.0697
      8 N         -12.4804  -17.1185   20.7363 N.2     1  UNL1       -0.2475
      9 C         -11.0536  -17.2243   20.2856 C.2     1  UNL1        0.1013
     10 C         -10.2559  -17.8195   21.4078 C.2     1  UNL1        0.0814
     11 C         -11.1897  -18.0815   22.5521 C.3     1  UNL1        0.0888
     12 H         -14.5022  -18.8739   26.2594 H       1  UNL1        0.2922
     13 C          -8.7830  -18.1028   21.3890 C.2     1  UNL1        0.3394
     14 O          -7.8020  -16.9873   21.5973 O.2     1  UNL1       -0.2452
     15 O          -8.2911  -19.5015   21.1619 O.3     1  UNL1       -0.4456
     16 C          -7.1883  -20.0562   22.0138 C.3     1  UNL1        0.2087
     17 C          -5.7592  -19.9022   21.5847 C.3     1  UNL1        0.0445
     18 C          -5.2637  -20.6110   20.3590 C.3     1  UNL1        0.0210
     19 C          -3.8347  -20.4570   19.9298 C.3     1  UNL1        0.0722
     20 N          -2.9012  -19.5942   20.7262 N.3     1  UNL1       -0.2727
     21 C          -3.3967  -18.8854   21.9518 C.3     1  UNL1        0.0722
     22 C          -4.8257  -19.0394   22.3811 C.3     1  UNL1        0.0210
     23 C          -3.6757  -19.6480   21.0007 C.3     1  UNL1        0.0722
     24 C          -4.9678  -19.7873   21.3887 C.3     1  UNL1        0.0210
@<TRIPOS>BOND
     1     1     2    1
     2     2     3    2
     3     3     4    1
     4     4     5    1
     5     4     6    2
     6     6     7    1
     7     7     8    2
     8     8     9    1
     9     9    10    2
    10    10    13    1
    11    13    14    2
    12    13    15    1
    13    15    16    1
    14    16    17    1
    15    17    18    1
    16    18    19    1
    17    19    20    1
    18    20    21    1
    19    21    22    1
    20    20    23    1
    21    23    24    1
    22    10    11    1
    23    11     2    1
    24    11     7    1
    25    22    17    1
    26    24    17    1
    27     5    12    1
@<TRIPOS>MOLECULE
*****
 24 27 0 0 0
SMALL
GASTEIGER

@<TRIPOS>ATOM
      1 C          -4.7130  -16.8043   23.7308 C.3     1  UNL1        0.0272
      2 C          -4.5626  -17.9587   22.7850 C.2     1  UNL1       -0.0314
      3 C          -3.2154  -18.5829   22.5717 C.2     1  UNL1        0.0289
      4 C          -3.0649  -19.7373   21.6259 C.2     1  UNL1        0.1343
      5 O          -1.7177  -20.3615   21.4126 O.2     1  UNL1       -0.5055
      6 C          -4.2617  -20.2677   20.8933 C.2     1  UNL1        0.0519
      7 C          -5.6089  -19.6435   21.1067 C.2     1  UNL1        0.0697
      8 N          -6.9592  -19.9487   20.5293 N.2     1  UNL1       -0.2475
      9 C          -7.9442  -18.9829   21.1183 C.2     1  UNL1        0.1013
     10 C          -7.2026  -18.0808   22.0597 C.2     1  UNL1        0.0814
     11 C          -5.7593  -18.4890   22.0525 C.3     1  UNL1        0.0888
     12 H          -0.9701  -20.0302   21.8702 H       1  UNL1        0.2922
     13 C          -7.7996  -16.9661   22.8666 C.2     1  UNL1        0.3394
     14 O          -7.7632  -15.5601   22.3453 O.2     1  UNL1       -0.2452
     15 O          -8.4330  -17.2574   24.1947 O.3     1  UNL1       -0.4456
     16 C          -9.7932  -17.8868   24.2550 C.3     1  UNL1        0.2087
     17 C         -10.7692  -17.6721   23.1363 C.3     1  UNL1        0.0445
     18 C         -11.1704  -18.8217   22.2602 C.3     1  UNL1        0.0210
     19 C         -12.1464  -18.6071   21.1415 C.3     1  UNL1        0.0722
     20 N         -12.7212  -17.2429   20.8990 N.3     1  UNL1       -0.2727
     21 C         -12.3199  -16.0934   21.7751 C.3     1  UNL1        0.0722
     22 C         -11.3440  -16.3080   22.8938 C.3     1  UNL1        0.0210
     23 C         -12.1898  -17.3117   21.5242 C.3     1  UNL1        0.0722
     24 C         -11.3073  -17.5058   22.5357 C.3     1  UNL1        0.0210
@<TRIPOS>BOND
     1     1     2    1
     2     2     3    2
     3     3     4    1
     4     4     5    1
     5     4     6    2
     6     6     7    1
     7     7     8    2
     8     8     9    1
     9     9    10    2
    10    10    13    1
    11    13    14    2
    12    13    15    1
    13    15    16    1
    14    16    17    1
    15    17    18    1
    16    18    19    1
    17    19    20    1
    18    20    21    1
    19    21    22    1
    20    20    23    1
    21    23    24    1
    22    10    11    1
    23    11     2    1
    24    11     7    1
    25    22    17    1
    26    24    17    1
    27     5    12    1
@<TRIPOS>MOLECULE
*****
 24 27 0 0 0
SMALL
GASTEIGER

@<TRIPOS>ATOM
      1 C          -8.8253  -18.0293   22.0679 C.3     1  UNL1        0.0272
      2 C         -10.2243  -17.5597   21.7987 C.2     1  UNL1       -0.0314
      3 C         -10.5247  -16.7693   20.5598 C.2     1  UNL1        0.0289
      4 C         -11.9236  -16.2998   20.2906 C.2     1  UNL1        0.1343
      5 O         -12.2241  -15.5094   19.0516 O.2     1  UNL1       -0.5055
      6 C         -13.0222  -16.6207   21.2604 C.2     1  UNL1        0.0519
      7 C         -12.7217  -17.4110   22.4993 C.2     1  UNL1        0.0697
      8 N         -13.5922  -17.8761   23.6288 N.2     1  UNL1       -0.2475
      9 C         -12.7312  -18.6331   24.5962 C.2     1  UNL1        0.1013
     10 C         -11.3286  -18.6358   24.0645 C.2     1  UNL1        0.0814
     11 C         -11.3227  -17.8806   22.7685 C.3     1  UNL1        0.0888
     12 H         -11.5379  -15.3090   18.4458 H       1  UNL1        0.2922
     13 C         -10.1405  -19.2807   24.7146 C.2     1  UNL1        0.3394
     14 O          -9.7016  -20.6492   24.2853 O.2     1  UNL1       -0.2452
     15 O          -9.3914  -18.5569   25.7940 O.3     1  UNL1       -0.4456
     16 C          -9.3969  -17.0575   25.8346 C.3     1  UNL1        0.2087
     17 C          -8.1111  -16.2986   25.6907 C.3     1  UNL1        0.0445
     18 C          -7.3263  -15.9150   26.9102 C.3     1  UNL1        0.0210
     19 C          -6.0404  -15.1560   26.7664 C.3     1  UNL1        0.0722
     20 N          -5.5394  -14.7808   25.4032 N.3     1  UNL1       -0.2727
     21 C          -6.3242  -15.1644   24.1839 C.3     1  UNL1        0.0722
     22 C          -7.6100  -15.9234   24.3276 C.3     1  UNL1        0.0210
     23 C          -6.2494  -15.1968   25.4318 C.3     1  UNL1        0.0722
     24 C          -7.4121  -15.8830   25.5619 C.3     1  UNL1        0.0210
@<TRIPOS>BOND
     1     1     2    1
     2     2     3    2
     3     3     4    1
     4     4     5    1
     5     4     6    2
     6     6     7    1
     7     7     8    2
     8     8     9    1
     9     9    10    2
    10    10    13    1
    11    13    14    2
    12    13    15    1
    13    15    16    1
    14    16    17    1
    15    17    18    1
    16    18    19    1
    17    19    20    1
    18    20    21    1
    19    21    22    1
    20    20    23    1
    21    23    24    1
    22    10    11    1
    23    11     2    1
    24    11     7    1
    25    22    17    1
    26    24    17    1
    27     5    12    1
@<TRIPOS>MOLECULE
*****
 24 27 0 0 0
SMALL
GASTEIGER

@<TRIPOS>ATOM
      1 C         -10.0816  -18.1438   25.4015 C.3     1  UNL1        0.0272
      2 C          -9.1802  -17.3610   24.4933 C.2     1  UNL1       -0.0314
      3 C          -8.8567  -15.9307   24.8085 C.2     1  UNL1        0.0289
      4 C          -7.9554  -15.1479   23.9004 C.2     1  UNL1        0.1343
      5 O          -7.6318  -13.7175   24.2157 O.2     1  UNL1       -0.5055
      6 C          -7.3774  -15.7955   22.6770 C.2     1  UNL1        0.0519
      7 C          -7.7009  -17.2259   22.3617 C.2     1  UNL1        0.0697
      8 N          -7.2827  -18.1249   21.2363 N.2     1  UNL1       -0.2475
      9 C          -7.9256  -19.4634   21.4488 C.2     1  UNL1        0.1013
     10 C          -8.7412  -19.3915   22.7057 C.2     1  UNL1        0.0814
     11 C          -8.6023  -18.0086   23.2699 C.3     1  UNL1        0.0888
     12 H          -7.9928  -13.3130   24.9799 H       1  UNL1        0.2922
     13 C          -9.5531  -20.5067   23.2948 C.2     1  UNL1        0.3394
     14 O          -8.9786  -21.3547   24.3907 O.2     1  UNL1       -0.2452
     15 O         -10.9394  -20.7740   22.7882 O.3     1  UNL1       -0.4456
     16 C         -11.3730  -20.2214   21.4629 C.3     1  UNL1        0.2087
     17 C         -11.5953  -18.7467   21.3016 C.3     1  UNL1        0.0445
     18 C         -11.1164  -18.0470   20.0642 C.3     1  UNL1        0.0210
     19 C         -11.3387  -16.5724   19.9028 C.3     1  UNL1        0.0722
     20 N         -12.0400  -15.7974   20.9789 N.3     1  UNL1       -0.2727
     21 C         -12.5189  -16.4971   22.2162 C.3     1  UNL1        0.0722
     22 C         -12.2965  -17.9718   22.3776 C.3     1  UNL1        0.0210
     23 C         -11.9411  -16.6039   21.1122 C.3     1  UNL1        0.0722
     24 C         -11.7400  -17.9373   21.2581 C.3     1  UNL1        0.0210
@<TRIPOS>BOND
     1     1     2    1
     2     2     3    2
     3     3     4    1
     4     4     5    1
     5     4     6    2
     6     6     7    1
     7     7     8    2
     8     8     9    1
     9     9    10    2
    10    10    13    1
    11    13    14    2
    12    13    15    1
    13    15    16    1
    14    16    17    1
    15    17    18    1
    16    18    19    1
    17    19    20    1
    18    20    21    1
    19    21    22    1
    20    20    23    1
    21    23    24    1
    22    10    11    1
    23    11     2    1
    24    11     7    1
    25    22    17    1
    26    24    17    1
    27     5    12    1
@<TRIPOS>MOLECULE
*****
 24 27 0 0 0
SMALL
GASTEIGER

@<TRIPOS>ATOM
      1 C         -10.2637  -18.9084   19.4355 C.3     1  UNL1        0.0272
      2 C          -8.9611  -18.9734   20.1764 C.2     1  UNL1       -0.0314
      3 C          -8.0094  -20.1046   19.9223 C.2     1  UNL1        0.0289
      4 C          -6.7068  -20.1696   20.6631 C.2     1  UNL1        0.1343
      5 O          -5.7551  -21.3010   20.4090 O.2     1  UNL1       -0.5055
      6 C          -6.3558  -19.1034   21.6581 C.2     1  UNL1        0.0519
      7 C          -7.3075  -17.9721   21.9122 C.2     1  UNL1        0.0697
      8 N          -7.2347  -16.7856   22.8269 N.2     1  UNL1       -0.2475
      9 C          -8.4924  -15.9872   22.6514 C.2     1  UNL1        0.1013
     10 C          -9.3425  -16.6804   21.6282 C.2     1  UNL1        0.0814
     11 C          -8.6101  -17.9071   21.1713 C.3     1  UNL1        0.0888
     12 H          -5.9744  -21.9670   19.7875 H       1  UNL1        0.2922
     13 C         -10.6885  -16.2264   21.1465 C.2     1  UNL1        0.3394
     14 O         -10.8202  -15.5553   19.8115 O.2     1  UNL1       -0.2452
     15 O         -11.9030  -16.4437   21.9997 O.3     1  UNL1       -0.4456
     16 C         -12.3020  -17.8342   22.3960 C.3     1  UNL1        0.2087
     17 C         -11.4105  -18.6445   23.2896 C.3     1  UNL1        0.0445
     18 C         -10.9115  -18.0620   24.5788 C.3     1  UNL1        0.0210
     19 C         -10.0199  -18.8722   25.4725 C.3     1  UNL1        0.0722
     20 N          -9.6273  -20.2649   25.0770 N.3     1  UNL1       -0.2727
     21 C         -10.1262  -20.8473   23.7879 C.3     1  UNL1        0.0722
     22 C         -11.0178  -20.0371   22.8942 C.3     1  UNL1        0.0210
     23 C         -10.1178  -19.8593   24.5546 C.3     1  UNL1        0.0722
     24 C         -10.9240  -19.1267   23.7466 C.3     1  UNL1        0.0210
@<TRIPOS>BOND
     1     1     2    1
     2     2     3    2
     3     3     4    1
     4     4     5    1
     5     4     6    2
     6     6     7    1
     7     7     8    2
     8     8     9    1
     9     9    10    2
    10    10    13    1
    11    13    14    2
    12    13    15    1
    13    15    16    1
    14    16    17    1
    15    17    18    1
    16    18    19    1
    17    19    20    1
    18    20    21    1
    19    21    22    1
    20    20    23    1
    21    23    24    1
    22    10    11    1
    23    11     2    1
    24    11     7    1
    25    22    17    1
    26    24    17    1
    27     5    12    1
@<TRIPOS>MOLECULE
*****
 24 27 0 0 0
SMALL
GASTEIGER

@<TRIPOS>ATOM
      1 C          -7.7171  -15.3530   22.3651 C.3     1  UNL1        0.0272
      2 C          -8.0910  -15.8303   23.7371 C.2     1  UNL1       -0.0314
      3 C          -7.6660  -15.0488   24.9448 C.2     1  UNL1        0.0289
      4 C          -8.0399  -15.5260   26.3167 C.2     1  UNL1        0.1343
      5 O          -7.6148  -14.7445   27.5245 O.2     1  UNL1       -0.5055
      6 C          -8.8390  -16.7849   26.4811 C.2     1  UNL1        0.0519
      7 C          -9.2640  -17.5664   25.2734 C.2     1  UNL1        0.0697
      8 N         -10.0517  -18.8342   25.1245 N.2     1  UNL1       -0.2475
      9 C         -10.1646  -19.1404   23.6604 C.2     1  UNL1        0.1013
     10 C          -9.4466  -18.0619   22.9045 C.2     1  UNL1        0.0814
     11 C          -8.8901  -17.0891   23.9014 C.3     1  UNL1        0.0888
     12 H          -7.1157  -13.9581   27.4218 H       1  UNL1        0.2922
     13 C          -9.3094  -17.9721   21.4135 C.2     1  UNL1        0.3394
     14 O         -10.3326  -17.2257   20.6098 O.2     1  UNL1       -0.2452
     15 O          -8.1490  -18.6287   20.7262 O.3     1  UNL1       -0.4456
     16 C          -7.3473  -19.6748   21.4423 C.3     1  UNL1        0.2087
     17 C          -5.8497  -19.6597   21.3588 C.3     1  UNL1        0.0445
     18 C          -5.0486  -18.9194   22.3885 C.3     1  UNL1        0.0210
     19 C          -3.5510  -18.9043   22.3050 C.3     1  UNL1        0.0722
     20 N          -2.8545  -19.6295   21.1919 N.3     1  UNL1       -0.2727
     21 C          -3.6556  -20.3698   20.1623 C.3     1  UNL1        0.0722
     22 C          -5.1532  -20.3849   20.2457 C.3     1  UNL1        0.0210
     23 C          -3.6771  -19.6662   21.1960 C.3     1  UNL1        0.0722
     24 C          -5.0312  -19.6799   21.2715 C.3     1  UNL1        0.0210
@<TRIPOS>BOND
     1     1     2    1
     2     2     3    2
     3     3     4    1
     4     4     5    1
     5     4     6    2
     6     6     7    1
     7     7     8    2
     8     8     9    1
     9     9    10    2
    10    10    13    1
    11    13    14    2
    12    13    15    1
    13    15    16    1
    14    16    17    1
    15    17    18    1
    16    18    19    1
    17    19    20    1
    18    20    21    1
    19    21    22    1
    20    20    23    1
    21    23    24    1
    22    10    11    1
    23    11     2    1
    24    11     7    1
    25    22    17    1
    26    24    17    1
    27     5    12    1
@<TRIPOS>MOLECULE
*****
 24 27 0 0 0
SMALL
GASTEIGER

@<TRIPOS>ATOM
      1 C          -5.2205  -17.0989   23.3429 C.3     1  UNL1        0.0272
      2 C          -4.8741  -18.2254   22.4150 C.2     1  UNL1       -0.0314
      3 C          -3.4743  -18.7630   22.3778 C.2     1  UNL1        0.0289
      4 C          -3.1279  -19.8894   21.4499 C.2     1  UNL1        0.1343
      5 O          -1.7280  -20.4271   21.4127 O.2     1  UNL1       -0.5055
      6 C          -4.1814  -20.4783   20.5590 C.2     1  UNL1        0.0519
      7 C          -5.5812  -19.9407   20.5962 C.2     1  UNL1        0.0697
      8 N          -6.8212  -20.3169   19.8407 N.2     1  UNL1       -0.2475
      9 C          -7.9340  -19.4229   20.3018 C.2     1  UNL1        0.1013
     10 C          -7.3817  -18.4942   21.3422 C.2     1  UNL1        0.0814
     11 C          -5.9276  -18.8142   21.5242 C.3     1  UNL1        0.0888
     12 H          -1.0699  -20.0593   21.9692 H       1  UNL1        0.2922
     13 C          -8.1489  -17.4320   22.0724 C.2     1  UNL1        0.3394
     14 O          -8.0625  -16.0030   21.6249 O.2     1  UNL1       -0.2452
     15 O          -9.0024  -17.7989   23.2501 O.3     1  UNL1       -0.4456
     16 C          -9.4433  -16.7393   24.2158 C.3     1  UNL1        0.2087
     17 C          -8.5058  -16.2619   25.2850 C.3     1  UNL1        0.0445
     18 C          -8.6579  -16.7586   26.6923 C.3     1  UNL1        0.0210
     19 C          -7.7204  -16.2813   27.7615 C.3     1  UNL1        0.0722
     20 N          -6.6308  -15.3073   27.4235 N.3     1  UNL1       -0.2727
     21 C          -6.4787  -14.8106   26.0163 C.3     1  UNL1        0.0722
     22 C          -7.4162  -15.2880   24.9471 C.3     1  UNL1        0.0210
     23 C          -7.1203  -15.5402   26.8038 C.3     1  UNL1        0.0722
     24 C          -7.9681  -15.9719   25.8370 C.3     1  UNL1        0.0210
@<TRIPOS>BOND
     1     1     2    1
     2     2     3    2
     3     3     4    1
     4     4     5    1
     5     4     6    2
     6     6     7    1
     7     7     8    2
     8     8     9    1
     9     9    10    2
    10    10    13    1
    11    13    14    2
    12    13    15    1
    13    15    16    1
    14    16    17    1
    15    17    18    1
    16    18    19    1
    17    19    20    1
    18    20    21    1
    19    21    22    1
    20    20    23    1
    21    23    24    1
    22    10    11    1
    23    11     2    1
    24    11     7    1
    25    22    17    1
    26    24    17    1
    27     5    12    1
