@<TRIPOS>MOLECULE
*****
 27 29 0 0 0
SMALL
GASTEIGER

@<TRIPOS>ATOM
      1 C          -6.4703  -16.6599   23.1331 C.ar    1  UNL1        0.0223
      2 C          -7.6794  -17.3441   22.5674 C.ar    1  UNL1        0.0139
      3 C          -7.5614  -18.7272   21.9991 C.ar    1  UNL1        0.0482
      4 C          -6.2342  -19.4263   21.9964 C.ar    1  UNL1        0.0169
      5 C          -5.0250  -18.7421   22.5621 C.ar    1  UNL1        0.0306
      6 C          -5.1431  -17.3589   23.1304 C.ar    1  UNL1        0.1375
      7 F          -3.9340  -16.6747   23.6960 F       1  UNL1       -0.2045
      8 N          -8.7705  -19.4114   21.4335 N.pl3   1  UNL1       -0.3125
      9 H          -8.7282  -20.3645   21.1905 H       1  UNL1        0.1522
     10 C         -10.0442  -18.6434   21.2382 C.ar    1  UNL1        0.0513
     11 C         -10.2997  -17.9318   19.9427 C.ar    1  UNL1        0.0353
     12 C         -11.5733  -17.1638   19.7475 C.ar    1  UNL1        0.1001
     13 N         -12.5913  -17.1074   20.8477 N.ar    1  UNL1       -0.2437
     14 C         -12.3357  -17.8190   22.1432 C.ar    1  UNL1        0.0833
     15 C         -13.3538  -17.7626   23.2434 C.ar    1  UNL1        0.0305
     16 C         -13.0982  -18.4742   24.5388 C.ar    1  UNL1        0.0592
     17 CL        -14.1162  -18.4178   25.6390 Cl      1  UNL1       -0.0822
     18 C         -11.8246  -19.2422   24.7342 C.ar    1  UNL1        0.0115
     19 C         -10.8065  -19.2986   23.6339 C.ar    1  UNL1        0.0036
     20 C         -11.0622  -18.5870   22.3384 C.ar    1  UNL1        0.0312
     21 C          -6.5884  -15.2768   23.7014 C.3     1  UNL1        0.0979
     22 N          -7.4999  -15.0191   24.8644 N.3     1  UNL1       -0.2958
     23 H          -7.5706  -14.0065   24.9644 H       1  UNL1        0.1235
     24 C          -8.5617  -16.0779   26.3649 C.3     1  UNL1        0.0158
     25 C          -7.1596  -15.5653   26.2193 C.3     1  UNL1        0.0423
     26 C          -5.7575  -15.0527   26.0738 C.3     1  UNL1        0.0158
     27 C          -6.8193  -16.1116   27.5743 C.3     1  UNL1        0.0158
@<TRIPOS>BOND
     1    24    25    1
     2    25    26    1
     3    25    27    1
     4    25    22    1
     5    22    21    1
     6    21     1    1
     7     1     2   ar
     8     2     3   ar
     9     3     8    1
    10     8    10    1
    11    10    11   ar
    12    11    12   ar
    13    12    13   ar
    14    13    14   ar
    15    14    15   ar
    16    15    16   ar
    17    16    17    1
    18    16    18   ar
    19    18    19   ar
    20    19    20   ar
    21     3     4   ar
    22     4     5   ar
    23     5     6   ar
    24     6     7    1
    25     6     1   ar
    26    20    10   ar
    27    20    14   ar
    28    22    23    1
    29     8     9    1
@<TRIPOS>MOLECULE
*****
 27 29 0 0 0
SMALL
GASTEIGER

@<TRIPOS>ATOM
      1 C          -4.5494  -16.8802   23.1105 C.ar    1  UNL1        0.0223
      2 C          -5.6973  -17.8392   22.9987 C.ar    1  UNL1        0.0139
      3 C          -5.5140  -19.1493   22.2916 C.ar    1  UNL1        0.0482
      4 C          -4.1827  -19.5004   21.6962 C.ar    1  UNL1        0.0169
      5 C          -3.0347  -18.5414   21.8080 C.ar    1  UNL1        0.0306
      6 C          -3.2181  -17.2313   22.5152 C.ar    1  UNL1        0.1375
      7 F          -2.0702  -16.2722   22.6270 F       1  UNL1       -0.2045
      8 N          -6.6620  -20.1083   22.1798 N.pl3   1  UNL1       -0.3125
      9 H          -6.6467  -20.9551   22.6818 H       1  UNL1        0.1522
     10 C          -7.8332  -19.7771   21.3031 C.ar    1  UNL1        0.0513
     11 C          -7.7013  -19.8625   19.8114 C.ar    1  UNL1        0.0353
     12 C          -8.8725  -19.5313   18.9347 C.ar    1  UNL1        0.1001
     13 N         -10.1757  -19.1149   19.5498 N.ar    1  UNL1       -0.2437
     14 C         -10.3076  -19.0295   21.0415 C.ar    1  UNL1        0.0833
     15 C         -11.6108  -18.6131   21.6566 C.ar    1  UNL1        0.0305
     16 C         -11.7427  -18.5278   23.1484 C.ar    1  UNL1        0.0592
     17 CL        -13.0459  -18.1113   23.7634 Cl      1  UNL1       -0.0822
     18 C         -10.5714  -18.8589   24.0251 C.ar    1  UNL1        0.0115
     19 C          -9.2683  -19.2754   23.4100 C.ar    1  UNL1        0.0036
     20 C          -9.1364  -19.3607   21.9182 C.ar    1  UNL1        0.0312
     21 C          -4.7328  -15.5701   23.8177 C.3     1  UNL1        0.0979
     22 N          -6.1116  -15.0194   24.0308 N.3     1  UNL1       -0.2958
     23 H          -6.0390  -14.0050   23.9517 H       1  UNL1        0.1235
     24 C          -5.5650  -15.1381   26.0770 C.3     1  UNL1        0.0158
     25 C          -6.8431  -15.3028   25.3093 C.3     1  UNL1        0.0423
     26 C          -8.1211  -15.4674   24.5416 C.3     1  UNL1        0.0158
     27 C          -7.5745  -15.5862   26.5879 C.3     1  UNL1        0.0158
@<TRIPOS>BOND
     1    24    25    1
     2    25    26    1
     3    25    27    1
     4    25    22    1
     5    22    21    1
     6    21     1    1
     7     1     2   ar
     8     2     3   ar
     9     3     8    1
    10     8    10    1
    11    10    11   ar
    12    11    12   ar
    13    12    13   ar
    14    13    14   ar
    15    14    15   ar
    16    15    16   ar
    17    16    17    1
    18    16    18   ar
    19    18    19   ar
    20    19    20   ar
    21     3     4   ar
    22     4     5   ar
    23     5     6   ar
    24     6     7    1
    25     6     1   ar
    26    20    10   ar
    27    20    14   ar
    28    22    23    1
    29     8     9    1
@<TRIPOS>MOLECULE
*****
 27 29 0 0 0
SMALL
GASTEIGER

@<TRIPOS>ATOM
      1 C          -5.1281  -17.3547   23.1924 C.ar    1  UNL1        0.0223
      2 C          -6.4352  -18.0139   22.8655 C.ar    1  UNL1        0.0139
      3 C          -6.4520  -19.3357   22.1566 C.ar    1  UNL1        0.0482
      4 C          -5.1615  -19.9983   21.7747 C.ar    1  UNL1        0.0169
      5 C          -3.8544  -19.3391   22.1016 C.ar    1  UNL1        0.0306
      6 C          -3.8377  -18.0173   22.8105 C.ar    1  UNL1        0.1375
      7 F          -2.5306  -17.3581   23.1375 F       1  UNL1       -0.2045
      8 N          -7.7591  -19.9949   21.8297 N.pl3   1  UNL1       -0.3125
      9 H          -7.8060  -20.6650   21.1099 H       1  UNL1        0.1522
     10 C          -8.9947  -19.6330   22.5993 C.ar    1  UNL1        0.0513
     11 C          -9.2210  -20.2057   23.9671 C.ar    1  UNL1        0.0353
     12 C         -10.4566  -19.8439   24.7366 C.ar    1  UNL1        0.1001
     13 N         -11.4660  -18.9094   24.1385 N.ar    1  UNL1       -0.2437
     14 C         -11.2397  -18.3367   22.7707 C.ar    1  UNL1        0.0833
     15 C         -12.2491  -17.4021   22.1725 C.ar    1  UNL1        0.0305
     16 C         -12.0229  -16.8295   20.8048 C.ar    1  UNL1        0.0592
     17 CL        -13.0323  -15.8949   20.2066 Cl      1  UNL1       -0.0822
     18 C         -10.7872  -17.1913   20.0351 C.ar    1  UNL1        0.0115
     19 C          -9.7778  -18.1258   20.6333 C.ar    1  UNL1        0.0036
     20 C         -10.0041  -18.6985   22.0011 C.ar    1  UNL1        0.0312
     21 C          -5.1114  -16.0328   23.9013 C.3     1  UNL1        0.0979
     22 N          -6.4010  -15.3355   24.2185 N.3     1  UNL1       -0.2958
     23 H          -6.2446  -14.3403   24.0586 H       1  UNL1        0.1235
     24 C          -8.3709  -15.5714   24.9690 C.3     1  UNL1        0.0158
     25 C          -7.0072  -15.4646   25.5844 C.3     1  UNL1        0.0423
     26 C          -5.6434  -15.3579   26.1997 C.3     1  UNL1        0.0158
     27 C          -7.6135  -15.5938   26.9503 C.3     1  UNL1        0.0158
@<TRIPOS>BOND
     1    24    25    1
     2    25    26    1
     3    25    27    1
     4    25    22    1
     5    22    21    1
     6    21     1    1
     7     1     2   ar
     8     2     3   ar
     9     3     8    1
    10     8    10    1
    11    10    11   ar
    12    11    12   ar
    13    12    13   ar
    14    13    14   ar
    15    14    15   ar
    16    15    16   ar
    17    16    17    1
    18    16    18   ar
    19    18    19   ar
    20    19    20   ar
    21     3     4   ar
    22     4     5   ar
    23     5     6   ar
    24     6     7    1
    25     6     1   ar
    26    20    10   ar
    27    20    14   ar
    28    22    23    1
    29     8     9    1
@<TRIPOS>MOLECULE
*****
 27 29 0 0 0
SMALL
GASTEIGER

@<TRIPOS>ATOM
      1 C          -8.1782  -15.6026   25.0490 C.ar    1  UNL1        0.0223
      2 C          -7.0808  -15.7478   24.0367 C.ar    1  UNL1        0.0139
      3 C          -5.6468  -15.7166   24.4754 C.ar    1  UNL1        0.0482
      4 C          -5.3100  -15.5403   25.9265 C.ar    1  UNL1        0.0169
      5 C          -6.4074  -15.3952   26.9388 C.ar    1  UNL1        0.0306
      6 C          -7.8415  -15.4263   26.5000 C.ar    1  UNL1        0.1375
      7 F          -8.9389  -15.2812   27.5123 F       1  UNL1       -0.2045
      8 N          -4.5494  -15.8617   23.4631 N.pl3   1  UNL1       -0.3125
      9 H          -3.9697  -15.0945   23.2521 H       1  UNL1        0.1522
     10 C          -4.3353  -17.1759   22.7723 C.ar    1  UNL1        0.0513
     11 C          -5.3387  -18.2794   22.9320 C.ar    1  UNL1        0.0353
     12 C          -5.1245  -19.5934   22.2411 C.ar    1  UNL1        0.1001
     13 N          -3.9071  -19.8040   21.3906 N.ar    1  UNL1       -0.2437
     14 C          -2.9037  -18.7005   21.2309 C.ar    1  UNL1        0.0833
     15 C          -1.6862  -18.9111   20.3804 C.ar    1  UNL1        0.0305
     16 C          -0.6829  -17.8076   20.2207 C.ar    1  UNL1        0.0592
     17 CL          0.5346  -18.0182   19.3701 Cl      1  UNL1       -0.0822
     18 C          -0.8970  -16.4935   20.9115 C.ar    1  UNL1        0.0115
     19 C          -2.1145  -16.2829   21.7621 C.ar    1  UNL1        0.0036
     20 C          -3.1178  -17.3865   21.9217 C.ar    1  UNL1        0.0312
     21 C          -9.6123  -15.6338   24.6102 C.3     1  UNL1        0.0979
     22 N          -9.9811  -16.2554   23.2958 N.3     1  UNL1       -0.2958
     23 H         -10.0852  -15.4916   22.6278 H       1  UNL1        0.1235
     24 C         -10.5007  -18.2350   23.8532 C.3     1  UNL1        0.0158
     25 C         -11.2167  -17.0986   23.1854 C.3     1  UNL1        0.0423
     26 C         -11.9326  -15.9622   22.5176 C.3     1  UNL1        0.0158
     27 C         -12.4523  -17.9420   23.0751 C.3     1  UNL1        0.0158
@<TRIPOS>BOND
     1    24    25    1
     2    25    26    1
     3    25    27    1
     4    25    22    1
     5    22    21    1
     6    21     1    1
     7     1     2   ar
     8     2     3   ar
     9     3     8    1
    10     8    10    1
    11    10    11   ar
    12    11    12   ar
    13    12    13   ar
    14    13    14   ar
    15    14    15   ar
    16    15    16   ar
    17    16    17    1
    18    16    18   ar
    19    18    19   ar
    20    19    20   ar
    21     3     4   ar
    22     4     5   ar
    23     5     6   ar
    24     6     7    1
    25     6     1   ar
    26    20    10   ar
    27    20    14   ar
    28    22    23    1
    29     8     9    1
@<TRIPOS>MOLECULE
*****
 27 29 0 0 0
SMALL
GASTEIGER

@<TRIPOS>ATOM
      1 C          -4.2646  -19.0560   21.4617 C.ar    1  UNL1        0.0223
      2 C          -5.5755  -18.8798   22.1691 C.ar    1  UNL1        0.0139
      3 C          -6.7123  -19.8166   21.8862 C.ar    1  UNL1        0.0482
      4 C          -6.5382  -20.9296   20.8957 C.ar    1  UNL1        0.0169
      5 C          -5.2273  -21.1058   20.1883 C.ar    1  UNL1        0.0306
      6 C          -4.0904  -20.1689   20.4713 C.ar    1  UNL1        0.1375
      7 F          -2.7795  -20.3451   19.7638 F       1  UNL1       -0.2045
      8 N          -8.0232  -19.6404   22.5936 N.pl3   1  UNL1       -0.3125
      9 H          -8.0972  -19.8508   23.5525 H       1  UNL1        0.1522
     10 C          -9.2213  -19.1436   21.8400 C.ar    1  UNL1        0.0513
     11 C          -9.1366  -18.9214   20.3590 C.ar    1  UNL1        0.0353
     12 C         -10.3347  -18.4246   19.6055 C.ar    1  UNL1        0.1001
     13 N         -11.6174  -18.1501   20.3330 N.ar    1  UNL1       -0.2437
     14 C         -11.7021  -18.3724   21.8140 C.ar    1  UNL1        0.0833
     15 C         -12.9848  -18.0979   22.5414 C.ar    1  UNL1        0.0305
     16 C         -13.0695  -18.3202   24.0224 C.ar    1  UNL1        0.0592
     17 CL        -14.3523  -18.0457   24.7499 Cl      1  UNL1       -0.0822
     18 C         -11.8714  -18.8169   24.7760 C.ar    1  UNL1        0.0115
     19 C         -10.5887  -19.0914   24.0486 C.ar    1  UNL1        0.0036
     20 C         -10.5040  -18.8691   22.5675 C.ar    1  UNL1        0.0312
     21 C          -3.1278  -18.1191   21.7447 C.3     1  UNL1        0.0979
     22 N          -2.7475  -17.0753   20.7369 N.3     1  UNL1       -0.2958
     23 H          -3.6172  -16.7086   20.3502 H       1  UNL1        0.1235
     24 C          -2.9988  -17.1195   18.6310 C.3     1  UNL1        0.0158
     25 C          -1.8756  -17.4398   19.5721 C.3     1  UNL1        0.0423
     26 C          -0.7523  -17.7602   20.5132 C.3     1  UNL1        0.0158
     27 C          -1.0036  -17.8044   18.4072 C.3     1  UNL1        0.0158
@<TRIPOS>BOND
     1    24    25    1
     2    25    26    1
     3    25    27    1
     4    25    22    1
     5    22    21    1
     6    21     1    1
     7     1     2   ar
     8     2     3   ar
     9     3     8    1
    10     8    10    1
    11    10    11   ar
    12    11    12   ar
    13    12    13   ar
    14    13    14   ar
    15    14    15   ar
    16    15    16   ar
    17    16    17    1
    18    16    18   ar
    19    18    19   ar
    20    19    20   ar
    21     3     4   ar
    22     4     5   ar
    23     5     6   ar
    24     6     7    1
    25     6     1   ar
    26    20    10   ar
    27    20    14   ar
    28    22    23    1
    29     8     9    1
@<TRIPOS>MOLECULE
*****
 27 29 0 0 0
SMALL
GASTEIGER

@<TRIPOS>ATOM
      1 C          -4.7485  -19.5449   21.3886 C.ar    1  UNL1        0.0223
      2 C          -5.8504  -18.6143   21.8008 C.ar    1  UNL1        0.0139
      3 C          -7.1909  -18.6968   21.1330 C.ar    1  UNL1        0.0482
      4 C          -7.4297  -19.7100   20.0528 C.ar    1  UNL1        0.0169
      5 C          -6.3278  -20.6406   19.6406 C.ar    1  UNL1        0.0306
      6 C          -4.9872  -20.5580   20.3086 C.ar    1  UNL1        0.1375
      7 F          -3.8853  -21.4886   19.8964 F       1  UNL1       -0.2045
      8 N          -8.2928  -17.7663   21.5452 N.pl3   1  UNL1       -0.3125
      9 H          -8.5962  -17.0597   20.9304 H       1  UNL1        0.1522
     10 C          -8.9325  -17.9123   22.8941 C.ar    1  UNL1        0.0513
     11 C         -10.0979  -18.8391   23.0752 C.ar    1  UNL1        0.0353
     12 C         -10.7375  -18.9851   24.4240 C.ar    1  UNL1        0.1001
     13 N         -10.2117  -18.2042   25.5919 N.ar    1  UNL1       -0.2437
     14 C          -9.0464  -17.2774   25.4108 C.ar    1  UNL1        0.0833
     15 C          -8.5206  -16.4965   26.5786 C.ar    1  UNL1        0.0305
     16 C          -7.3553  -15.5696   26.3976 C.ar    1  UNL1        0.0592
     17 CL         -6.8295  -14.7888   27.5654 Cl      1  UNL1       -0.0822
     18 C          -6.7156  -15.4236   25.0486 C.ar    1  UNL1        0.0115
     19 C          -7.2413  -16.2045   23.8808 C.ar    1  UNL1        0.0036
     20 C          -8.4068  -17.1314   24.0619 C.ar    1  UNL1        0.0312
     21 C          -3.4079  -19.4623   22.0566 C.3     1  UNL1        0.0979
     22 N          -2.7700  -18.1259   22.2952 N.3     1  UNL1       -0.2958
     23 H          -3.5286  -17.4557   22.4211 H       1  UNL1        0.1235
     24 C          -1.5578  -18.9196   20.7458 C.3     1  UNL1        0.0158
     25 C          -1.8433  -17.5433   21.2696 C.3     1  UNL1        0.0423
     26 C          -2.1288  -16.1671   21.7934 C.3     1  UNL1        0.0158
     27 C          -0.9166  -16.9608   20.2439 C.3     1  UNL1        0.0158
@<TRIPOS>BOND
     1    24    25    1
     2    25    26    1
     3    25    27    1
     4    25    22    1
     5    22    21    1
     6    21     1    1
     7     1     2   ar
     8     2     3   ar
     9     3     8    1
    10     8    10    1
    11    10    11   ar
    12    11    12   ar
    13    12    13   ar
    14    13    14   ar
    15    14    15   ar
    16    15    16   ar
    17    16    17    1
    18    16    18   ar
    19    18    19   ar
    20    19    20   ar
    21     3     4   ar
    22     4     5   ar
    23     5     6   ar
    24     6     7    1
    25     6     1   ar
    26    20    10   ar
    27    20    14   ar
    28    22    23    1
    29     8     9    1
@<TRIPOS>MOLECULE
*****
 27 29 0 0 0
SMALL
GASTEIGER

@<TRIPOS>ATOM
      1 C          -4.4940  -19.1517   21.5161 C.ar    1  UNL1        0.0223
      2 C          -5.7779  -19.0766   22.2882 C.ar    1  UNL1        0.0139
      3 C          -6.9142  -19.9936   21.9449 C.ar    1  UNL1        0.0482
      4 C          -6.7667  -20.9858   20.8296 C.ar    1  UNL1        0.0169
      5 C          -5.4829  -21.0609   20.0575 C.ar    1  UNL1        0.0306
      6 C          -4.3465  -20.1438   20.4008 C.ar    1  UNL1        0.1375
      7 F          -3.0627  -20.2189   19.6287 F       1  UNL1       -0.2045
      8 N          -8.1981  -19.9185   22.7170 N.pl3   1  UNL1       -0.3125
      9 H          -8.6520  -20.7453   22.9990 H       1  UNL1        0.1522
     10 C          -8.7903  -18.5835   23.0594 C.ar    1  UNL1        0.0513
     11 C          -8.4984  -17.9521   24.3883 C.ar    1  UNL1        0.0353
     12 C          -9.0906  -16.6172   24.7306 C.ar    1  UNL1        0.1001
     13 N          -9.9749  -15.9137   23.7440 N.ar    1  UNL1       -0.2437
     14 C         -10.2668  -16.5452   22.4151 C.ar    1  UNL1        0.0833
     15 C         -11.1511  -15.8418   21.4286 C.ar    1  UNL1        0.0305
     16 C         -11.4430  -16.4732   20.0997 C.ar    1  UNL1        0.0592
     17 CL        -12.3273  -15.7698   19.1131 Cl      1  UNL1       -0.0822
     18 C         -10.8507  -17.8082   19.7573 C.ar    1  UNL1        0.0115
     19 C          -9.9665  -18.5116   20.7439 C.ar    1  UNL1        0.0036
     20 C          -9.6746  -17.8801   22.0728 C.ar    1  UNL1        0.0312
     21 C          -3.3577  -18.2347   21.8594 C.3     1  UNL1        0.0979
     22 N          -2.9255  -17.1789   20.8855 N.3     1  UNL1       -0.2958
     23 H          -3.7614  -16.8837   20.3810 H       1  UNL1        0.1235
     24 C          -0.9134  -17.8487   20.9388 C.3     1  UNL1        0.0158
     25 C          -1.8843  -17.4927   19.8523 C.3     1  UNL1        0.0423
     26 C          -2.8553  -17.1367   18.7658 C.3     1  UNL1        0.0158
     27 C          -0.8431  -17.8065   18.8191 C.3     1  UNL1        0.0158
@<TRIPOS>BOND
     1    24    25    1
     2    25    26    1
     3    25    27    1
     4    25    22    1
     5    22    21    1
     6    21     1    1
     7     1     2   ar
     8     2     3   ar
     9     3     8    1
    10     8    10    1
    11    10    11   ar
    12    11    12   ar
    13    12    13   ar
    14    13    14   ar
    15    14    15   ar
    16    15    16   ar
    17    16    17    1
    18    16    18   ar
    19    18    19   ar
    20    19    20   ar
    21     3     4   ar
    22     4     5   ar
    23     5     6   ar
    24     6     7    1
    25     6     1   ar
    26    20    10   ar
    27    20    14   ar
    28    22    23    1
    29     8     9    1
@<TRIPOS>MOLECULE
*****
 27 29 0 0 0
SMALL
GASTEIGER

@<TRIPOS>ATOM
      1 C          -3.6113  -19.6176   21.1076 C.ar    1  UNL1        0.0223
      2 C          -4.7830  -19.6713   22.0426 C.ar    1  UNL1        0.0139
      3 C          -6.1681  -19.4209   21.5244 C.ar    1  UNL1        0.0482
      4 C          -6.3816  -19.1167   20.0711 C.ar    1  UNL1        0.0169
      5 C          -5.2099  -19.0630   19.1361 C.ar    1  UNL1        0.0306
      6 C          -3.8247  -19.3134   19.6544 C.ar    1  UNL1        0.1375
      7 F          -2.6530  -19.2597   18.7194 F       1  UNL1       -0.2045
      8 N          -7.3398  -19.4746   22.4594 N.pl3   1  UNL1       -0.3125
      9 H          -7.6672  -20.3426   22.7890 H       1  UNL1        0.1522
     10 C          -8.0128  -18.2057   22.8921 C.ar    1  UNL1        0.0513
     11 C          -7.1959  -16.9755   23.1553 C.ar    1  UNL1        0.0353
     12 C          -7.8688  -15.7068   23.5880 C.ar    1  UNL1        0.1001
     13 N          -9.3587  -15.6682   23.7576 N.ar    1  UNL1       -0.2437
     14 C         -10.1756  -16.8983   23.4945 C.ar    1  UNL1        0.0833
     15 C         -11.6655  -16.8597   23.6641 C.ar    1  UNL1        0.0305
     16 C         -12.4824  -18.0899   23.4009 C.ar    1  UNL1        0.0592
     17 CL        -13.9723  -18.0513   23.5705 Cl      1  UNL1       -0.0822
     18 C         -11.8095  -19.3588   22.9681 C.ar    1  UNL1        0.0115
     19 C         -10.3196  -19.3974   22.7985 C.ar    1  UNL1        0.0036
     20 C          -9.5027  -18.1671   23.0617 C.ar    1  UNL1        0.0312
     21 C          -2.2261  -19.8681   21.6260 C.3     1  UNL1        0.0979
     22 N          -1.2009  -18.7739   21.5855 N.3     1  UNL1       -0.2958
     23 H          -0.5621  -18.9400   22.3631 H       1  UNL1        0.1235
     24 C          -0.9872  -17.0623   20.3507 C.3     1  UNL1        0.0158
     25 C          -1.6307  -17.3397   21.6769 C.3     1  UNL1        0.0423
     26 C          -2.2742  -17.6172   23.0031 C.3     1  UNL1        0.0158
     27 C          -2.0605  -15.9055   21.7684 C.3     1  UNL1        0.0158
@<TRIPOS>BOND
     1    24    25    1
     2    25    26    1
     3    25    27    1
     4    25    22    1
     5    22    21    1
     6    21     1    1
     7     1     2   ar
     8     2     3   ar
     9     3     8    1
    10     8    10    1
    11    10    11   ar
    12    11    12   ar
    13    12    13   ar
    14    13    14   ar
    15    14    15   ar
    16    15    16   ar
    17    16    17    1
    18    16    18   ar
    19    18    19   ar
    20    19    20   ar
    21     3     4   ar
    22     4     5   ar
    23     5     6   ar
    24     6     7    1
    25     6     1   ar
    26    20    10   ar
    27    20    14   ar
    28    22    23    1
    29     8     9    1
@<TRIPOS>MOLECULE
*****
 27 29 0 0 0
SMALL
GASTEIGER

@<TRIPOS>ATOM
      1 C         -11.2131   -6.3708   17.1068 C.ar    1  UNL1        0.0223
      2 C         -11.2170   -4.9189   17.4835 C.ar    1  UNL1        0.0139
      3 C         -10.3510   -4.4335   18.6079 C.ar    1  UNL1        0.0482
      4 C          -9.4811   -5.4000   19.3558 C.ar    1  UNL1        0.0169
      5 C          -9.4773   -6.8520   18.9791 C.ar    1  UNL1        0.0306
      6 C         -10.3434   -7.3373   17.8546 C.ar    1  UNL1        0.1375
      7 F         -10.3396   -8.7893   17.4780 F       1  UNL1       -0.2045
      8 N         -10.3548   -2.9815   18.9845 N.pl3   1  UNL1       -0.3125
      9 H          -9.7712   -2.6594   19.7091 H       1  UNL1        0.1522
     10 C         -11.2477   -2.0204   18.2572 C.ar    1  UNL1        0.0513
     11 C         -10.7150   -1.2329   17.0970 C.ar    1  UNL1        0.0353
     12 C         -11.6079   -0.2718   16.3698 C.ar    1  UNL1        0.1001
     13 N         -13.0335   -0.0982   16.8027 N.ar    1  UNL1       -0.2437
     14 C         -13.5663   -0.8857   17.9629 C.ar    1  UNL1        0.0833
     15 C         -14.9919   -0.7120   18.3958 C.ar    1  UNL1        0.0305
     16 C         -15.5246   -1.4995   19.5560 C.ar    1  UNL1        0.0592
     17 CL        -16.9502   -1.3259   19.9889 Cl      1  UNL1       -0.0822
     18 C         -14.6317   -2.4607   20.2833 C.ar    1  UNL1        0.0115
     19 C         -13.2060   -2.6343   19.8504 C.ar    1  UNL1        0.0036
     20 C         -12.6733   -1.8468   18.6901 C.ar    1  UNL1        0.0312
     21 C         -12.0792   -6.8562   15.9823 C.3     1  UNL1        0.0979
     22 N         -13.1918   -7.8241   16.2565 N.3     1  UNL1       -0.2958
     23 H         -13.5290   -8.1495   15.3506 H       1  UNL1        0.1235
     24 C         -14.1013   -8.4153   18.0795 C.3     1  UNL1        0.0158
     25 C         -14.3963   -7.3816   17.0333 C.3     1  UNL1        0.0423
     26 C         -14.6913   -6.3480   15.9872 C.3     1  UNL1        0.0158
     27 C         -15.6008   -6.9392   17.8102 C.3     1  UNL1        0.0158
@<TRIPOS>BOND
     1    24    25    1
     2    25    26    1
     3    25    27    1
     4    25    22    1
     5    22    21    1
     6    21     1    1
     7     1     2   ar
     8     2     3   ar
     9     3     8    1
    10     8    10    1
    11    10    11   ar
    12    11    12   ar
    13    12    13   ar
    14    13    14   ar
    15    14    15   ar
    16    15    16   ar
    17    16    17    1
    18    16    18   ar
    19    18    19   ar
    20    19    20   ar
    21     3     4   ar
    22     4     5   ar
    23     5     6   ar
    24     6     7    1
    25     6     1   ar
    26    20    10   ar
    27    20    14   ar
    28    22    23    1
    29     8     9    1
