@<TRIPOS>MOLECULE
*****
 22 24 0 0 0
SMALL
GASTEIGER

@<TRIPOS>ATOM
      1 C          -8.6162  -17.0425   22.5380 C.ar    1  UNL1       -0.0158
      2 C          -8.0042  -18.3653   22.1834 C.ar    1  UNL1        0.0050
      3 S          -9.1073  -19.2852   21.7509 S.2     1  UNL1       -0.0915
      4 C         -10.4010  -18.5310   21.8383 C.ar    1  UNL1        0.0288
      5 C         -11.8161  -18.9273   21.5378 C.ar    1  UNL1        0.0065
      6 C         -12.9276  -17.9374   21.7237 C.ar    1  UNL1        0.0005
      7 C         -12.6241  -16.5514   22.2102 C.ar    1  UNL1        0.0000
      8 C         -11.2090  -16.1551   22.5107 C.ar    1  UNL1        0.0002
      9 C         -10.0974  -17.1449   22.3248 C.ar    1  UNL1        0.0025
     10 C          -7.5171  -14.7378   22.0580 C.3     1  UNL1        0.0095
     11 C          -7.8767  -15.8302   23.0211 C.3     1  UNL1        0.0463
     12 C          -7.4969  -15.7101   24.4672 C.ar    1  UNL1        0.0007
     13 C          -8.5494  -15.8176   25.5306 C.ar    1  UNL1       -0.0008
     14 C          -8.1696  -15.6976   26.9767 C.ar    1  UNL1        0.0204
     15 C          -6.7372  -15.4699   27.3595 C.ar    1  UNL1        0.0989
     16 N          -5.6847  -15.3624   26.2962 N.ar    1  UNL1       -0.2426
     17 C          -6.0645  -15.4825   24.8501 C.ar    1  UNL1        0.0949
     18 C          -6.5454  -18.7080   22.2495 C.3     1  UNL1        0.0499
     19 C          -5.8227  -19.1529   21.0128 C.3     1  UNL1        0.0774
     20 N          -4.3693  -18.8269   20.8352 N.3     1  UNL1       -0.2700
     21 C          -3.7622  -18.8300   19.4635 C.3     1  UNL1        0.0897
     22 C          -3.5232  -18.4979   22.0292 C.3     1  UNL1        0.0897
@<TRIPOS>BOND
     1    10    11    1
     2    11    12    1
     3    12    13   ar
     4    13    14   ar
     5    14    15   ar
     6    15    16   ar
     7    16    17   ar
     8    11     1    1
     9     1     2   ar
    10     2    18    1
    11    18    19    1
    12    19    20    1
    13    20    21    1
    14    20    22    1
    15     2     3   ar
    16     3     4   ar
    17     4     5   ar
    18     5     6   ar
    19     6     7   ar
    20     7     8   ar
    21     8     9   ar
    22    17    12   ar
    23     9     1   ar
    24     9     4   ar
@<TRIPOS>MOLECULE
*****
 22 24 0 0 0
SMALL
GASTEIGER

@<TRIPOS>ATOM
      1 C          -6.4933  -19.2013   21.1221 C.ar    1  UNL1       -0.0158
      2 C          -6.4358  -18.2548   22.2843 C.ar    1  UNL1        0.0050
      3 S          -7.7891  -17.6261   22.4374 S.2     1  UNL1       -0.0915
      4 C          -8.6829  -18.1841   21.3698 C.ar    1  UNL1        0.0288
      5 C         -10.1226  -17.9314   21.0328 C.ar    1  UNL1        0.0065
      6 C         -10.7613  -18.6524   19.8830 C.ar    1  UNL1        0.0005
      7 C          -9.9605  -19.6259   19.0701 C.ar    1  UNL1        0.0000
      8 C          -8.5208  -19.8786   19.4070 C.ar    1  UNL1        0.0002
      9 C          -7.8821  -19.1576   20.5569 C.ar    1  UNL1        0.0025
     10 C          -5.5783  -21.5005   20.3303 C.3     1  UNL1        0.0095
     11 C          -5.3608  -20.0437   20.6142 C.3     1  UNL1        0.0463
     12 C          -4.0109  -19.4294   20.3901 C.ar    1  UNL1        0.0007
     13 C          -3.8207  -18.4120   19.3044 C.ar    1  UNL1       -0.0008
     14 C          -2.4708  -17.7976   19.0803 C.ar    1  UNL1        0.0204
     15 C          -1.3110  -18.2007   19.9419 C.ar    1  UNL1        0.0989
     16 N          -1.5012  -19.2181   21.0276 N.ar    1  UNL1       -0.2426
     17 C          -2.8511  -19.8324   21.2517 C.ar    1  UNL1        0.0949
     18 C          -5.2358  -17.9844   23.1427 C.3     1  UNL1        0.0499
     19 C          -4.8554  -16.5724   23.4767 C.3     1  UNL1        0.0774
     20 N          -5.5254  -15.8649   24.6171 N.3     1  UNL1       -0.2700
     21 C          -6.7240  -14.9997   24.3626 C.3     1  UNL1        0.0897
     22 C          -4.9968  -16.0226   26.0120 C.3     1  UNL1        0.0897
@<TRIPOS>BOND
     1    10    11    1
     2    11    12    1
     3    12    13   ar
     4    13    14   ar
     5    14    15   ar
     6    15    16   ar
     7    16    17   ar
     8    11     1    1
     9     1     2   ar
    10     2    18    1
    11    18    19    1
    12    19    20    1
    13    20    21    1
    14    20    22    1
    15     2     3   ar
    16     3     4   ar
    17     4     5   ar
    18     5     6   ar
    19     6     7   ar
    20     7     8   ar
    21     8     9   ar
    22    17    12   ar
    23     9     1   ar
    24     9     4   ar
@<TRIPOS>MOLECULE
*****
 22 24 0 0 0
SMALL
GASTEIGER

@<TRIPOS>ATOM
      1 C          -6.3569  -18.7298   21.5634 C.ar    1  UNL1       -0.0158
      2 C          -7.8153  -18.5600   21.2566 C.ar    1  UNL1        0.0050
      3 S          -8.3469  -17.4596   22.1264 S.2     1  UNL1       -0.0915
      4 C          -7.2171  -16.9494   22.9708 C.ar    1  UNL1        0.0288
      5 C          -7.1493  -15.8714   24.0116 C.ar    1  UNL1        0.0065
      6 C          -5.8516  -15.5784   24.7045 C.ar    1  UNL1        0.0005
      7 C          -4.6217  -16.3634   24.3565 C.ar    1  UNL1        0.0000
      8 C          -4.6895  -17.4414   23.3158 C.ar    1  UNL1        0.0002
      9 C          -5.9872  -17.7344   22.6229 C.ar    1  UNL1        0.0025
     10 C          -5.9046  -21.1158   20.6400 C.3     1  UNL1        0.0095
     11 C          -5.4308  -19.7210   20.9233 C.3     1  UNL1        0.0463
     12 C          -4.0309  -19.3176   20.5663 C.ar    1  UNL1        0.0007
     13 C          -3.7860  -18.4199   19.3897 C.ar    1  UNL1       -0.0008
     14 C          -2.3861  -18.0165   19.0327 C.ar    1  UNL1        0.0204
     15 C          -1.2311  -18.5106   19.8523 C.ar    1  UNL1        0.0989
     16 N          -1.4760  -19.4082   21.0289 N.ar    1  UNL1       -0.2426
     17 C          -2.8759  -19.8117   21.3859 C.ar    1  UNL1        0.0949
     18 C          -8.6037  -19.3516   20.2556 C.3     1  UNL1        0.0499
     19 C         -10.0179  -18.9643   19.9393 C.3     1  UNL1        0.0774
     20 N         -11.0743  -19.0501   21.0007 N.3     1  UNL1       -0.2700
     21 C         -11.0430  -20.1670   22.0015 C.3     1  UNL1        0.0897
     22 C         -12.1620  -18.0189   21.0614 C.3     1  UNL1        0.0897
@<TRIPOS>BOND
     1    10    11    1
     2    11    12    1
     3    12    13   ar
     4    13    14   ar
     5    14    15   ar
     6    15    16   ar
     7    16    17   ar
     8    11     1    1
     9     1     2   ar
    10     2    18    1
    11    18    19    1
    12    19    20    1
    13    20    21    1
    14    20    22    1
    15     2     3   ar
    16     3     4   ar
    17     4     5   ar
    18     5     6   ar
    19     6     7   ar
    20     7     8   ar
    21     8     9   ar
    22    17    12   ar
    23     9     1   ar
    24     9     4   ar
@<TRIPOS>MOLECULE
*****
 22 24 0 0 0
SMALL
GASTEIGER

@<TRIPOS>ATOM
      1 C          -8.0289  -18.5368   22.5015 C.ar    1  UNL1       -0.0158
      2 C          -7.4410  -17.3526   23.2099 C.ar    1  UNL1        0.0050
      3 S          -5.9678  -17.3288   22.9288 S.2     1  UNL1       -0.0915
      4 C          -5.6452  -18.4982   22.0466 C.ar    1  UNL1        0.0288
      5 C          -4.3561  -18.9797   21.4497 C.ar    1  UNL1        0.0065
      6 C          -4.3409  -20.2079   20.5886 C.ar    1  UNL1        0.0005
      7 C          -5.6148  -20.9545   20.3246 C.ar    1  UNL1        0.0000
      8 C          -6.9039  -20.4730   20.9215 C.ar    1  UNL1        0.0002
      9 C          -6.9191  -19.2449   21.7825 C.ar    1  UNL1        0.0025
     10 C          -9.8891  -20.2215   23.1737 C.3     1  UNL1        0.0095
     11 C          -9.4732  -18.9419   22.5104 C.3     1  UNL1        0.0463
     12 C         -10.5014  -18.0676   21.8562 C.ar    1  UNL1        0.0007
     13 C         -11.3917  -17.1998   22.6955 C.ar    1  UNL1       -0.0008
     14 C         -12.4201  -16.3255   22.0413 C.ar    1  UNL1        0.0204
     15 C         -12.5582  -16.3189   20.5476 C.ar    1  UNL1        0.0989
     16 N         -11.6679  -17.1867   19.7083 N.ar    1  UNL1       -0.2426
     17 C         -10.6396  -18.0610   20.3626 C.ar    1  UNL1        0.0949
     18 C          -8.1940  -16.3655   24.0517 C.3     1  UNL1        0.0499
     19 C          -7.4739  -15.2047   24.6712 C.3     1  UNL1        0.0774
     20 N          -6.8060  -15.3617   26.0051 N.3     1  UNL1       -0.2700
     21 C          -5.3089  -15.3610   26.0990 C.3     1  UNL1        0.0897
     22 C          -7.6352  -15.5194   27.2451 C.3     1  UNL1        0.0897
@<TRIPOS>BOND
     1    10    11    1
     2    11    12    1
     3    12    13   ar
     4    13    14   ar
     5    14    15   ar
     6    15    16   ar
     7    16    17   ar
     8    11     1    1
     9     1     2   ar
    10     2    18    1
    11    18    19    1
    12    19    20    1
    13    20    21    1
    14    20    22    1
    15     2     3   ar
    16     3     4   ar
    17     4     5   ar
    18     5     6   ar
    19     6     7   ar
    20     7     8   ar
    21     8     9   ar
    22    17    12   ar
    23     9     1   ar
    24     9     4   ar
@<TRIPOS>MOLECULE
*****
 22 24 0 0 0
SMALL
GASTEIGER

@<TRIPOS>ATOM
      1 C          -6.7212  -17.7501   22.7065 C.ar    1  UNL1       -0.0158
      2 C          -7.4224  -18.9984   22.2594 C.ar    1  UNL1        0.0050
      3 S          -6.3785  -19.9982   21.8586 S.2     1  UNL1       -0.0915
      4 C          -5.0321  -19.3678   22.0580 C.ar    1  UNL1        0.0288
      5 C          -3.6406  -19.8795   21.8302 C.ar    1  UNL1        0.0065
      6 C          -2.4609  -19.0017   22.1263 C.ar    1  UNL1        0.0005
      7 C          -2.6727  -17.6122   22.6503 C.ar    1  UNL1        0.0000
      8 C          -4.0642  -17.1006   22.8782 C.ar    1  UNL1        0.0002
      9 C          -5.2439  -17.9784   22.5821 C.ar    1  UNL1        0.0025
     10 C          -8.1348  -15.6225   22.2320 C.3     1  UNL1        0.0095
     11 C          -7.3813  -16.4939   23.1927 C.3     1  UNL1        0.0463
     12 C          -7.2879  -16.1092   24.6394 C.ar    1  UNL1        0.0007
     13 C          -8.4324  -16.3936   25.5665 C.ar    1  UNL1       -0.0008
     14 C          -8.3391  -16.0089   27.0134 C.ar    1  UNL1        0.0204
     15 C          -7.1013  -15.3397   27.5331 C.ar    1  UNL1        0.0989
     16 N          -5.9569  -15.0553   26.6061 N.ar    1  UNL1       -0.2426
     17 C          -6.0502  -15.4400   25.1593 C.ar    1  UNL1        0.0949
     18 C          -8.9069  -19.2098   22.2200 C.3     1  UNL1        0.0499
     19 C          -9.6927  -18.7885   21.0138 C.3     1  UNL1        0.0774
     20 N         -10.8007  -17.7869   21.1527 N.3     1  UNL1       -0.2700
     21 C         -11.3723  -17.4837   22.5060 C.3     1  UNL1        0.0897
     22 C         -11.3369  -17.0884   19.9384 C.3     1  UNL1        0.0897
@<TRIPOS>BOND
     1    10    11    1
     2    11    12    1
     3    12    13   ar
     4    13    14   ar
     5    14    15   ar
     6    15    16   ar
     7    16    17   ar
     8    11     1    1
     9     1     2   ar
    10     2    18    1
    11    18    19    1
    12    19    20    1
    13    20    21    1
    14    20    22    1
    15     2     3   ar
    16     3     4   ar
    17     4     5   ar
    18     5     6   ar
    19     6     7   ar
    20     7     8   ar
    21     8     9   ar
    22    17    12   ar
    23     9     1   ar
    24     9     4   ar
@<TRIPOS>MOLECULE
*****
 22 24 0 0 0
SMALL
GASTEIGER

@<TRIPOS>ATOM
      1 C          -8.3491  -17.3061   23.9640 C.ar    1  UNL1       -0.0158
      2 C          -7.2003  -17.3125   22.9995 C.ar    1  UNL1        0.0050
      3 S          -6.0894  -16.5006   23.5965 S.2     1  UNL1       -0.0915
      4 C          -6.5515  -15.9923   24.9300 C.ar    1  UNL1        0.0288
      5 C          -5.8810  -15.1405   25.9667 C.ar    1  UNL1        0.0065
      6 C          -6.6072  -14.7866   27.2306 C.ar    1  UNL1        0.0005
      7 C          -8.0038  -15.2845   27.4577 C.ar    1  UNL1        0.0000
      8 C          -8.6742  -16.1363   26.4210 C.ar    1  UNL1        0.0002
      9 C          -7.9481  -16.4902   25.1571 C.ar    1  UNL1        0.0025
     10 C         -10.0246  -19.1828   24.6130 C.3     1  UNL1        0.0095
     11 C          -9.6674  -17.9948   23.7696 C.3     1  UNL1        0.0463
     12 C         -10.6286  -17.4955   22.7320 C.ar    1  UNL1        0.0007
     13 C         -11.9463  -18.1851   22.5366 C.ar    1  UNL1       -0.0008
     14 C         -12.9076  -17.6859   21.4989 C.ar    1  UNL1        0.0204
     15 C         -12.5511  -16.4970   20.6566 C.ar    1  UNL1        0.0989
     16 N         -11.2334  -15.8075   20.8519 N.ar    1  UNL1       -0.2426
     17 C         -10.2721  -16.3067   21.8896 C.ar    1  UNL1        0.0949
     18 C          -7.1682  -18.0087   21.6712 C.3     1  UNL1        0.0499
     19 C          -6.4081  -19.2924   21.5154 C.3     1  UNL1        0.0774
     20 N          -4.9371  -19.2624   21.2235 N.3     1  UNL1       -0.2700
     21 C          -3.9474  -19.3931   22.3431 C.3     1  UNL1        0.0897
     22 C          -4.4557  -19.1016   19.8120 C.3     1  UNL1        0.0897
@<TRIPOS>BOND
     1    10    11    1
     2    11    12    1
     3    12    13   ar
     4    13    14   ar
     5    14    15   ar
     6    15    16   ar
     7    16    17   ar
     8    11     1    1
     9     1     2   ar
    10     2    18    1
    11    18    19    1
    12    19    20    1
    13    20    21    1
    14    20    22    1
    15     2     3   ar
    16     3     4   ar
    17     4     5   ar
    18     5     6   ar
    19     6     7   ar
    20     7     8   ar
    21     8     9   ar
    22    17    12   ar
    23     9     1   ar
    24     9     4   ar
@<TRIPOS>MOLECULE
*****
 22 24 0 0 0
SMALL
GASTEIGER

@<TRIPOS>ATOM
      1 C          -7.4535  -18.3456   21.9462 C.ar    1  UNL1       -0.0158
      2 C          -7.3932  -17.0471   22.6947 C.ar    1  UNL1        0.0050
      3 S          -8.6357  -16.2698   22.3752 S.2     1  UNL1       -0.0915
      4 C          -9.4639  -17.0879   21.4293 C.ar    1  UNL1        0.0288
      5 C         -10.7889  -16.8304   20.7752 C.ar    1  UNL1        0.0065
      6 C         -11.3833  -17.8558   19.8559 C.ar    1  UNL1        0.0005
      7 C         -10.6527  -19.1387   19.5907 C.ar    1  UNL1        0.0000
      8 C          -9.3277  -19.3962   20.2448 C.ar    1  UNL1        0.0002
      9 C          -8.7333  -18.3708   21.1641 C.ar    1  UNL1        0.0025
     10 C          -6.7481  -20.7699   22.5588 C.3     1  UNL1        0.0095
     11 C          -6.4162  -19.4287   21.9747 C.3     1  UNL1        0.0463
     12 C          -5.0470  -19.1707   21.4192 C.ar    1  UNL1        0.0007
     13 C          -3.8671  -19.0855   22.3416 C.ar    1  UNL1       -0.0008
     14 C          -2.4979  -18.8276   21.7862 C.ar    1  UNL1        0.0204
     15 C          -2.3084  -18.6548   20.3082 C.ar    1  UNL1        0.0989
     16 N          -3.4882  -18.7400   19.3858 N.ar    1  UNL1       -0.2426
     17 C          -4.8574  -18.9980   19.9413 C.ar    1  UNL1        0.0949
     18 C          -6.2849  -16.6037   23.6031 C.3     1  UNL1        0.0499
     19 C          -6.4525  -15.3743   24.4459 C.3     1  UNL1        0.0774
     20 N          -7.1042  -15.4717   25.7934 N.3     1  UNL1       -0.2700
     21 C          -6.2602  -15.5401   27.0316 C.3     1  UNL1        0.0897
     22 C          -8.5999  -15.5009   25.9028 C.3     1  UNL1        0.0897
@<TRIPOS>BOND
     1    10    11    1
     2    11    12    1
     3    12    13   ar
     4    13    14   ar
     5    14    15   ar
     6    15    16   ar
     7    16    17   ar
     8    11     1    1
     9     1     2   ar
    10     2    18    1
    11    18    19    1
    12    19    20    1
    13    20    21    1
    14    20    22    1
    15     2     3   ar
    16     3     4   ar
    17     4     5   ar
    18     5     6   ar
    19     6     7   ar
    20     7     8   ar
    21     8     9   ar
    22    17    12   ar
    23     9     1   ar
    24     9     4   ar
@<TRIPOS>MOLECULE
*****
 22 24 0 0 0
SMALL
GASTEIGER

@<TRIPOS>ATOM
      1 C          -6.9679  -18.6171   21.8461 C.ar    1  UNL1       -0.0158
      2 C          -6.6400  -17.5266   22.8224 C.ar    1  UNL1        0.0050
      3 S          -5.1484  -17.4702   22.9704 S.2     1  UNL1       -0.0915
      4 C          -4.5545  -18.5258   22.0856 C.ar    1  UNL1        0.0288
      5 C          -3.1350  -18.9332   21.8229 C.ar    1  UNL1        0.0065
      6 C          -2.8401  -20.0494   20.8653 C.ar    1  UNL1        0.0005
      7 C          -3.9647  -20.7582   20.1703 C.ar    1  UNL1        0.0000
      8 C          -5.3841  -20.3509   20.4331 C.ar    1  UNL1        0.0002
      9 C          -5.6791  -19.2347   21.3907 C.ar    1  UNL1        0.0025
     10 C          -8.5970  -19.3651   19.9654 C.3     1  UNL1        0.0095
     11 C          -8.3433  -19.0194   21.4029 C.3     1  UNL1        0.0463
     12 C          -9.4651  -19.0761   22.3970 C.ar    1  UNL1        0.0007
     13 C          -9.3435  -19.9411   23.6165 C.ar    1  UNL1       -0.0008
     14 C         -10.4653  -19.9978   24.6107 C.ar    1  UNL1        0.0204
     15 C         -11.7087  -19.1896   24.3854 C.ar    1  UNL1        0.0989
     16 N         -11.8302  -18.3246   23.1660 N.ar    1  UNL1       -0.2426
     17 C         -10.7085  -18.2679   22.1718 C.ar    1  UNL1        0.0949
     18 C          -7.6298  -16.6470   23.5270 C.3     1  UNL1        0.0499
     19 C          -7.1683  -15.3898   24.2026 C.3     1  UNL1        0.0774
     20 N          -6.8513  -15.3991   25.6687 N.3     1  UNL1       -0.2700
     21 C          -7.9543  -15.5538   26.6735 C.3     1  UNL1        0.0897
     22 C          -5.4315  -15.2537   26.1300 C.3     1  UNL1        0.0897
@<TRIPOS>BOND
     1    10    11    1
     2    11    12    1
     3    12    13   ar
     4    13    14   ar
     5    14    15   ar
     6    15    16   ar
     7    16    17   ar
     8    11     1    1
     9     1     2   ar
    10     2    18    1
    11    18    19    1
    12    19    20    1
    13    20    21    1
    14    20    22    1
    15     2     3   ar
    16     3     4   ar
    17     4     5   ar
    18     5     6   ar
    19     6     7   ar
    20     7     8   ar
    21     8     9   ar
    22    17    12   ar
    23     9     1   ar
    24     9     4   ar
@<TRIPOS>MOLECULE
*****
 22 24 0 0 0
SMALL
GASTEIGER

@<TRIPOS>ATOM
      1 C          -5.9609  -18.3506   22.2534 C.ar    1  UNL1       -0.0158
      2 C          -4.4956  -18.6209   22.4258 C.ar    1  UNL1        0.0050
      3 S          -3.9553  -17.6322   23.4161 S.2     1  UNL1       -0.0915
      4 C          -5.0868  -16.7510   23.8558 C.ar    1  UNL1        0.0288
      5 C          -5.1484  -15.6017   24.8176 C.ar    1  UNL1        0.0065
      6 C          -6.4497  -14.8963   25.0608 C.ar    1  UNL1        0.0005
      7 C          -7.6892  -15.3403   24.3422 C.ar    1  UNL1        0.0000
      8 C          -7.6275  -16.4896   23.3804 C.ar    1  UNL1        0.0002
      9 C          -6.3263  -17.1950   23.1371 C.ar    1  UNL1        0.0025
     10 C          -6.4159  -19.6119   20.0279 C.3     1  UNL1        0.0095
     11 C          -6.8966  -19.1038   21.3549 C.3     1  UNL1        0.0463
     12 C          -8.3130  -19.3489   21.7834 C.ar    1  UNL1        0.0007
     13 C          -8.5943  -20.0278   23.0911 C.ar    1  UNL1       -0.0008
     14 C         -10.0107  -20.2729   23.5196 C.ar    1  UNL1        0.0204
     15 C         -11.1460  -19.8392   22.6403 C.ar    1  UNL1        0.0989
     16 N         -10.8648  -19.1604   21.3326 N.ar    1  UNL1       -0.2426
     17 C          -9.4483  -18.9152   20.9041 C.ar    1  UNL1        0.0949
     18 C          -3.7086  -19.6917   21.7300 C.3     1  UNL1        0.0499
     19 C          -2.2767  -19.4472   21.3563 C.3     1  UNL1        0.0774
     20 N          -1.9467  -18.5787   20.1787 N.3     1  UNL1       -0.2700
     21 C          -3.0109  -18.2342   19.1792 C.3     1  UNL1        0.0897
     22 C          -0.5526  -18.0546   20.0006 C.3     1  UNL1        0.0897
@<TRIPOS>BOND
     1    10    11    1
     2    11    12    1
     3    12    13   ar
     4    13    14   ar
     5    14    15   ar
     6    15    16   ar
     7    16    17   ar
     8    11     1    1
     9     1     2   ar
    10     2    18    1
    11    18    19    1
    12    19    20    1
    13    20    21    1
    14    20    22    1
    15     2     3   ar
    16     3     4   ar
    17     4     5   ar
    18     5     6   ar
    19     6     7   ar
    20     7     8   ar
    21     8     9   ar
    22    17    12   ar
    23     9     1   ar
    24     9     4   ar
