@<TRIPOS>MOLECULE
*****
 30 33 0 0 0
SMALL
GASTEIGER

@<TRIPOS>ATOM
      1 N           5.5260   -2.8726   20.7901 N.am    1  UNL1       -0.2665
      2 C           4.4956   -3.5290   19.9199 C.2     1  UNL1        0.2474
      3 O           4.0373   -4.9248   20.2227 O.2     1  UNL1       -0.2729
      4 H           5.8268   -1.9564   20.5914 H       1  UNL1        0.1564
      5 C           7.2425   -5.0907   24.3092 C.ar    1  UNL1        0.1045
      6 C           6.2387   -3.9979   24.5285 C.ar    1  UNL1        0.0239
      7 C           5.6666   -3.2585   23.3555 C.ar    1  UNL1        0.0379
      8 C           6.0982   -3.6119   21.9632 C.ar    1  UNL1        0.1560
      9 N           7.1020   -4.7048   21.7437 N.ar    1  UNL1       -0.1328
     10 N           7.6742   -5.4442   22.9168 N.ar    1  UNL1       -0.1467
     11 C           9.5311   -8.0482   29.0013 C.3     1  UNL1        0.0521
     12 C           8.9589   -7.3088   27.8282 C.ar    1  UNL1        0.0594
     13 C           8.3788   -8.0694   26.6727 C.ar    1  UNL1        0.0148
     14 C           7.8067   -7.3300   25.4997 C.ar    1  UNL1        0.0043
     15 C           7.8146   -5.8301   25.4822 C.ar    1  UNL1        0.0385
     16 C           8.3947   -5.0696   26.6377 C.ar    1  UNL1        0.1000
     17 N           8.9669   -5.8090   27.8107 N.ar    1  UNL1       -0.2481
     18 C           3.9235   -2.7896   18.7469 C.3     1  UNL1        0.1775
     19 N           3.5782   -1.3353   18.8729 N.pl3   1  UNL1       -0.2964
     20 C           2.3139   -0.9219   19.5662 C.3     1  UNL1        0.0917
     21 C           1.9687    0.5323   19.6922 C.3     1  UNL1        0.0263
     22 C           2.8878    1.5733   19.1250 C.3     1  UNL1        0.0342
     23 C           4.1521    1.1599   18.4317 C.2     1  UNL1        0.0496
     24 C           4.4973   -0.2943   18.3057 C.2     1  UNL1        0.1032
     25 C           5.8029   -0.3992   17.5745 C.2     1  UNL1        0.2683
     26 O           6.5207   -1.6704   17.2298 O.2     1  UNL1       -0.2681
     27 N           6.2645    0.9903   17.2486 N.am    1  UNL1       -0.2203
     28 C           7.5251    1.3526   16.5208 C.3     1  UNL1        0.1235
     29 C           5.2443    1.9538   17.7784 C.2     1  UNL1        0.2524
     30 O           5.3055    3.4489   17.6733 O.2     1  UNL1       -0.2698
@<TRIPOS>BOND
     1    11    12    1
     2    12    13   ar
     3    13    14   ar
     4    14    15   ar
     5    15     5    1
     6     5     6   ar
     7     6     7   ar
     8     7     8   ar
     9     8     1    1
    10     1     2   am
    11     2     3    2
    12     2    18    1
    13    18    19    1
    14    19    20    1
    15    20    21    1
    16    21    22    1
    17    22    23    1
    18    23    24    2
    19    24    25    1
    20    25    26    2
    21    25    27   am
    22    27    28    1
    23    27    29   am
    24    29    30    2
    25     8     9   ar
    26     9    10   ar
    27    15    16   ar
    28    16    17   ar
    29    17    12   ar
    30    10     5   ar
    31    24    19    1
    32    29    23    1
    33     1     4    1
@<TRIPOS>MOLECULE
*****
 30 33 0 0 0
SMALL
GASTEIGER

@<TRIPOS>ATOM
      1 N          -1.9227    4.3351   20.4506 N.am    1  UNL1       -0.2665
      2 C          -3.3435    3.9839   20.7788 C.2     1  UNL1        0.2474
      3 O          -3.7761    2.5477   20.7968 O.2     1  UNL1       -0.2729
      4 H          -1.6388    5.2777   20.4388 H       1  UNL1        0.1564
      5 C           1.0424    1.0804   19.5205 C.ar    1  UNL1        0.1045
      6 C           0.7263    2.1238   18.4903 C.ar    1  UNL1        0.0239
      7 C          -0.2621    3.2087   18.8004 C.ar    1  UNL1        0.0379
      8 C          -0.9343    3.2502   20.1406 C.ar    1  UNL1        0.1560
      9 N          -0.6182    2.2068   21.1709 N.ar    1  UNL1       -0.1328
     10 N           0.3701    1.1219   20.8608 N.ar    1  UNL1       -0.1467
     11 C           4.9958   -3.2593   18.2803 C.3     1  UNL1        0.0521
     12 C           4.0074   -2.1743   18.5904 C.ar    1  UNL1        0.0594
     13 C           3.1789   -2.2489   19.8386 C.ar    1  UNL1        0.0148
     14 C           2.1906   -1.1640   20.1487 C.ar    1  UNL1        0.0043
     15 C           2.0307   -0.0045   19.2105 C.ar    1  UNL1        0.0385
     16 C           2.8592    0.0700   17.9623 C.ar    1  UNL1        0.1000
     17 N           3.8476   -1.0149   17.6522 N.ar    1  UNL1       -0.2481
     18 C          -4.3319    5.0688   21.0888 C.3     1  UNL1        0.1775
     19 N          -5.2359    4.9421   22.2791 N.pl3   1  UNL1       -0.2964
     20 C          -6.6954    4.6554   22.0854 C.3     1  UNL1        0.0917
     21 C          -7.5992    4.5287   23.2757 C.3     1  UNL1        0.0263
     22 C          -7.0436    4.6887   24.6598 C.3     1  UNL1        0.0342
     23 C          -5.5841    4.9754   24.8535 C.2     1  UNL1        0.0496
     24 C          -4.6802    5.1021   23.6632 C.2     1  UNL1        0.1032
     25 C          -3.2943    5.3865   24.1618 C.2     1  UNL1        0.2683
     26 O          -2.0751    5.5867   23.3112 O.2     1  UNL1       -0.2681
     27 N          -3.3417    5.4356   25.6602 N.am    1  UNL1       -0.2203
     28 C          -2.1783    5.6935   26.5712 C.3     1  UNL1        0.1235
     29 C          -4.7569    5.1815   26.0877 C.2     1  UNL1        0.2524
     30 O          -5.2571    5.1406   27.5013 O.2     1  UNL1       -0.2698
@<TRIPOS>BOND
     1    11    12    1
     2    12    13   ar
     3    13    14   ar
     4    14    15   ar
     5    15     5    1
     6     5     6   ar
     7     6     7   ar
     8     7     8   ar
     9     8     1    1
    10     1     2   am
    11     2     3    2
    12     2    18    1
    13    18    19    1
    14    19    20    1
    15    20    21    1
    16    21    22    1
    17    22    23    1
    18    23    24    2
    19    24    25    1
    20    25    26    2
    21    25    27   am
    22    27    28    1
    23    27    29   am
    24    29    30    2
    25     8     9   ar
    26     9    10   ar
    27    15    16   ar
    28    16    17   ar
    29    17    12   ar
    30    10     5   ar
    31    24    19    1
    32    29    23    1
    33     1     4    1
@<TRIPOS>MOLECULE
*****
 30 33 0 0 0
SMALL
GASTEIGER

@<TRIPOS>ATOM
      1 N           5.3547   -2.8842   20.9978 N.am    1  UNL1       -0.2665
      2 C           4.3495   -3.6055   20.1497 C.2     1  UNL1        0.2474
      3 O           3.9413   -5.0062   20.4983 O.2     1  UNL1       -0.2729
      4 H           5.6225   -1.9649   20.7690 H       1  UNL1        0.1564
      5 C           7.1460   -4.9222   24.5877 C.ar    1  UNL1        0.1045
      6 C           6.1622   -3.8052   24.7726 C.ar    1  UNL1        0.0239
      7 C           5.5650   -3.1258   23.5760 C.ar    1  UNL1        0.0379
      8 C           5.9518   -3.5635   22.1944 C.ar    1  UNL1        0.1560
      9 N           6.9357   -4.6806   22.0094 N.ar    1  UNL1       -0.1328
     10 N           7.5328   -5.3599   23.2061 N.ar    1  UNL1       -0.1467
     11 C           9.5345   -7.6395   29.3743 C.3     1  UNL1        0.0521
     12 C           8.9374   -6.9602   28.1776 C.ar    1  UNL1        0.0594
     13 C           8.2312   -7.7694   27.1305 C.ar    1  UNL1        0.0148
     14 C           7.6341   -7.0901   25.9338 C.ar    1  UNL1        0.0043
     15 C           7.7431   -5.6015   25.7844 C.ar    1  UNL1        0.0385
     16 C           8.4493   -4.7923   26.8315 C.ar    1  UNL1        0.1000
     17 N           9.0464   -5.4717   28.0281 N.ar    1  UNL1       -0.2481
     18 C           3.7524   -2.9262   18.9531 C.3     1  UNL1        0.1775
     19 N           4.3047   -1.6133   18.4827 N.pl3   1  UNL1       -0.2964
     20 C           5.6290   -1.5653   17.7798 C.3     1  UNL1        0.0917
     21 C           6.1813   -0.2525   17.3094 C.3     1  UNL1        0.0263
     22 C           5.4094    1.0125   17.5419 C.3     1  UNL1        0.0342
     23 C           4.0851    0.9646   18.2448 C.2     1  UNL1        0.0496
     24 C           3.5328   -0.3483   18.7152 C.2     1  UNL1        0.1032
     25 C           2.2111   -0.0858   19.3742 C.2     1  UNL1        0.2683
     26 O           1.3119   -1.1173   19.9885 O.2     1  UNL1       -0.2681
     27 N           1.9466    1.3893   19.3111 N.am    1  UNL1       -0.2203
     28 C           0.7364    2.0920   19.8512 C.3     1  UNL1        0.1235
     29 C           3.1048    2.0385   18.6131 C.2     1  UNL1        0.2524
     30 O           3.2562    3.5042   18.3326 O.2     1  UNL1       -0.2698
@<TRIPOS>BOND
     1    11    12    1
     2    12    13   ar
     3    13    14   ar
     4    14    15   ar
     5    15     5    1
     6     5     6   ar
     7     6     7   ar
     8     7     8   ar
     9     8     1    1
    10     1     2   am
    11     2     3    2
    12     2    18    1
    13    18    19    1
    14    19    20    1
    15    20    21    1
    16    21    22    1
    17    22    23    1
    18    23    24    2
    19    24    25    1
    20    25    26    2
    21    25    27   am
    22    27    28    1
    23    27    29   am
    24    29    30    2
    25     8     9   ar
    26     9    10   ar
    27    15    16   ar
    28    16    17   ar
    29    17    12   ar
    30    10     5   ar
    31    24    19    1
    32    29    23    1
    33     1     4    1
@<TRIPOS>MOLECULE
*****
 30 33 0 0 0
SMALL
GASTEIGER

@<TRIPOS>ATOM
      1 N          -2.2705    4.2303   19.9837 N.am    1  UNL1       -0.2665
      2 C          -1.8736    5.6066   20.4289 C.2     1  UNL1        0.2474
      3 O          -0.4276    5.9327   20.6589 O.2     1  UNL1       -0.2729
      4 H          -3.2195    4.0163   19.8327 H       1  UNL1        0.1564
      5 C           0.8767    1.0793   19.3383 C.ar    1  UNL1        0.1045
      6 C           0.6986    2.1784   18.3332 C.ar    1  UNL1        0.0239
      7 C          -0.3505    3.2287   18.5483 C.ar    1  UNL1        0.0379
      8 C          -1.2214    3.1800   19.7686 C.ar    1  UNL1        0.1560
      9 N          -1.0433    2.0809   20.7738 N.ar    1  UNL1       -0.1328
     10 N           0.0058    1.0306   20.5587 N.ar    1  UNL1       -0.1467
     11 C           5.0730   -3.1220   18.4778 C.3     1  UNL1        0.0521
     12 C           4.0239   -2.0716   18.6930 C.ar    1  UNL1        0.0594
     13 C           3.1263   -2.1428   19.8927 C.ar    1  UNL1        0.0148
     14 C           2.0772   -1.0925   20.1078 C.ar    1  UNL1        0.0043
     15 C           1.9258    0.0290   19.1232 C.ar    1  UNL1        0.0385
     16 C           2.8234    0.1002   17.9236 C.ar    1  UNL1        0.1000
     17 N           3.8725   -0.9502   17.7084 N.ar    1  UNL1       -0.2481
     18 C          -2.9227    6.6569   20.6440 C.3     1  UNL1        0.1775
     19 N          -4.3757    6.2899   20.5799 N.pl3   1  UNL1       -0.2964
     20 C          -5.1549    6.5292   19.3207 C.3     1  UNL1        0.0917
     21 C          -6.6078    6.1622   19.2567 C.3     1  UNL1        0.0263
     22 C          -7.2816    5.5557   20.4518 C.3     1  UNL1        0.0342
     23 C          -6.5024    5.3164   21.7110 C.2     1  UNL1        0.0496
     24 C          -5.0495    5.6834   21.7750 C.2     1  UNL1        0.1032
     25 C          -4.5425    5.3324   23.1425 C.2     1  UNL1        0.2683
     26 O          -3.1418    5.5306   23.6412 O.2     1  UNL1       -0.2681
     27 N          -5.6822    4.7484   23.9235 N.am    1  UNL1       -0.2203
     28 C          -5.6213    4.2601   25.3405 C.3     1  UNL1        0.1235
     29 C          -6.8935    4.7385   23.0388 C.2     1  UNL1        0.2524
     30 O          -8.2565    4.2385   23.4157 O.2     1  UNL1       -0.2698
@<TRIPOS>BOND
     1    11    12    1
     2    12    13   ar
     3    13    14   ar
     4    14    15   ar
     5    15     5    1
     6     5     6   ar
     7     6     7   ar
     8     7     8   ar
     9     8     1    1
    10     1     2   am
    11     2     3    2
    12     2    18    1
    13    18    19    1
    14    19    20    1
    15    20    21    1
    16    21    22    1
    17    22    23    1
    18    23    24    2
    19    24    25    1
    20    25    26    2
    21    25    27   am
    22    27    28    1
    23    27    29   am
    24    29    30    2
    25     8     9   ar
    26     9    10   ar
    27    15    16   ar
    28    16    17   ar
    29    17    12   ar
    30    10     5   ar
    31    24    19    1
    32    29    23    1
    33     1     4    1
@<TRIPOS>MOLECULE
*****
 30 33 0 0 0
SMALL
GASTEIGER

@<TRIPOS>ATOM
      1 N          -0.5998    1.5126   26.3381 N.am    1  UNL1       -0.2665
      2 C          -0.6408    2.9191   25.8186 C.2     1  UNL1        0.2474
      3 O           0.1147    4.0032   26.5286 O.2     1  UNL1       -0.2729
      4 H          -1.0957    0.8011   25.8722 H       1  UNL1        0.1564
      5 C           1.7899    0.5450   30.0264 C.ar    1  UNL1        0.1045
      6 C           2.4489    0.5250   28.6791 C.ar    1  UNL1        0.0239
      7 C           1.6523    0.8475   27.4497 C.ar    1  UNL1        0.0379
      8 C           0.1968    1.1901   27.5676 C.ar    1  UNL1        0.1560
      9 N          -0.4623    1.2101   28.9149 N.ar    1  UNL1       -0.1328
     10 N           0.3342    0.8876   30.1443 N.ar    1  UNL1       -0.1467
     11 C           4.9761   -0.7451   34.9441 C.3     1  UNL1        0.0521
     12 C           4.1796   -0.4226   33.7146 C.ar    1  UNL1        0.0594
     13 C           3.4892    0.9038   33.5948 C.ar    1  UNL1        0.0148
     14 C           2.6927    1.2263   32.3654 C.ar    1  UNL1        0.0043
     15 C           2.5864    0.2225   31.2558 C.ar    1  UNL1        0.0385
     16 C           3.2767   -1.1038   31.3757 C.ar    1  UNL1        0.1000
     17 N           4.0733   -1.4263   32.6051 N.ar    1  UNL1       -0.2481
     18 C          -1.4374    3.2416   24.5892 C.3     1  UNL1        0.1775
     19 N          -2.8800    3.6340   24.7118 N.pl3   1  UNL1       -0.2964
     20 C          -3.4571    3.9590   26.0576 C.3     1  UNL1        0.0917
     21 C          -4.8997    4.3513   26.1801 C.3     1  UNL1        0.0263
     22 C          -5.7652    4.4185   24.9568 C.3     1  UNL1        0.0342
     23 C          -5.1881    4.0935   23.6110 C.2     1  UNL1        0.0496
     24 C          -3.7455    3.7012   23.4885 C.2     1  UNL1        0.1032
     25 C          -3.4580    3.4384   22.0399 C.2     1  UNL1        0.2683
     26 O          -2.1374    3.0193   21.4650 O.2     1  UNL1       -0.2681
     27 N          -4.7229    3.6682   21.2672 N.am    1  UNL1       -0.2203
     28 C          -4.8894    3.5194   19.7838 C.3     1  UNL1        0.1235
     29 C          -5.7921    4.0731   22.2382 C.2     1  UNL1        0.2524
     30 O          -7.2156    4.4002   21.8964 O.2     1  UNL1       -0.2698
@<TRIPOS>BOND
     1    11    12    1
     2    12    13   ar
     3    13    14   ar
     4    14    15   ar
     5    15     5    1
     6     5     6   ar
     7     6     7   ar
     8     7     8   ar
     9     8     1    1
    10     1     2   am
    11     2     3    2
    12     2    18    1
    13    18    19    1
    14    19    20    1
    15    20    21    1
    16    21    22    1
    17    22    23    1
    18    23    24    2
    19    24    25    1
    20    25    26    2
    21    25    27   am
    22    27    28    1
    23    27    29   am
    24    29    30    2
    25     8     9   ar
    26     9    10   ar
    27    15    16   ar
    28    16    17   ar
    29    17    12   ar
    30    10     5   ar
    31    24    19    1
    32    29    23    1
    33     1     4    1
@<TRIPOS>MOLECULE
*****
 30 33 0 0 0
SMALL
GASTEIGER

@<TRIPOS>ATOM
      1 N          -0.0971    1.0658   20.7049 N.am    1  UNL1       -0.2665
      2 C           0.0485    2.5528   20.5718 C.2     1  UNL1        0.2474
      3 O           1.4131    3.1756   20.5703 O.2     1  UNL1       -0.2729
      4 H          -0.9927    0.6571   20.7058 H       1  UNL1        0.1564
      5 C           3.5598   -1.5266   21.0998 C.ar    1  UNL1        0.1045
      6 C           2.8073   -1.4839   19.8030 C.ar    1  UNL1        0.0239
      7 C           1.5883   -0.6198   19.6714 C.ar    1  UNL1        0.0379
      8 C           1.1219    0.2017   20.8365 C.ar    1  UNL1        0.1560
      9 N           1.8745    0.1590   22.1334 N.ar    1  UNL1       -0.1328
     10 N           3.0935   -0.7051   22.2651 N.ar    1  UNL1       -0.1467
     11 C           8.4357   -4.9833   21.6264 C.3     1  UNL1        0.0521
     12 C           7.2168   -4.1191   21.4948 C.ar    1  UNL1        0.0594
     13 C           7.1187   -3.1262   20.3746 C.ar    1  UNL1        0.0148
     14 C           5.8998   -2.2620   20.2430 C.ar    1  UNL1        0.0043
     15 C           4.7788   -2.3908   21.2315 C.ar    1  UNL1        0.0385
     16 C           4.8769   -3.3837   22.3515 C.ar    1  UNL1        0.1000
     17 N           6.0958   -4.2478   22.4831 N.ar    1  UNL1       -0.2481
     18 C          -1.1705    3.4169   20.4401 C.3     1  UNL1        0.1775
     19 N          -2.1376    3.5284   21.5813 N.pl3   1  UNL1       -0.2964
     20 C          -1.6389    3.4759   22.9949 C.3     1  UNL1        0.0917
     21 C          -2.6060    3.5873   24.1360 C.3     1  UNL1        0.0263
     22 C          -4.0719    3.7512   23.8635 C.3     1  UNL1        0.0342
     23 C          -4.5707    3.8037   22.4498 C.2     1  UNL1        0.0496
     24 C          -3.6035    3.6923   21.3087 C.2     1  UNL1        0.1032
     25 C          -4.3834    3.7767   20.0301 C.2     1  UNL1        0.2683
     26 O          -3.8141    3.7093   18.6440 O.2     1  UNL1       -0.2681
     27 N          -5.8326    3.9402   20.3811 N.am    1  UNL1       -0.2203
     28 C          -6.9669    4.0652   19.4075 C.3     1  UNL1        0.1235
     29 C          -5.9483    3.9569   21.8765 C.2     1  UNL1        0.2524
     30 O          -7.2186    4.1015   22.6610 O.2     1  UNL1       -0.2698
@<TRIPOS>BOND
     1    11    12    1
     2    12    13   ar
     3    13    14   ar
     4    14    15   ar
     5    15     5    1
     6     5     6   ar
     7     6     7   ar
     8     7     8   ar
     9     8     1    1
    10     1     2   am
    11     2     3    2
    12     2    18    1
    13    18    19    1
    14    19    20    1
    15    20    21    1
    16    21    22    1
    17    22    23    1
    18    23    24    2
    19    24    25    1
    20    25    26    2
    21    25    27   am
    22    27    28    1
    23    27    29   am
    24    29    30    2
    25     8     9   ar
    26     9    10   ar
    27    15    16   ar
    28    16    17   ar
    29    17    12   ar
    30    10     5   ar
    31    24    19    1
    32    29    23    1
    33     1     4    1
@<TRIPOS>MOLECULE
*****
 30 33 0 0 0
SMALL
GASTEIGER

@<TRIPOS>ATOM
      1 N           2.9082    1.1659   27.5528 N.am    1  UNL1       -0.2665
      2 C           1.8853    0.7229   28.5565 C.2     1  UNL1        0.2474
      3 O           1.0937   -0.5287   28.3181 O.2     1  UNL1       -0.2729
      4 H           3.4278    1.9874   27.7092 H       1  UNL1        0.1564
      5 C           3.6019   -1.2597   23.8265 C.ar    1  UNL1        0.1045
      6 C           2.6472   -0.1031   23.8016 C.ar    1  UNL1        0.0239
      7 C           2.4159    0.7054   25.0437 C.ar    1  UNL1        0.0379
      8 C           3.1394    0.3574   26.3107 C.ar    1  UNL1        0.1560
      9 N           4.0942   -0.7993   26.3357 N.ar    1  UNL1       -0.1328
     10 N           4.3255   -1.6079   25.0936 N.ar    1  UNL1       -0.1467
     11 C           4.5269   -4.4939   18.8582 C.3     1  UNL1        0.0521
     12 C           4.2956   -3.6854   20.1003 C.ar    1  UNL1        0.0594
     13 C           3.5452   -2.3889   20.0223 C.ar    1  UNL1        0.0148
     14 C           3.3139   -1.5804   21.2644 C.ar    1  UNL1        0.0043
     15 C           3.8332   -2.0683   22.5844 C.ar    1  UNL1        0.0385
     16 C           4.5836   -3.3647   22.6623 C.ar    1  UNL1        0.1000
     17 N           4.8148   -4.1733   21.4202 N.ar    1  UNL1       -0.2481
     18 C           1.6541    1.5314   29.7986 C.3     1  UNL1        0.1775
     19 N           2.3273    1.1439   31.0819 N.pl3   1  UNL1       -0.2964
     20 C           3.1676   -0.0970   31.1430 C.3     1  UNL1        0.0917
     21 C           3.8407   -0.4844   32.4263 C.3     1  UNL1        0.0263
     22 C           3.6735    0.3691   33.6484 C.3     1  UNL1        0.0342
     23 C           2.8331    1.6100   33.5872 C.2     1  UNL1        0.0496
     24 C           2.1600    1.9974   32.3040 C.2     1  UNL1        0.1032
     25 C           1.3986    3.2673   32.5449 C.2     1  UNL1        0.2683
     26 O           0.5787    4.0094   31.5315 O.2     1  UNL1       -0.2681
     27 N           1.6012    3.6646   33.9770 N.am    1  UNL1       -0.2203
     28 C           1.0194    4.8738   34.6473 C.3     1  UNL1        0.1235
     29 C           2.4877    2.6403   34.6212 C.2     1  UNL1        0.2524
     30 O           2.9481    2.6455   36.0488 O.2     1  UNL1       -0.2698
@<TRIPOS>BOND
     1    11    12    1
     2    12    13   ar
     3    13    14   ar
     4    14    15   ar
     5    15     5    1
     6     5     6   ar
     7     6     7   ar
     8     7     8   ar
     9     8     1    1
    10     1     2   am
    11     2     3    2
    12     2    18    1
    13    18    19    1
    14    19    20    1
    15    20    21    1
    16    21    22    1
    17    22    23    1
    18    23    24    2
    19    24    25    1
    20    25    26    2
    21    25    27   am
    22    27    28    1
    23    27    29   am
    24    29    30    2
    25     8     9   ar
    26     9    10   ar
    27    15    16   ar
    28    16    17   ar
    29    17    12   ar
    30    10     5   ar
    31    24    19    1
    32    29    23    1
    33     1     4    1
@<TRIPOS>MOLECULE
*****
 30 33 0 0 0
SMALL
GASTEIGER

@<TRIPOS>ATOM
      1 N           6.1415   -1.2033   32.9757 N.am    1  UNL1       -0.2665
      2 C           4.8891   -1.3913   33.7794 C.2     1  UNL1        0.2474
      3 O           3.9860   -2.5558   33.4994 O.2     1  UNL1       -0.2729
      4 H           6.7343   -0.4390   33.1595 H       1  UNL1        0.1564
      5 C           7.1897   -4.1326   29.7245 C.ar    1  UNL1        0.1045
      6 C           6.6479   -2.7799   29.3691 C.ar    1  UNL1        0.0239
      7 C           6.2985   -1.8034   30.4528 C.ar    1  UNL1        0.0379
      8 C           6.4909   -2.1798   31.8920 C.ar    1  UNL1        0.1560
      9 N           7.0327   -3.5326   32.2475 N.ar    1  UNL1       -0.1328
     10 N           7.3821   -4.5090   31.1637 N.ar    1  UNL1       -0.1467
     11 C           8.5871   -8.0384   25.3895 C.3     1  UNL1        0.0521
     12 C           8.2378   -7.0620   26.4733 C.ar    1  UNL1        0.0594
     13 C           6.8926   -6.3981   26.4795 C.ar    1  UNL1        0.0148
     14 C           6.5433   -5.4216   27.5633 C.ar    1  UNL1        0.0043
     15 C           7.5390   -5.1091   28.6408 C.ar    1  UNL1        0.0385
     16 C           8.8841   -5.7730   28.6344 C.ar    1  UNL1        0.1000
     17 N           9.2334   -6.7494   27.5507 N.ar    1  UNL1       -0.2481
     18 C           4.5397   -0.4149   34.8632 C.3     1  UNL1        0.1775
     19 N           3.6649    0.7645   34.5566 N.pl3   1  UNL1       -0.2964
     20 C           3.1656    0.9849   33.1595 C.3     1  UNL1        0.0917
     21 C           2.2908    2.1642   32.8530 C.3     1  UNL1        0.0263
     22 C           1.9154    3.1231   33.9437 C.3     1  UNL1        0.0342
     23 C           2.4147    2.9027   35.3408 C.2     1  UNL1        0.0496
     24 C           3.2895    1.7234   35.6473 C.2     1  UNL1        0.1032
     25 C           3.6279    1.7644   37.1081 C.2     1  UNL1        0.2683
     26 O           4.4820    0.7746   37.8434 O.2     1  UNL1       -0.2681
     27 N           2.9623    2.9691   37.7044 N.am    1  UNL1       -0.2203
     28 C           3.0338    3.3956   39.1408 C.3     1  UNL1        0.1235
     29 C           2.2125    3.6726   36.6122 C.2     1  UNL1        0.2524
     30 O           1.4026    4.9260   36.7645 O.2     1  UNL1       -0.2698
@<TRIPOS>BOND
     1    11    12    1
     2    12    13   ar
     3    13    14   ar
     4    14    15   ar
     5    15     5    1
     6     5     6   ar
     7     6     7   ar
     8     7     8   ar
     9     8     1    1
    10     1     2   am
    11     2     3    2
    12     2    18    1
    13    18    19    1
    14    19    20    1
    15    20    21    1
    16    21    22    1
    17    22    23    1
    18    23    24    2
    19    24    25    1
    20    25    26    2
    21    25    27   am
    22    27    28    1
    23    27    29   am
    24    29    30    2
    25     8     9   ar
    26     9    10   ar
    27    15    16   ar
    28    16    17   ar
    29    17    12   ar
    30    10     5   ar
    31    24    19    1
    32    29    23    1
    33     1     4    1
@<TRIPOS>MOLECULE
*****
 30 33 0 0 0
SMALL
GASTEIGER

@<TRIPOS>ATOM
      1 N           3.4626   -1.6518   26.0916 N.am    1  UNL1       -0.2665
      2 C           3.7625   -0.5979   25.0672 C.2     1  UNL1        0.2474
      3 O           4.4545    0.6690   25.4750 O.2     1  UNL1       -0.2729
      4 H           3.0084   -2.4833   25.8240 H       1  UNL1        0.1564
      5 C           4.6386   -1.0129   30.3880 C.ar    1  UNL1        0.1045
      6 C           3.3109   -0.5212   29.8928 C.ar    1  UNL1        0.0239
      7 C           2.9189   -0.7342   28.4606 C.ar    1  UNL1        0.0379
      8 C           3.8546   -1.4388   27.5237 C.ar    1  UNL1        0.1560
      9 N           5.1824   -1.9305   28.0189 N.ar    1  UNL1       -0.1328
     10 N           5.5744   -1.7176   29.4511 N.ar    1  UNL1       -0.1467
     11 C           6.2067   -0.1610   36.1165 C.3     1  UNL1        0.0521
     12 C           5.8147   -0.3740   34.6843 C.ar    1  UNL1        0.0594
     13 C           4.5890   -1.1729   34.3531 C.ar    1  UNL1        0.0148
     14 C           4.1970   -1.3859   32.9210 C.ar    1  UNL1        0.0043
     15 C           5.0306   -0.7999   31.8201 C.ar    1  UNL1        0.0385
     16 C           6.2562   -0.0011   32.1514 C.ar    1  UNL1        0.1000
     17 N           6.6482    0.2119   33.5835 N.ar    1  UNL1       -0.2481
     18 C           3.3705   -0.8109   23.6351 C.3     1  UNL1        0.1775
     19 N           4.1674   -1.7417   22.7698 N.pl3   1  UNL1       -0.2964
     20 C           4.9756   -2.8397   23.3952 C.3     1  UNL1        0.0917
     21 C           5.7725   -3.7704   22.5299 C.3     1  UNL1        0.0263
     22 C           5.7612   -3.6030   21.0393 C.3     1  UNL1        0.0342
     23 C           4.9530   -2.5050   20.4140 C.2     1  UNL1        0.0496
     24 C           4.1561   -1.5743   21.2792 C.2     1  UNL1        0.1032
     25 C           3.4598   -0.5918   20.3848 C.2     1  UNL1        0.2683
     26 O           2.5557    0.5191   20.8303 O.2     1  UNL1       -0.2681
     27 N           3.8264   -0.9153   18.9668 N.am    1  UNL1       -0.2203
     28 C           3.3532   -0.1848   17.7451 C.3     1  UNL1        0.1235
     29 C           4.7492   -2.0978   18.9848 C.2     1  UNL1        0.2524
     30 O           5.3609   -2.7572   17.7844 O.2     1  UNL1       -0.2698
@<TRIPOS>BOND
     1    11    12    1
     2    12    13   ar
     3    13    14   ar
     4    14    15   ar
     5    15     5    1
     6     5     6   ar
     7     6     7   ar
     8     7     8   ar
     9     8     1    1
    10     1     2   am
    11     2     3    2
    12     2    18    1
    13    18    19    1
    14    19    20    1
    15    20    21    1
    16    21    22    1
    17    22    23    1
    18    23    24    2
    19    24    25    1
    20    25    26    2
    21    25    27   am
    22    27    28    1
    23    27    29   am
    24    29    30    2
    25     8     9   ar
    26     9    10   ar
    27    15    16   ar
    28    16    17   ar
    29    17    12   ar
    30    10     5   ar
    31    24    19    1
    32    29    23    1
    33     1     4    1
