@<TRIPOS>MOLECULE
*****
 30 33 0 0 0
SMALL
GASTEIGER

@<TRIPOS>ATOM
      1 C          -3.2883  -17.6720   22.2419 C.2     1  UNL1        0.3440
      2 N          -4.4475  -17.1005   23.0034 N.2     1  UNL1        0.0036
      3 C          -5.8015  -17.7373   22.8974 C.2     1  UNL1        0.3646
      4 N          -7.1212  -17.3998   23.5254 N.2     1  UNL1       -0.0365
      5 C          -8.1317  -18.3993   23.0461 C.2     1  UNL1        0.2073
      6 C          -7.4365  -19.3546   22.1218 C.2     1  UNL1        0.0401
      7 C          -5.9963  -18.9454   22.0300 C.3     1  UNL1        0.1775
      8 C          -4.8371  -19.5168   21.2685 C.ar    1  UNL1        0.0793
      9 C          -3.4831  -18.8800   21.3746 C.ar    1  UNL1        0.1773
     10 N          -2.5352  -19.6605   20.5129 N.ar    1  UNL1       -0.2167
     11 C          -3.3034  -20.7795   19.8743 C.ar    1  UNL1        0.1786
     12 N          -4.7260  -20.6907   20.3414 N.ar    1  UNL1       -0.3094
     13 C          -5.8417  -21.6137   19.9500 C.3     1  UNL1        0.1318
     14 C          -9.5827  -18.4371   23.4245 C.ar    1  UNL1        0.1235
     15 C          -9.9937  -18.9586   24.7695 C.ar    1  UNL1        0.0229
     16 C         -11.4447  -18.9963   25.1478 C.ar    1  UNL1        0.0029
     17 C         -12.4847  -18.5125   24.1812 C.ar    1  UNL1        0.0165
     18 C         -12.0738  -17.9910   22.8362 C.ar    1  UNL1        0.0789
     19 N         -10.6227  -17.9533   22.4579 N.ar    1  UNL1       -0.2442
     20 C         -13.1137  -17.5072   21.8696 C.3     1  UNL1        0.1358
     21 N         -12.8157  -16.3479   20.9655 N.am    1  UNL1       -0.2971
     22 C         -11.9783  -16.5503   19.7376 C.2     1  UNL1        0.2530
     23 O         -11.4389  -17.9120   19.4137 O.2     1  UNL1       -0.2724
     24 H         -13.1697  -15.4542   21.1781 H       1  UNL1        0.1499
     25 C         -11.6802  -15.3911   18.8335 C.3     1  UNL1        0.2270
     26 O         -10.3746  -14.6626   18.9536 O.3     1  UNL1       -0.3418
     27 C          -9.6678  -14.6033   20.2753 C.3     1  UNL1        0.1748
     28 C          -1.3615  -16.2915   21.1779 C.3     1  UNL1        0.2504
     29 N          -1.9342  -17.0352   22.3479 N.pl3   1  UNL1       -0.2137
     30 H          -1.4214  -17.1054   23.1854 H       1  UNL1        0.2924
@<TRIPOS>BOND
     1    28    29    1
     2    29     1    1
     3     1     2    2
     4     2     3    1
     5     3     4    2
     6     4     5    1
     7     5    14    1
     8    14    15   ar
     9    15    16   ar
    10    16    17   ar
    11    17    18   ar
    12    18    20    1
    13    20    21    1
    14    21    22   am
    15    22    23    2
    16    22    25    1
    17    25    26    1
    18    26    27    1
    19    18    19   ar
    20     5     6    2
    21     6     7    1
    22     7     8    1
    23     8     9   ar
    24     9    10   ar
    25    10    11   ar
    26    11    12   ar
    27    12    13    1
    28     9     1    1
    29     7     3    1
    30    12     8   ar
    31    19    14   ar
    32    29    30    1
    33    21    24    1
@<TRIPOS>MOLECULE
*****
 30 33 0 0 0
SMALL
GASTEIGER

@<TRIPOS>ATOM
      1 C         -12.1750  -18.5944   24.3772 C.2     1  UNL1        0.3440
      2 N         -10.9314  -19.4258   24.4887 N.2     1  UNL1        0.0036
      3 C          -9.8183  -19.2466   23.4994 C.2     1  UNL1        0.3646
      4 N          -8.4840  -19.9169   23.3576 N.2     1  UNL1       -0.0365
      5 C          -7.7898  -19.3207   22.1690 C.2     1  UNL1        0.2073
      6 C          -8.6951  -18.2820   21.5762 C.2     1  UNL1        0.0401
      7 C          -9.9488  -18.2361   22.3985 C.3     1  UNL1        0.1775
      8 C         -11.1924  -17.4049   22.2869 C.ar    1  UNL1        0.0793
      9 C         -12.3055  -17.5841   23.2763 C.ar    1  UNL1        0.1773
     10 N         -13.4040  -16.6281   22.9163 N.ar    1  UNL1       -0.2167
     11 C         -12.9698  -15.8582   21.7044 C.ar    1  UNL1        0.1786
     12 N         -11.6030  -16.3382   21.3155 N.ar    1  UNL1       -0.3094
     13 C         -10.7895  -15.8392   20.1582 C.3     1  UNL1        0.1318
     14 C          -6.4291  -19.6972   21.6621 C.ar    1  UNL1        0.1235
     15 C          -6.2952  -20.6269   20.4926 C.ar    1  UNL1        0.0229
     16 C          -4.9345  -21.0033   19.9858 C.ar    1  UNL1        0.0029
     17 C          -3.7078  -20.4501   20.6485 C.ar    1  UNL1        0.0165
     18 C          -3.8417  -19.5204   21.8180 C.ar    1  UNL1        0.0789
     19 N          -5.2024  -19.1440   22.3248 N.ar    1  UNL1       -0.2442
     20 C          -2.6150  -18.9672   22.4807 C.3     1  UNL1        0.1358
     21 N          -1.3964  -18.6566   21.6631 N.am    1  UNL1       -0.2971
     22 C          -1.3506  -17.4109   20.8288 C.2     1  UNL1        0.2530
     23 O          -2.5233  -16.4758   20.8120 O.2     1  UNL1       -0.2724
     24 H          -0.6267  -19.2703   21.6741 H       1  UNL1        0.1499
     25 C          -0.1320  -17.1001   20.0111 C.3     1  UNL1        0.2270
     26 O          -0.0515  -17.5523   18.5832 O.3     1  UNL1       -0.3418
     27 C          -1.3052  -17.8877   17.8311 C.3     1  UNL1        0.1748
     28 C         -14.7087  -18.5326   24.9492 C.3     1  UNL1        0.2504
     29 N         -13.2882  -18.7736   25.3666 N.pl3   1  UNL1       -0.2137
     30 H         -13.0865  -19.0494   26.2899 H       1  UNL1        0.2924
@<TRIPOS>BOND
     1    28    29    1
     2    29     1    1
     3     1     2    2
     4     2     3    1
     5     3     4    2
     6     4     5    1
     7     5    14    1
     8    14    15   ar
     9    15    16   ar
    10    16    17   ar
    11    17    18   ar
    12    18    20    1
    13    20    21    1
    14    21    22   am
    15    22    23    2
    16    22    25    1
    17    25    26    1
    18    26    27    1
    19    18    19   ar
    20     5     6    2
    21     6     7    1
    22     7     8    1
    23     8     9   ar
    24     9    10   ar
    25    10    11   ar
    26    11    12   ar
    27    12    13    1
    28     9     1    1
    29     7     3    1
    30    12     8   ar
    31    19    14   ar
    32    29    30    1
    33    21    24    1
@<TRIPOS>MOLECULE
*****
 30 33 0 0 0
SMALL
GASTEIGER

@<TRIPOS>ATOM
      1 C         -11.5911  -18.5695   24.1368 C.2     1  UNL1        0.3440
      2 N         -10.3564  -19.4212   24.1233 N.2     1  UNL1        0.0036
      3 C          -9.3892  -19.3216   22.9811 C.2     1  UNL1        0.3646
      4 N          -8.0974  -20.0285   22.6953 N.2     1  UNL1       -0.0365
      5 C          -7.5666  -19.5142   21.3900 C.2     1  UNL1        0.2073
      6 C          -8.5303  -18.4894   20.8692 C.2     1  UNL1        0.0401
      7 C          -9.6567  -18.3704   21.8526 C.3     1  UNL1        0.1775
      8 C         -10.8914  -17.5188   21.8662 C.ar    1  UNL1        0.0793
      9 C         -11.8586  -17.6184   23.0083 C.ar    1  UNL1        0.1773
     10 N         -12.9824  -16.6592   22.7490 N.ar    1  UNL1       -0.2167
     11 C         -12.7097  -15.9669   21.4466 C.ar    1  UNL1        0.1786
     12 N         -11.4174  -16.4981   20.9010 N.ar    1  UNL1       -0.3094
     13 C         -10.7655  -16.0818   19.6158 C.3     1  UNL1        0.1318
     14 C          -6.2953  -19.9483   20.7227 C.ar    1  UNL1        0.1235
     15 C          -6.0175  -21.4077   20.5156 C.ar    1  UNL1        0.0229
     16 C          -4.7462  -21.8418   19.8483 C.ar    1  UNL1        0.0029
     17 C          -3.7526  -20.8166   19.3881 C.ar    1  UNL1        0.0165
     18 C          -4.0304  -19.3572   19.5953 C.ar    1  UNL1        0.0789
     19 N          -5.3018  -18.9231   20.2626 N.ar    1  UNL1       -0.2442
     20 C          -3.0369  -18.3319   19.1352 C.3     1  UNL1        0.1358
     21 N          -2.8829  -17.0451   19.8905 N.am    1  UNL1       -0.2971
     22 C          -2.4772  -17.0669   21.3344 C.2     1  UNL1        0.2530
     23 O          -2.2255  -18.3755   22.0230 O.2     1  UNL1       -0.2724
     24 H          -3.0481  -16.1862   19.4385 H       1  UNL1        0.1499
     25 C          -2.3232  -15.7801   22.0898 C.3     1  UNL1        0.2270
     26 O          -3.5293  -15.1001   22.6666 O.3     1  UNL1       -0.3418
     27 C          -4.5062  -15.8811   23.4947 C.3     1  UNL1        0.1748
     28 C         -14.0315  -18.5384   25.0280 C.3     1  UNL1        0.2504
     29 N         -12.5584  -18.6691   25.2791 N.pl3   1  UNL1       -0.2137
     30 H         -12.2264  -18.8203   26.1935 H       1  UNL1        0.2924
@<TRIPOS>BOND
     1    28    29    1
     2    29     1    1
     3     1     2    2
     4     2     3    1
     5     3     4    2
     6     4     5    1
     7     5    14    1
     8    14    15   ar
     9    15    16   ar
    10    16    17   ar
    11    17    18   ar
    12    18    20    1
    13    20    21    1
    14    21    22   am
    15    22    23    2
    16    22    25    1
    17    25    26    1
    18    26    27    1
    19    18    19   ar
    20     5     6    2
    21     6     7    1
    22     7     8    1
    23     8     9   ar
    24     9    10   ar
    25    10    11   ar
    26    11    12   ar
    27    12    13    1
    28     9     1    1
    29     7     3    1
    30    12     8   ar
    31    19    14   ar
    32    29    30    1
    33    21    24    1
@<TRIPOS>MOLECULE
*****
 30 33 0 0 0
SMALL
GASTEIGER

@<TRIPOS>ATOM
      1 C           7.7411   -7.2284   27.1305 C.2     1  UNL1        0.3440
      2 N           7.9571   -7.3051   25.6481 N.2     1  UNL1        0.0036
      3 C           7.6558   -6.1167   24.7838 C.2     1  UNL1        0.3646
      4 N           7.7688   -5.8972   23.3043 N.2     1  UNL1       -0.0365
      5 C           7.3214   -4.4965   23.0080 C.2     1  UNL1        0.2073
      6 C           6.9318   -3.8503   24.3045 C.2     1  UNL1        0.0401
      7 C           7.1385   -4.8517   25.4020 C.3     1  UNL1        0.1775
      8 C           6.9225   -4.7750   26.8844 C.ar    1  UNL1        0.0793
      9 C           7.2238   -5.9634   27.7486 C.ar    1  UNL1        0.1773
     10 N           6.9143   -5.5939   29.1691 N.ar    1  UNL1       -0.2167
     11 C           6.4217   -4.1772   29.1827 C.ar    1  UNL1        0.1786
     12 N           6.4268   -3.6711   27.7707 N.ar    1  UNL1       -0.3094
     13 C           6.0094   -2.3015   27.3235 C.3     1  UNL1        0.1318
     14 C           7.2721   -3.8546   21.6532 C.ar    1  UNL1        0.1235
     15 C           8.4470   -3.0677   21.1530 C.ar    1  UNL1        0.0229
     16 C           8.3977   -2.4258   19.7981 C.ar    1  UNL1        0.0029
     17 C           7.1735   -2.5709   18.9435 C.ar    1  UNL1        0.0165
     18 C           5.9986   -3.3578   19.4437 C.ar    1  UNL1        0.0789
     19 N           6.0480   -3.9997   20.7986 N.ar    1  UNL1       -0.2442
     20 C           4.7744   -3.5030   18.5892 C.3     1  UNL1        0.1358
     21 N           4.3031   -2.3507   17.7525 N.am    1  UNL1       -0.2971
     22 C           3.7054   -1.1419   18.4093 C.2     1  UNL1        0.2530
     23 O           3.5792   -1.0852   19.9029 O.2     1  UNL1       -0.2724
     24 H           4.3859   -2.3879   16.7722 H       1  UNL1        0.1499
     25 C           3.2340    0.0104   17.5726 C.3     1  UNL1        0.2270
     26 O           2.4722    1.1359   18.2072 O.3     1  UNL1       -0.3418
     27 C           1.0243    0.9584   18.5565 C.3     1  UNL1        0.1748
     28 C           9.1572   -9.3498   27.6250 C.3     1  UNL1        0.2504
     29 N           8.0424   -8.4169   27.9948 N.pl3   1  UNL1       -0.2137
     30 H           7.5085   -8.5845   28.8048 H       1  UNL1        0.2924
@<TRIPOS>BOND
     1    28    29    1
     2    29     1    1
     3     1     2    2
     4     2     3    1
     5     3     4    2
     6     4     5    1
     7     5    14    1
     8    14    15   ar
     9    15    16   ar
    10    16    17   ar
    11    17    18   ar
    12    18    20    1
    13    20    21    1
    14    21    22   am
    15    22    23    2
    16    22    25    1
    17    25    26    1
    18    26    27    1
    19    18    19   ar
    20     5     6    2
    21     6     7    1
    22     7     8    1
    23     8     9   ar
    24     9    10   ar
    25    10    11   ar
    26    11    12   ar
    27    12    13    1
    28     9     1    1
    29     7     3    1
    30    12     8   ar
    31    19    14   ar
    32    29    30    1
    33    21    24    1
@<TRIPOS>MOLECULE
*****
 30 33 0 0 0
SMALL
GASTEIGER

@<TRIPOS>ATOM
      1 C         -12.7326  -17.7764   23.3027 C.2     1  UNL1        0.3440
      2 N         -11.4838  -18.1573   24.0415 N.2     1  UNL1        0.0036
      3 C         -10.1408  -17.7897   23.4836 C.2     1  UNL1        0.3646
      4 N          -8.7469  -18.0282   23.9836 N.2     1  UNL1       -0.0365
      5 C          -7.7911  -17.4273   22.9960 C.2     1  UNL1        0.2073
      6 C          -8.5943  -16.8174   21.8857 C.2     1  UNL1        0.0401
      7 C         -10.0465  -17.0413   22.1870 C.3     1  UNL1        0.1775
      8 C         -11.2953  -16.6606   21.4483 C.ar    1  UNL1        0.0793
      9 C         -12.6383  -17.0281   22.0062 C.ar    1  UNL1        0.1773
     10 N         -13.6872  -16.5217   21.0610 N.ar    1  UNL1       -0.2167
     11 C         -12.9924  -15.8411   19.9190 C.ar    1  UNL1        0.1786
     12 N         -11.5141  -15.9270   20.1584 N.ar    1  UNL1       -0.3094
     13 C         -10.4428  -15.3759   19.2647 C.3     1  UNL1        0.1318
     14 C          -6.2947  -17.4349   23.1004 C.ar    1  UNL1        0.1235
     15 C          -5.5932  -16.3765   23.8989 C.ar    1  UNL1        0.0229
     16 C          -4.0968  -16.3842   24.0033 C.ar    1  UNL1        0.0029
     17 C          -3.3020  -17.4503   23.3092 C.ar    1  UNL1        0.0165
     18 C          -4.0035  -18.5087   22.5107 C.ar    1  UNL1        0.0789
     19 N          -5.4999  -18.5010   22.4063 N.ar    1  UNL1       -0.2442
     20 C          -3.2088  -19.5747   21.8166 C.3     1  UNL1        0.1358
     21 N          -2.1657  -19.1953   20.8076 N.am    1  UNL1       -0.2971
     22 C          -2.5625  -18.4741   19.5536 C.2     1  UNL1        0.2530
     23 O          -4.0023  -18.1324   19.3086 O.2     1  UNL1       -0.2724
     24 H          -1.2207  -19.4196   20.9683 H       1  UNL1        0.1499
     25 C          -1.5195  -18.0947   18.5445 C.3     1  UNL1        0.2270
     26 O          -0.0651  -18.1772   18.9020 O.3     1  UNL1       -0.3418
     27 C           0.4818  -17.3370   20.0178 C.3     1  UNL1        0.1748
     28 C         -14.2176  -18.4766   25.3163 C.3     1  UNL1        0.2504
     29 N         -14.0757  -18.1440   23.8606 N.pl3   1  UNL1       -0.2137
     30 H         -14.8639  -18.1670   23.2712 H       1  UNL1        0.2924
@<TRIPOS>BOND
     1    28    29    1
     2    29     1    1
     3     1     2    2
     4     2     3    1
     5     3     4    2
     6     4     5    1
     7     5    14    1
     8    14    15   ar
     9    15    16   ar
    10    16    17   ar
    11    17    18   ar
    12    18    20    1
    13    20    21    1
    14    21    22   am
    15    22    23    2
    16    22    25    1
    17    25    26    1
    18    26    27    1
    19    18    19   ar
    20     5     6    2
    21     6     7    1
    22     7     8    1
    23     8     9   ar
    24     9    10   ar
    25    10    11   ar
    26    11    12   ar
    27    12    13    1
    28     9     1    1
    29     7     3    1
    30    12     8   ar
    31    19    14   ar
    32    29    30    1
    33    21    24    1
@<TRIPOS>MOLECULE
*****
 30 33 0 0 0
SMALL
GASTEIGER

@<TRIPOS>ATOM
      1 C           3.5720   -1.4112   21.3264 C.2     1  UNL1        0.3440
      2 N           4.5083   -2.5468   21.0368 N.2     1  UNL1        0.0036
      3 C           5.2383   -3.2219   22.1599 C.2     1  UNL1        0.3646
      4 N           6.2169   -4.3585   22.1810 N.2     1  UNL1       -0.0365
      5 C           6.6155   -4.6004   23.6067 C.2     1  UNL1        0.2073
      6 C           5.8832   -3.6134   24.4667 C.2     1  UNL1        0.0401
      7 C           5.0320   -2.7614   23.5725 C.3     1  UNL1        0.1775
      8 C           4.0957   -1.6258   23.8620 C.ar    1  UNL1        0.0793
      9 C           3.3657   -0.9507   22.7389 C.ar    1  UNL1        0.1773
     10 N           2.5128    0.1343   23.3265 N.ar    1  UNL1       -0.2167
     11 C           2.7157    0.1298   24.8127 C.ar    1  UNL1        0.1786
     12 N           3.6940   -0.9581   25.1437 N.ar    1  UNL1       -0.3094
     13 C           4.1844   -1.3154   26.5154 C.3     1  UNL1        0.1318
     14 C           7.5775   -5.6458   24.0880 C.ar    1  UNL1        0.1235
     15 C           8.5740   -6.2421   23.1385 C.ar    1  UNL1        0.0229
     16 C           9.5360   -7.2875   23.6199 C.ar    1  UNL1        0.0029
     17 C           9.5015   -7.7367   25.0506 C.ar    1  UNL1        0.0165
     18 C           8.5051   -7.1404   26.0001 C.ar    1  UNL1        0.0789
     19 N           7.5431   -6.0950   25.5187 N.ar    1  UNL1       -0.2442
     20 C           8.4706   -7.5895   27.4308 C.3     1  UNL1        0.1358
     21 N           7.5320   -6.9341   28.4001 N.am    1  UNL1       -0.2971
     22 C           8.0620   -6.3353   29.6691 C.2     1  UNL1        0.2530
     23 O           9.5306   -6.3918   29.9689 O.2     1  UNL1       -0.2724
     24 H           6.5680   -6.8970   28.2034 H       1  UNL1        0.1499
     25 C           7.1234   -5.6799   30.6385 C.3     1  UNL1        0.2270
     26 O           7.4671   -4.3445   31.2290 O.3     1  UNL1       -0.3418
     27 C           6.5179   -3.6787   32.1807 C.3     1  UNL1        0.1748
     28 C           1.3437   -0.7832   20.1470 C.3     1  UNL1        0.2504
     29 N           2.8419   -0.7360   20.2033 N.pl3   1  UNL1       -0.2137
     30 H           3.3461   -0.2619   19.5030 H       1  UNL1        0.2924
@<TRIPOS>BOND
     1    28    29    1
     2    29     1    1
     3     1     2    2
     4     2     3    1
     5     3     4    2
     6     4     5    1
     7     5    14    1
     8    14    15   ar
     9    15    16   ar
    10    16    17   ar
    11    17    18   ar
    12    18    20    1
    13    20    21    1
    14    21    22   am
    15    22    23    2
    16    22    25    1
    17    25    26    1
    18    26    27    1
    19    18    19   ar
    20     5     6    2
    21     6     7    1
    22     7     8    1
    23     8     9   ar
    24     9    10   ar
    25    10    11   ar
    26    11    12   ar
    27    12    13    1
    28     9     1    1
    29     7     3    1
    30    12     8   ar
    31    19    14   ar
    32    29    30    1
    33    21    24    1
@<TRIPOS>MOLECULE
*****
 30 33 0 0 0
SMALL
GASTEIGER

@<TRIPOS>ATOM
      1 C          -5.8095    3.7560   22.9525 C.2     1  UNL1        0.3440
      2 N          -5.1213    3.6035   21.6283 N.2     1  UNL1        0.0036
      3 C          -3.6264    3.4962   21.5680 C.2     1  UNL1        0.3646
      4 N          -2.6770    3.3396   20.4173 N.2     1  UNL1       -0.0365
      5 C          -1.2835    3.2881   20.9699 C.2     1  UNL1        0.2073
      6 C          -1.3716    3.4128   22.4621 C.2     1  UNL1        0.0401
      7 C          -2.8196    3.5415   22.8318 C.3     1  UNL1        0.1775
      8 C          -3.5078    3.6940   24.1559 C.ar    1  UNL1        0.0793
      9 C          -5.0027    3.8012   24.2162 C.ar    1  UNL1        0.1773
     10 N          -5.3995    3.9430   25.6558 N.ar    1  UNL1       -0.2167
     11 C          -4.1498    3.9233   26.4852 C.ar    1  UNL1        0.1786
     12 N          -2.9806    3.7694   25.5582 N.ar    1  UNL1       -0.3094
     13 C          -1.5377    3.7027   25.9625 C.3     1  UNL1        0.1318
     14 C          -0.0230    3.1381   20.1706 C.ar    1  UNL1        0.1235
     15 C           0.8928    4.3118   19.9872 C.ar    1  UNL1        0.0229
     16 C           2.1533    4.1617   19.1879 C.ar    1  UNL1        0.0029
     17 C           2.4978    2.8381   18.5720 C.ar    1  UNL1        0.0165
     18 C           1.5819    1.6644   18.7555 C.ar    1  UNL1        0.0789
     19 N           0.3215    1.8145   19.5548 N.ar    1  UNL1       -0.2442
     20 C           1.9264    0.3408   18.1397 C.3     1  UNL1        0.1358
     21 N           3.0928   -0.4468   18.6584 N.am    1  UNL1       -0.2971
     22 C           4.0117   -1.1453   17.7004 C.2     1  UNL1        0.2530
     23 O           3.7641   -1.0562   16.2237 O.2     1  UNL1       -0.2724
     24 H           3.2553   -0.5053   19.6276 H       1  UNL1        0.1499
     25 C           5.1782   -1.9330   18.2191 C.3     1  UNL1        0.2270
     26 O           5.0517   -2.7063   19.4981 O.3     1  UNL1       -0.3418
     27 C           4.8462   -4.1916   19.4592 C.3     1  UNL1        0.1748
     28 C          -7.9457    5.0914   23.5877 C.3     1  UNL1        0.2504
     29 N          -7.3045    3.8633   23.0128 N.pl3   1  UNL1       -0.2137
     30 H          -7.8648    3.1276   22.6751 H       1  UNL1        0.2924
@<TRIPOS>BOND
     1    28    29    1
     2    29     1    1
     3     1     2    2
     4     2     3    1
     5     3     4    2
     6     4     5    1
     7     5    14    1
     8    14    15   ar
     9    15    16   ar
    10    16    17   ar
    11    17    18   ar
    12    18    20    1
    13    20    21    1
    14    21    22   am
    15    22    23    2
    16    22    25    1
    17    25    26    1
    18    26    27    1
    19    18    19   ar
    20     5     6    2
    21     6     7    1
    22     7     8    1
    23     8     9   ar
    24     9    10   ar
    25    10    11   ar
    26    11    12   ar
    27    12    13    1
    28     9     1    1
    29     7     3    1
    30    12     8   ar
    31    19    14   ar
    32    29    30    1
    33    21    24    1
@<TRIPOS>MOLECULE
*****
 30 33 0 0 0
SMALL
GASTEIGER

@<TRIPOS>ATOM
      1 C           4.2084   -2.2485   19.2446 C.2     1  UNL1        0.3440
      2 N           5.2492   -3.2178   19.7215 N.2     1  UNL1        0.0036
      3 C           5.5270   -3.3582   21.1889 C.2     1  UNL1        0.3646
      4 N           6.4867   -4.2237   21.9503 N.2     1  UNL1       -0.0365
      5 C           6.3170   -3.9296   23.4114 C.2     1  UNL1        0.2073
      6 C           5.2524   -2.8824   23.5529 C.2     1  UNL1        0.0401
      7 C           4.7641   -2.5292   22.1793 C.3     1  UNL1        0.1775
      8 C           3.7235   -1.5599   21.7023 C.ar    1  UNL1        0.0793
      9 C           3.4457   -1.4196   20.2350 C.ar    1  UNL1        0.1773
     10 N           2.3695   -0.3888   20.0636 N.ar    1  UNL1       -0.2167
     11 C           1.9822    0.1079   21.4249 C.ar    1  UNL1        0.1786
     12 N           2.8190   -0.6159   22.4378 N.ar    1  UNL1       -0.3094
     13 C           2.7615   -0.4286   23.9249 C.3     1  UNL1        0.1318
     14 C           7.0782   -4.5703   24.5339 C.ar    1  UNL1        0.1235
     15 C           8.4630   -5.0958   24.2971 C.ar    1  UNL1        0.0229
     16 C           9.2241   -5.7365   25.4198 C.ar    1  UNL1        0.0029
     17 C           8.6006   -5.8516   26.7791 C.ar    1  UNL1        0.0165
     18 C           7.2158   -5.3260   27.0159 C.ar    1  UNL1        0.0789
     19 N           6.4546   -4.6853   25.8933 N.ar    1  UNL1       -0.2442
     20 C           6.5922   -5.4410   28.3753 C.3     1  UNL1        0.1358
     21 N           6.7872   -4.3488   29.3847 N.am    1  UNL1       -0.2971
     22 C           6.8883   -4.6847   30.8431 C.2     1  UNL1        0.2530
     23 O           6.7942   -6.1128   31.2921 O.2     1  UNL1       -0.2724
     24 H           6.8489   -3.4115   29.0900 H       1  UNL1        0.1499
     25 C           7.0833   -3.5925   31.8526 C.3     1  UNL1        0.2270
     26 O           5.9346   -3.1489   32.7091 O.3     1  UNL1       -0.3418
     27 C           4.9241   -2.1823   32.1665 C.3     1  UNL1        0.1748
     28 C           4.2414   -0.8196   17.0749 C.3     1  UNL1        0.2504
     29 N           3.9306   -2.1081   17.7772 N.pl3   1  UNL1       -0.2137
     30 H           3.5443   -2.8616   17.2751 H       1  UNL1        0.2924
@<TRIPOS>BOND
     1    28    29    1
     2    29     1    1
     3     1     2    2
     4     2     3    1
     5     3     4    2
     6     4     5    1
     7     5    14    1
     8    14    15   ar
     9    15    16   ar
    10    16    17   ar
    11    17    18   ar
    12    18    20    1
    13    20    21    1
    14    21    22   am
    15    22    23    2
    16    22    25    1
    17    25    26    1
    18    26    27    1
    19    18    19   ar
    20     5     6    2
    21     6     7    1
    22     7     8    1
    23     8     9   ar
    24     9    10   ar
    25    10    11   ar
    26    11    12   ar
    27    12    13    1
    28     9     1    1
    29     7     3    1
    30    12     8   ar
    31    19    14   ar
    32    29    30    1
    33    21    24    1
@<TRIPOS>MOLECULE
*****
 30 33 0 0 0
SMALL
GASTEIGER

@<TRIPOS>ATOM
      1 C           3.6374   -2.2714   20.0627 C.2     1  UNL1        0.3440
      2 N           4.3938   -2.7453   21.2683 N.2     1  UNL1        0.0036
      3 C           4.1415   -2.1167   22.6067 C.2     1  UNL1        0.3646
      4 N           4.7300   -2.3724   23.9625 N.2     1  UNL1       -0.0365
      5 C           4.0851   -1.4280   24.9332 C.2     1  UNL1        0.2073
      6 C           3.0981   -0.5887   24.1773 C.2     1  UNL1        0.0401
      7 C           3.1330   -1.0143   22.7394 C.3     1  UNL1        0.1775
      8 C           2.3767   -0.5405   21.5338 C.ar    1  UNL1        0.0793
      9 C           2.6289   -1.1691   20.1954 C.ar    1  UNL1        0.1773
     10 N           1.7377   -0.4978   19.1928 N.ar    1  UNL1       -0.2167
     11 C           0.9348    0.5456   19.9115 C.ar    1  UNL1        0.1786
     12 N           1.3297    0.5192   21.3583 N.ar    1  UNL1       -0.3094
     13 C           0.7749    1.3982   22.4397 C.3     1  UNL1        0.1318
     14 C           4.3761   -1.3386   26.4020 C.ar    1  UNL1        0.1235
     15 C           5.7582   -1.6223   26.9114 C.ar    1  UNL1        0.0229
     16 C           6.0491   -1.5329   28.3802 C.ar    1  UNL1        0.0029
     17 C           4.9581   -1.1598   29.3396 C.ar    1  UNL1        0.0165
     18 C           3.5761   -0.8762   28.8303 C.ar    1  UNL1        0.0789
     19 N           3.2851   -0.9656   27.3614 N.ar    1  UNL1       -0.2442
     20 C           2.4850   -0.5031   29.7896 C.3     1  UNL1        0.1358
     21 N           1.0594   -0.4620   29.3248 N.am    1  UNL1       -0.2971
     22 C           0.4397    0.8429   28.9206 C.2     1  UNL1        0.2530
     23 O           1.2456    2.1065   28.9813 O.2     1  UNL1       -0.2724
     24 H           0.5305   -1.2914   29.2850 H       1  UNL1        0.1499
     25 C          -0.9859    0.8841   28.4558 C.3     1  UNL1        0.2270
     26 O          -1.3867    1.8113   27.3469 O.3     1  UNL1       -0.3418
     27 C          -0.5946    1.8438   26.0735 C.3     1  UNL1        0.1748
     28 C           4.6128   -4.2113   18.6358 C.3     1  UNL1        0.2504
     29 N           3.8896   -2.9001   18.7242 N.pl3   1  UNL1       -0.2137
     30 H           3.5806   -2.4520   17.9039 H       1  UNL1        0.2924
@<TRIPOS>BOND
     1    28    29    1
     2    29     1    1
     3     1     2    2
     4     2     3    1
     5     3     4    2
     6     4     5    1
     7     5    14    1
     8    14    15   ar
     9    15    16   ar
    10    16    17   ar
    11    17    18   ar
    12    18    20    1
    13    20    21    1
    14    21    22   am
    15    22    23    2
    16    22    25    1
    17    25    26    1
    18    26    27    1
    19    18    19   ar
    20     5     6    2
    21     6     7    1
    22     7     8    1
    23     8     9   ar
    24     9    10   ar
    25    10    11   ar
    26    11    12   ar
    27    12    13    1
    28     9     1    1
    29     7     3    1
    30    12     8   ar
    31    19    14   ar
    32    29    30    1
    33    21    24    1
