@<TRIPOS>MOLECULE
*****
 12 13 0 0 0
SMALL
GASTEIGER

@<TRIPOS>ATOM
      1 C         -10.3300  -19.2027   24.9689 C.3     1  UNL1        0.4043
      2 N         -11.0055  -18.2055   24.0749 N.2     1  UNL1       -0.1572
      3 C         -12.4234  -18.2743   23.5904 C.2     1  UNL1        0.3960
      4 N         -12.6760  -17.0757   22.7245 N.2     1  UNL1       -0.1748
      5 C         -11.4142  -16.2663   22.6738 C.2     1  UNL1        0.1599
      6 C         -10.3817  -16.9646   23.5084 C.3     1  UNL1        0.3145
      7 C          -8.9729  -16.5028   23.7365 C.ar    1  UNL1        0.0730
      8 C          -8.6463  -15.6506   24.9268 C.ar    1  UNL1        0.0058
      9 C          -7.2375  -15.1889   25.1548 C.ar    1  UNL1        0.0206
     10 C          -6.1552  -15.5795   24.1925 C.ar    1  UNL1        0.0989
     11 N          -6.4818  -16.4318   23.0021 N.ar    1  UNL1       -0.2424
     12 C          -7.8906  -16.8934   22.7741 C.ar    1  UNL1        0.1015
@<TRIPOS>UNITY_ATOM_ATTR
2 1
charge 1
@<TRIPOS>BOND
     1     1     2    1
     2     2     3    2
     3     3     4    1
     4     4     5    2
     5     5     6    1
     6     6     7    1
     7     7     8   ar
     8     8     9   ar
     9     9    10   ar
    10    10    11   ar
    11    11    12   ar
    12     6     2    1
    13    12     7   ar
@<TRIPOS>MOLECULE
*****
 12 13 0 0 0
SMALL
GASTEIGER

@<TRIPOS>ATOM
      1 C         -11.8760  -16.4682   20.4118 C.3     1  UNL1        0.4043
      2 N         -11.8678  -17.2943   21.6638 N.2     1  UNL1       -0.1572
      3 C         -12.9325  -17.3043   22.7204 C.2     1  UNL1        0.3960
      4 N         -12.5163  -18.2716   23.7886 N.2     1  UNL1       -0.1748
      5 C         -11.1945  -18.8595   23.3922 C.2     1  UNL1        0.1599
      6 C         -10.7937  -18.2554   22.0789 C.3     1  UNL1        0.3145
      7 C          -9.5390  -18.5593   21.3149 C.ar    1  UNL1        0.0730
      8 C          -9.5912  -19.4549   20.1129 C.ar    1  UNL1        0.0058
      9 C          -8.3365  -19.7587   19.3490 C.ar    1  UNL1        0.0206
     10 C          -7.0298  -19.1668   19.7872 C.ar    1  UNL1        0.0989
     11 N          -6.9776  -18.2712   20.9892 N.ar    1  UNL1       -0.2424
     12 C          -8.2323  -17.9674   21.7531 C.ar    1  UNL1        0.1015
@<TRIPOS>UNITY_ATOM_ATTR
2 1
charge 1
@<TRIPOS>BOND
     1     1     2    1
     2     2     3    2
     3     3     4    1
     4     4     5    2
     5     5     6    1
     6     6     7    1
     7     7     8   ar
     8     8     9   ar
     9     9    10   ar
    10    10    11   ar
    11    11    12   ar
    12     6     2    1
    13    12     7   ar
@<TRIPOS>MOLECULE
*****
 12 13 0 0 0
SMALL
GASTEIGER

@<TRIPOS>ATOM
      1 C         -11.4683  -18.6430   23.7416 C.3     1  UNL1        0.4043
      2 N         -11.5940  -18.0094   22.3878 N.2     1  UNL1       -0.1572
      3 C         -12.8656  -17.5281   21.7543 C.2     1  UNL1        0.3960
      4 N         -12.5278  -16.9671   20.4048 N.2     1  UNL1       -0.1748
      5 C         -11.0473  -17.1018   20.2043 C.2     1  UNL1        0.1599
      6 C         -10.4702  -17.7459   21.4299 C.3     1  UNL1        0.3145
      7 C          -9.0233  -18.0697   21.6575 C.ar    1  UNL1        0.0730
      8 C          -8.4593  -19.3697   21.1656 C.ar    1  UNL1        0.0058
      9 C          -7.0125  -19.6934   21.3933 C.ar    1  UNL1        0.0206
     10 C          -6.1297  -18.7172   22.1128 C.ar    1  UNL1        0.0989
     11 N          -6.6937  -17.4172   22.6046 N.ar    1  UNL1       -0.2424
     12 C          -8.1405  -17.0935   22.3770 C.ar    1  UNL1        0.1015
@<TRIPOS>UNITY_ATOM_ATTR
2 1
charge 1
@<TRIPOS>BOND
     1     1     2    1
     2     2     3    2
     3     3     4    1
     4     4     5    2
     5     5     6    1
     6     6     7    1
     7     7     8   ar
     8     8     9   ar
     9     9    10   ar
    10    10    11   ar
    11    11    12   ar
    12     6     2    1
    13    12     7   ar
@<TRIPOS>MOLECULE
*****
 12 13 0 0 0
SMALL
GASTEIGER

@<TRIPOS>ATOM
      1 C         -11.0107  -16.2163   21.0520 C.3     1  UNL1        0.4043
      2 N         -10.7702  -17.6021   21.5732 N.2     1  UNL1       -0.1572
      3 C         -11.5104  -18.8399   21.1610 C.2     1  UNL1        0.3960
      4 N         -10.9450  -19.9963   21.9312 N.2     1  UNL1       -0.1748
      5 C          -9.8554  -19.4731   22.8194 C.2     1  UNL1        0.1599
      6 C          -9.7473  -17.9934   22.5982 C.3     1  UNL1        0.3145
      7 C          -8.7853  -17.0676   23.2820 C.ar    1  UNL1        0.0730
      8 C          -9.2320  -16.2631   24.4665 C.ar    1  UNL1        0.0058
      9 C          -8.2699  -15.3374   25.1502 C.ar    1  UNL1        0.0206
     10 C          -6.8612  -15.2162   24.6494 C.ar    1  UNL1        0.0989
     11 N          -6.4146  -16.0207   23.4648 N.ar    1  UNL1       -0.2424
     12 C          -7.3766  -16.9464   22.7811 C.ar    1  UNL1        0.1015
@<TRIPOS>UNITY_ATOM_ATTR
2 1
charge 1
@<TRIPOS>BOND
     1     1     2    1
     2     2     3    2
     3     3     4    1
     4     4     5    2
     5     5     6    1
     6     6     7    1
     7     7     8   ar
     8     8     9   ar
     9     9    10   ar
    10    10    11   ar
    11    11    12   ar
    12     6     2    1
    13    12     7   ar
@<TRIPOS>MOLECULE
*****
 12 13 0 0 0
SMALL
GASTEIGER

@<TRIPOS>ATOM
      1 C          -8.5825  -19.5623   19.5791 C.3     1  UNL1        0.4043
      2 N          -7.3978  -19.2158   20.4314 N.2     1  UNL1       -0.1572
      3 C          -5.9752  -19.1186   19.9660 C.2     1  UNL1        0.3960
      4 N          -5.1258  -18.7483   21.1456 N.2     1  UNL1       -0.1748
      5 C          -6.0236  -18.6167   22.3401 C.2     1  UNL1        0.1599
      6 C          -7.4278  -18.9056   21.8986 C.3     1  UNL1        0.3145
      7 C          -8.6477  -18.8876   22.7713 C.ar    1  UNL1        0.0730
      8 C          -9.0727  -20.1324   23.4921 C.ar    1  UNL1        0.0058
      9 C         -10.2926  -20.1143   24.3648 C.ar    1  UNL1        0.0206
     10 C         -11.0875  -18.8513   24.5166 C.ar    1  UNL1        0.0989
     11 N         -10.6624  -17.6064   23.7958 N.ar    1  UNL1       -0.2424
     12 C          -9.4426  -17.6246   22.9231 C.ar    1  UNL1        0.1015
@<TRIPOS>UNITY_ATOM_ATTR
2 1
charge 1
@<TRIPOS>BOND
     1     1     2    1
     2     2     3    2
     3     3     4    1
     4     4     5    2
     5     5     6    1
     6     6     7    1
     7     7     8   ar
     8     8     9   ar
     9     9    10   ar
    10    10    11   ar
    11    11    12   ar
    12     6     2    1
    13    12     7   ar
@<TRIPOS>MOLECULE
*****
 12 13 0 0 0
SMALL
GASTEIGER

@<TRIPOS>ATOM
      1 C          -7.8913  -19.6142   22.2549 C.3     1  UNL1        0.4043
      2 N          -7.6778  -18.1551   22.5296 N.2     1  UNL1       -0.1572
      3 C          -6.3686  -17.5031   22.8627 C.2     1  UNL1        0.3960
      4 N          -6.6176  -16.0368   23.0585 N.2     1  UNL1       -0.1748
      5 C          -8.0806  -15.7828   22.8465 C.2     1  UNL1        0.1599
      6 C          -8.7358  -17.0920   22.5196 C.3     1  UNL1        0.3145
      7 C         -10.1933  -17.3012   22.2330 C.ar    1  UNL1        0.0730
      8 C         -11.1403  -17.6154   23.3530 C.ar    1  UNL1        0.0058
      9 C         -12.5977  -17.8246   23.0664 C.ar    1  UNL1        0.0206
     10 C         -13.1081  -17.7195   21.6598 C.ar    1  UNL1        0.0989
     11 N         -12.1611  -17.4053   20.5399 N.ar    1  UNL1       -0.2424
     12 C         -10.7037  -17.1961   20.8265 C.ar    1  UNL1        0.1015
@<TRIPOS>UNITY_ATOM_ATTR
2 1
charge 1
@<TRIPOS>BOND
     1     1     2    1
     2     2     3    2
     3     3     4    1
     4     4     5    2
     5     5     6    1
     6     6     7    1
     7     7     8   ar
     8     8     9   ar
     9     9    10   ar
    10    10    11   ar
    11    11    12   ar
    12     6     2    1
    13    12     7   ar
@<TRIPOS>MOLECULE
*****
 12 13 0 0 0
SMALL
GASTEIGER

@<TRIPOS>ATOM
      1 C         -10.9955  -18.2619   20.7445 C.3     1  UNL1        0.4043
      2 N         -11.0974  -18.3985   22.2348 N.2     1  UNL1       -0.1572
      3 C         -12.3625  -18.3546   23.0396 C.2     1  UNL1        0.3960
      4 N         -11.9992  -18.5320   24.4842 N.2     1  UNL1       -0.1748
      5 C         -10.5097  -18.6856   24.5720 C.2     1  UNL1        0.1599
      6 C          -9.9524  -18.6031   23.1818 C.3     1  UNL1        0.3145
      7 C          -8.5042  -18.7069   22.8049 C.ar    1  UNL1        0.0730
      8 C          -7.9230  -20.0346   22.4186 C.ar    1  UNL1        0.0058
      9 C          -6.4749  -20.1384   22.0417 C.ar    1  UNL1        0.0206
     10 C          -5.6079  -18.9143   22.0511 C.ar    1  UNL1        0.0989
     11 N          -6.1890  -17.5866   22.4374 N.ar    1  UNL1       -0.2424
     12 C          -7.6372  -17.4828   22.8143 C.ar    1  UNL1        0.1015
@<TRIPOS>UNITY_ATOM_ATTR
2 1
charge 1
@<TRIPOS>BOND
     1     1     2    1
     2     2     3    2
     3     3     4    1
     4     4     5    2
     5     5     6    1
     6     6     7    1
     7     7     8   ar
     8     8     9   ar
     9     9    10   ar
    10    10    11   ar
    11    11    12   ar
    12     6     2    1
    13    12     7   ar
@<TRIPOS>MOLECULE
*****
 12 13 0 0 0
SMALL
GASTEIGER

@<TRIPOS>ATOM
      1 C         -13.1335   -7.0093   16.6339 C.3     1  UNL1        0.4043
      2 N         -11.8403   -7.1443   17.3818 N.2     1  UNL1       -0.1572
      3 C         -10.7565   -8.1411   17.0961 C.2     1  UNL1        0.3960
      4 N          -9.6501   -7.9191   18.0844 N.2     1  UNL1       -0.1748
      5 C         -10.0502   -6.7850   18.9809 C.2     1  UNL1        0.1599
      6 C         -11.4038   -6.3061   18.5467 C.3     1  UNL1        0.3145
      7 C         -12.1839   -5.1857   19.1682 C.ar    1  UNL1        0.0730
      8 C         -13.3921   -5.4868   20.0045 C.ar    1  UNL1        0.0058
      9 C         -14.1722   -4.3665   20.6261 C.ar    1  UNL1        0.0206
     10 C         -13.7440   -2.9451   20.4113 C.ar    1  UNL1        0.0989
     11 N         -12.5357   -2.6440   19.5750 N.ar    1  UNL1       -0.2424
     12 C         -11.7557   -3.7643   18.9535 C.ar    1  UNL1        0.1015
@<TRIPOS>UNITY_ATOM_ATTR
2 1
charge 1
@<TRIPOS>BOND
     1     1     2    1
     2     2     3    2
     3     3     4    1
     4     4     5    2
     5     5     6    1
     6     6     7    1
     7     7     8   ar
     8     8     9   ar
     9     9    10   ar
    10    10    11   ar
    11    11    12   ar
    12     6     2    1
    13    12     7   ar
@<TRIPOS>MOLECULE
*****
 12 13 0 0 0
SMALL
GASTEIGER

@<TRIPOS>ATOM
      1 C         -10.6437  -15.9298   21.2055 C.3     1  UNL1        0.4043
      2 N         -11.0730  -16.8948   22.2705 N.2     1  UNL1       -0.1572
      3 C         -12.3456  -17.6887   22.2799 C.2     1  UNL1        0.3960
      4 N         -12.3642  -18.5200   23.5284 N.2     1  UNL1       -0.1748
      5 C         -11.1031  -18.2398   24.2906 C.2     1  UNL1        0.1599
      6 C         -10.3051  -17.2354   23.5132 C.3     1  UNL1        0.3145
      7 C          -8.9730  -16.6706   23.9091 C.ar    1  UNL1        0.0730
      8 C          -7.7556  -16.9735   23.0867 C.ar    1  UNL1        0.0058
      9 C          -6.4236  -16.4088   23.4826 C.ar    1  UNL1        0.0206
     10 C          -6.3089  -15.5412   24.7008 C.ar    1  UNL1        0.0989
     11 N          -7.5262  -15.2384   25.5232 N.ar    1  UNL1       -0.2424
     12 C          -8.8582  -15.8031   25.1274 C.ar    1  UNL1        0.1015
@<TRIPOS>UNITY_ATOM_ATTR
2 1
charge 1
@<TRIPOS>BOND
     1     1     2    1
     2     2     3    2
     3     3     4    1
     4     4     5    2
     5     5     6    1
     6     6     7    1
     7     7     8   ar
     8     8     9   ar
     9     9    10   ar
    10    10    11   ar
    11    11    12   ar
    12     6     2    1
    13    12     7   ar
