@<TRIPOS>MOLECULE
*****
 31 34 0 0 0
SMALL
GASTEIGER

@<TRIPOS>ATOM
      1 N           7.4114   -3.9754   26.9187 N.pl3   1  UNL1       -0.2567
      2 C           7.0451   -3.4539   28.2766 C.ar    1  UNL1        0.1408
      3 N           6.7919   -1.9758   28.2461 N.ar    1  UNL1       -0.2290
      4 C           6.4106   -1.2541   29.5045 C.ar    1  UNL1        0.0969
      5 C           6.2826   -2.0104   30.7935 C.ar    1  UNL1        0.0084
      6 C           6.5358   -3.4886   30.8240 C.ar    1  UNL1        0.0055
      7 C           6.9171   -4.2103   29.5656 C.ar    1  UNL1        0.0853
      8 C           7.1237   -5.6749   29.8150 C.2     1  UNL1        0.2523
      9 O           6.9174   -6.1297   31.2294 O.2     1  UNL1       -0.2697
     10 N           7.5094   -6.7450   28.8371 N.am    1  UNL1       -0.2784
     11 C           7.7837   -6.6145   27.3681 C.ar    1  UNL1        0.0790
     12 C           8.1394   -7.9376   26.7575 C.ar    1  UNL1       -0.0032
     13 C           8.1830   -9.1701   27.6113 C.3     1  UNL1        0.0325
     14 C           8.4516   -8.0282   25.2931 C.ar    1  UNL1        0.0279
     15 C           8.4080   -6.7957   24.4394 C.ar    1  UNL1        0.1395
     16 CL          8.7202   -6.8861   22.9751 Cl      1  UNL1       -0.0613
     17 N           8.0523   -5.4726   25.0500 N.ar    1  UNL1       -0.2177
     18 C           7.7401   -5.3820   26.5143 C.ar    1  UNL1        0.1506
     19 H           7.5936   -7.6528   29.2084 H       1  UNL1        0.1552
     20 C           6.2139   -2.6433   25.0368 C.3     1  UNL1        0.0237
     21 C           7.4547   -2.9554   25.8198 C.3     1  UNL1        0.0984
     22 C           5.9013   -1.2886   32.0519 C.3     1  UNL1        0.0899
     23 S           4.4974   -1.3790   32.5724 S.3     1  UNL1       -0.1087
     24 C           3.4363   -0.4678   32.0302 C.ar    1  UNL1        0.0279
     25 C           3.0295    0.7523   32.8021 C.ar    1  UNL1        0.0209
     26 C           1.9685    1.6634   32.2599 C.ar    1  UNL1        0.0595
     27 C           1.5616    2.8836   33.0317 C.3     1  UNL1        0.0521
     28 N           1.3143    1.3545   30.9459 N.ar    1  UNL1       -0.2539
     29 C           1.7211    0.1344   30.1741 C.ar    1  UNL1        0.0595
     30 C           1.0670   -0.1746   28.8601 C.3     1  UNL1        0.0521
     31 C           2.7822   -0.7768   30.7162 C.ar    1  UNL1        0.0209
@<TRIPOS>BOND
     1    20    21    1
     2    21     1    1
     3     1     2    1
     4     2     3   ar
     5     3     4   ar
     6     4     5   ar
     7     5    22    1
     8    22    23    1
     9    23    24    1
    10    24    25   ar
    11    25    26   ar
    12    26    27    1
    13    26    28   ar
    14    28    29   ar
    15    29    30    1
    16    29    31   ar
    17     5     6   ar
    18     6     7   ar
    19     7     8    1
    20     8     9    2
    21     8    10   am
    22    10    11    1
    23    11    12   ar
    24    12    13    1
    25    12    14   ar
    26    14    15   ar
    27    15    16    1
    28    15    17   ar
    29    17    18   ar
    30    18     1    1
    31     7     2   ar
    32    18    11   ar
    33    31    24   ar
    34    10    19    1
@<TRIPOS>MOLECULE
*****
 31 34 0 0 0
SMALL
GASTEIGER

@<TRIPOS>ATOM
      1 N           5.1191   -2.8364   23.4570 N.pl3   1  UNL1       -0.2567
      2 C           4.9663   -2.0331   24.7145 C.ar    1  UNL1        0.1408
      3 N           5.8712   -2.5365   25.7998 N.ar    1  UNL1       -0.2290
      4 C           5.8739   -1.8697   27.1434 C.ar    1  UNL1        0.0969
      5 C           4.9717   -0.6995   27.4018 C.ar    1  UNL1        0.0084
      6 C           4.0668   -0.1961   26.3165 C.ar    1  UNL1        0.0055
      7 C           4.0642   -0.8629   24.9729 C.ar    1  UNL1        0.0853
      8 C           3.0920   -0.2071   24.0376 C.2     1  UNL1        0.2523
      9 O           2.3290    0.9547   24.6016 O.2     1  UNL1       -0.2697
     10 N           2.7818   -0.5594   22.6129 N.am    1  UNL1       -0.2784
     11 C           3.3674   -1.6546   21.7717 C.ar    1  UNL1        0.0790
     12 C           2.7774   -1.6613   20.3926 C.ar    1  UNL1       -0.0032
     13 C           1.7373   -0.6480   20.0170 C.3     1  UNL1        0.0325
     14 C           3.2277   -2.6813   19.3891 C.ar    1  UNL1        0.0279
     15 C           4.2678   -3.6946   19.7647 C.ar    1  UNL1        0.1395
     16 CL          4.7181   -4.7146   18.7614 Cl      1  UNL1       -0.0613
     17 N           4.8578   -3.6880   21.1438 N.ar    1  UNL1       -0.2177
     18 C           4.4076   -2.6680   22.1473 C.ar    1  UNL1        0.1506
     19 H           2.1045    0.0025   22.1717 H       1  UNL1        0.1552
     20 C           7.5426   -3.7122   23.1254 C.3     1  UNL1        0.0237
     21 C           6.1153   -3.9562   23.5171 C.3     1  UNL1        0.0984
     22 C           4.9744   -0.0327   28.7455 C.3     1  UNL1        0.0899
     23 S           4.0581   -0.5222   29.8275 S.3     1  UNL1       -0.1087
     24 C           2.7009    0.0939   29.9965 C.ar    1  UNL1        0.0279
     25 C           2.4988    1.2035   30.9853 C.ar    1  UNL1        0.0209
     26 C           1.1417    1.8195   31.1543 C.ar    1  UNL1        0.0595
     27 C           0.9395    2.9293   32.1432 C.3     1  UNL1        0.0521
     28 N          -0.0134    1.3259   30.3346 N.ar    1  UNL1       -0.2539
     29 C           0.1886    0.2162   29.3457 C.ar    1  UNL1        0.0595
     30 C          -0.9664   -0.2774   28.5260 C.3     1  UNL1        0.0521
     31 C           1.5458   -0.3998   29.1767 C.ar    1  UNL1        0.0209
@<TRIPOS>BOND
     1    20    21    1
     2    21     1    1
     3     1     2    1
     4     2     3   ar
     5     3     4   ar
     6     4     5   ar
     7     5    22    1
     8    22    23    1
     9    23    24    1
    10    24    25   ar
    11    25    26   ar
    12    26    27    1
    13    26    28   ar
    14    28    29   ar
    15    29    30    1
    16    29    31   ar
    17     5     6   ar
    18     6     7   ar
    19     7     8    1
    20     8     9    2
    21     8    10   am
    22    10    11    1
    23    11    12   ar
    24    12    13    1
    25    12    14   ar
    26    14    15   ar
    27    15    16    1
    28    15    17   ar
    29    17    18   ar
    30    18     1    1
    31     7     2   ar
    32    18    11   ar
    33    31    24   ar
    34    10    19    1
@<TRIPOS>MOLECULE
*****
 31 34 0 0 0
SMALL
GASTEIGER

@<TRIPOS>ATOM
      1 N           4.8211   -1.4921   26.7092 N.pl3   1  UNL1       -0.2567
      2 C           4.2729   -1.2401   25.3359 C.ar    1  UNL1        0.1408
      3 N           3.3647   -0.0464   25.3189 N.ar    1  UNL1       -0.2290
      4 C           2.7093    0.3791   24.0385 C.ar    1  UNL1        0.0969
      5 C           2.9622   -0.3890   22.7752 C.ar    1  UNL1        0.0084
      6 C           3.8704   -1.5826   22.7922 C.ar    1  UNL1        0.0055
      7 C           4.5258   -2.0082   24.0725 C.ar    1  UNL1        0.0853
      8 C           5.3893   -3.2180   23.8705 C.2     1  UNL1        0.2523
      9 O           5.4349   -3.7588   22.4721 O.2     1  UNL1       -0.2697
     10 N           6.2131   -3.9585   24.8819 N.am    1  UNL1       -0.2784
     11 C           6.3770   -3.6720   26.3451 C.ar    1  UNL1        0.0790
     12 C           7.2961   -4.6617   26.9977 C.ar    1  UNL1       -0.0032
     13 C           7.9156   -5.7593   26.1845 C.3     1  UNL1        0.0325
     14 C           7.5957   -4.5537   28.4635 C.ar    1  UNL1        0.0279
     15 C           6.9762   -3.4560   29.2767 C.ar    1  UNL1        0.1395
     16 CL          7.2758   -3.3480   30.7425 Cl      1  UNL1       -0.0613
     17 N           6.0571   -2.4664   28.6242 N.ar    1  UNL1       -0.2177
     18 C           5.7575   -2.5744   27.1584 C.ar    1  UNL1        0.1506
     19 H           6.7123   -4.7352   24.5401 H       1  UNL1        0.1552
     20 C           3.0440   -0.7247   28.4422 C.3     1  UNL1        0.0237
     21 C           4.3737   -0.5352   27.7742 C.3     1  UNL1        0.0984
     22 C           2.3068    0.0366   21.4947 C.3     1  UNL1        0.0899
     23 S           2.0208   -0.9761   20.4259 S.3     1  UNL1       -0.1087
     24 C           3.1420   -1.5272   19.5955 C.ar    1  UNL1        0.0279
     25 C           4.0197   -0.5988   18.8096 C.ar    1  UNL1        0.0209
     26 C           5.1408   -1.1499   17.9793 C.ar    1  UNL1        0.0595
     27 C           6.0186   -0.2214   17.1934 C.3     1  UNL1        0.0521
     28 N           5.3842   -2.6293   17.9349 N.ar    1  UNL1       -0.2539
     29 C           4.5065   -3.5577   18.7208 C.ar    1  UNL1        0.0595
     30 C           4.7498   -5.0372   18.6764 C.3     1  UNL1        0.0521
     31 C           3.3854   -3.0066   19.5511 C.ar    1  UNL1        0.0209
@<TRIPOS>BOND
     1    20    21    1
     2    21     1    1
     3     1     2    1
     4     2     3   ar
     5     3     4   ar
     6     4     5   ar
     7     5    22    1
     8    22    23    1
     9    23    24    1
    10    24    25   ar
    11    25    26   ar
    12    26    27    1
    13    26    28   ar
    14    28    29   ar
    15    29    30    1
    16    29    31   ar
    17     5     6   ar
    18     6     7   ar
    19     7     8    1
    20     8     9    2
    21     8    10   am
    22    10    11    1
    23    11    12   ar
    24    12    13    1
    25    12    14   ar
    26    14    15   ar
    27    15    16    1
    28    15    17   ar
    29    17    18   ar
    30    18     1    1
    31     7     2   ar
    32    18    11   ar
    33    31    24   ar
    34    10    19    1
@<TRIPOS>MOLECULE
*****
 31 34 0 0 0
SMALL
GASTEIGER

@<TRIPOS>ATOM
      1 N           2.4077   -0.5755   21.1164 N.pl3   1  UNL1       -0.2567
      2 C           1.8607    0.2614   22.2346 C.ar    1  UNL1        0.1408
      3 N           0.8204    1.2228   21.7413 N.ar    1  UNL1       -0.2290
      4 C           0.1449    2.1553   22.7027 C.ar    1  UNL1        0.0969
      5 C           0.5098    2.1263   24.1574 C.ar    1  UNL1        0.0084
      6 C           1.5501    1.1648   24.6507 C.ar    1  UNL1        0.0055
      7 C           2.2255    0.2324   23.6893 C.ar    1  UNL1        0.0853
      8 C           3.2275   -0.6406   24.3849 C.2     1  UNL1        0.2523
      9 O           3.3628   -0.4256   25.8633 O.2     1  UNL1       -0.2697
     10 N           4.1121   -1.7002   23.7978 N.am    1  UNL1       -0.2784
     11 C           4.2132   -2.1485   22.3699 C.ar    1  UNL1        0.0790
     12 C           5.2283   -3.2411   22.2091 C.ar    1  UNL1       -0.0032
     13 C           5.9868   -3.7416   23.4024 C.3     1  UNL1        0.0325
     14 C           5.4848   -3.8331   20.8549 C.ar    1  UNL1        0.0279
     15 C           4.7264   -3.3326   19.6616 C.ar    1  UNL1        0.1395
     16 CL          4.9829   -3.9245   18.3075 Cl      1  UNL1       -0.0613
     17 N           3.7113   -2.2400   19.8224 N.ar    1  UNL1       -0.2177
     18 C           3.4547   -1.6480   21.1765 C.ar    1  UNL1        0.1506
     19 H           4.7047   -2.1626   24.4337 H       1  UNL1        0.1552
     20 C           2.4934    0.6873   18.8474 C.3     1  UNL1        0.0237
     21 C           1.8316   -0.3038   19.7583 C.3     1  UNL1        0.0984
     22 C          -0.1657    3.0588   25.1188 C.3     1  UNL1        0.0899
     23 S           0.5359    3.4762   26.3771 S.3     1  UNL1       -0.1087
     24 C           0.3149    2.7108   27.6482 C.ar    1  UNL1        0.0279
     25 C          -0.4750    1.4359   27.6283 C.ar    1  UNL1        0.0209
     26 C          -0.6959    0.6706   28.8994 C.ar    1  UNL1        0.0595
     27 C          -1.4859   -0.6044   28.8795 C.3     1  UNL1        0.0521
     28 N          -0.1269    1.1804   30.1903 N.ar    1  UNL1       -0.2539
     29 C           0.6630    2.4553   30.2101 C.ar    1  UNL1        0.0595
     30 C           1.2320    2.9651   31.5010 C.3     1  UNL1        0.0521
     31 C           0.8839    3.2206   28.9391 C.ar    1  UNL1        0.0209
@<TRIPOS>BOND
     1    20    21    1
     2    21     1    1
     3     1     2    1
     4     2     3   ar
     5     3     4   ar
     6     4     5   ar
     7     5    22    1
     8    22    23    1
     9    23    24    1
    10    24    25   ar
    11    25    26   ar
    12    26    27    1
    13    26    28   ar
    14    28    29   ar
    15    29    30    1
    16    29    31   ar
    17     5     6   ar
    18     6     7   ar
    19     7     8    1
    20     8     9    2
    21     8    10   am
    22    10    11    1
    23    11    12   ar
    24    12    13    1
    25    12    14   ar
    26    14    15   ar
    27    15    16    1
    28    15    17   ar
    29    17    18   ar
    30    18     1    1
    31     7     2   ar
    32    18    11   ar
    33    31    24   ar
    34    10    19    1
@<TRIPOS>MOLECULE
*****
 31 34 0 0 0
SMALL
GASTEIGER

@<TRIPOS>ATOM
      1 N           1.7723   -0.2441   20.8721 N.pl3   1  UNL1       -0.2567
      2 C           1.1762    0.7186   21.8560 C.ar    1  UNL1        0.1408
      3 N           0.1610    1.6100   21.2042 N.ar    1  UNL1       -0.2290
      4 C          -0.5561    2.6482   22.0152 C.ar    1  UNL1        0.0969
      5 C          -0.2580    2.7952   23.4779 C.ar    1  UNL1        0.0084
      6 C           0.7572    1.9038   24.1297 C.ar    1  UNL1        0.0055
      7 C           1.4743    0.8656   23.3187 C.ar    1  UNL1        0.0853
      8 C           2.4422    0.0861   24.1588 C.2     1  UNL1        0.2523
      9 O           2.5102    0.4773   25.6053 O.2     1  UNL1       -0.2697
     10 N           3.3509   -1.0328   23.7437 N.am    1  UNL1       -0.2784
     11 C           3.5163   -1.6485   22.3859 C.ar    1  UNL1        0.0790
     12 C           4.5359   -2.7485   22.4036 C.ar    1  UNL1       -0.0032
     13 C           5.2384   -3.0995   23.6815 C.3     1  UNL1        0.0325
     14 C           4.8530   -3.4976   21.1432 C.ar    1  UNL1        0.0279
     15 C           4.1505   -3.1466   19.8653 C.ar    1  UNL1        0.1395
     16 CL          4.4675   -3.8955   18.6049 Cl      1  UNL1       -0.0613
     17 N           3.1309   -2.0466   19.8476 N.ar    1  UNL1       -0.2177
     18 C           2.8137   -1.2976   21.1079 C.ar    1  UNL1        0.1506
     19 H           3.9132   -1.4133   24.4567 H       1  UNL1        0.1552
     20 C           1.9346    0.7747   18.4876 C.3     1  UNL1        0.0237
     21 C           1.2591   -0.1394   19.4665 C.3     1  UNL1        0.0984
     22 C          -0.9751    3.8335   24.2889 C.3     1  UNL1        0.0899
     23 S          -2.0020    3.4180   25.3001 S.3     1  UNL1       -0.1087
     24 C          -3.4135    3.9120   25.1824 C.ar    1  UNL1        0.0279
     25 C          -4.1934    3.6616   23.9258 C.ar    1  UNL1        0.0209
     26 C          -5.6047    4.1557   23.8081 C.ar    1  UNL1        0.0595
     27 C          -6.3847    3.9053   22.5515 C.3     1  UNL1        0.0521
     28 N          -6.2362    4.9002   24.9470 N.ar    1  UNL1       -0.2539
     29 C          -5.4563    5.1506   26.2035 C.ar    1  UNL1        0.0595
     30 C          -6.0878    5.8950   27.3424 C.3     1  UNL1        0.0521
     31 C          -4.0450    4.6565   26.3212 C.ar    1  UNL1        0.0209
@<TRIPOS>BOND
     1    20    21    1
     2    21     1    1
     3     1     2    1
     4     2     3   ar
     5     3     4   ar
     6     4     5   ar
     7     5    22    1
     8    22    23    1
     9    23    24    1
    10    24    25   ar
    11    25    26   ar
    12    26    27    1
    13    26    28   ar
    14    28    29   ar
    15    29    30    1
    16    29    31   ar
    17     5     6   ar
    18     6     7   ar
    19     7     8    1
    20     8     9    2
    21     8    10   am
    22    10    11    1
    23    11    12   ar
    24    12    13    1
    25    12    14   ar
    26    14    15   ar
    27    15    16    1
    28    15    17   ar
    29    17    18   ar
    30    18     1    1
    31     7     2   ar
    32    18    11   ar
    33    31    24   ar
    34    10    19    1
@<TRIPOS>MOLECULE
*****
 31 34 0 0 0
SMALL
GASTEIGER

@<TRIPOS>ATOM
      1 N           2.6615   -0.2002   23.3744 N.pl3   1  UNL1       -0.2567
      2 C           1.6451    0.7627   22.8362 C.ar    1  UNL1        0.1408
      3 N           1.1946    1.7301   23.8903 N.ar    1  UNL1       -0.2290
      4 C           0.1769    2.7808   23.5583 C.ar    1  UNL1        0.0969
      5 C          -0.3903    2.8641   22.1722 C.ar    1  UNL1        0.0084
      6 C           0.0601    1.8967   21.1181 C.ar    1  UNL1        0.0055
      7 C           1.0778    0.8460   21.4501 C.ar    1  UNL1        0.0853
      8 C           1.3868   -0.0131   20.2600 C.2     1  UNL1        0.2523
      9 O           0.6451    0.3274   19.0014 O.2     1  UNL1       -0.2697
     10 N           2.3394   -1.1676   20.1619 N.am    1  UNL1       -0.2784
     11 C           3.2183   -1.7482   21.2298 C.ar    1  UNL1        0.0790
     12 C           4.0212   -2.9039   20.7105 C.ar    1  UNL1       -0.0032
     13 C           3.8779   -3.3344   19.2808 C.3     1  UNL1        0.0325
     14 C           4.9674   -3.6291   21.6209 C.ar    1  UNL1        0.0279
     15 C           5.1107   -3.1986   23.0506 C.ar    1  UNL1        0.1395
     16 CL          6.0569   -3.9237   23.9610 Cl      1  UNL1       -0.0613
     17 N           4.3079   -2.0429   23.5699 N.ar    1  UNL1       -0.2177
     18 C           3.3617   -1.3177   22.6596 C.ar    1  UNL1        0.1506
     19 H           2.3952   -1.6017   19.2800 H       1  UNL1        0.1552
     20 C           4.1638    0.8780   25.1994 C.3     1  UNL1        0.0237
     21 C           3.0259   -0.0221   24.8186 C.3     1  UNL1        0.0984
     22 C          -1.4081    3.9149   21.8403 C.3     1  UNL1        0.0899
     23 S          -2.8464    3.5330   21.6521 S.3     1  UNL1       -0.1087
     24 C          -3.8304    3.7450   22.7644 C.ar    1  UNL1        0.0279
     25 C          -3.3678    3.7145   24.1909 C.ar    1  UNL1        0.0209
     26 C          -4.3517    3.9265   25.3030 C.ar    1  UNL1        0.0595
     27 C          -3.8892    3.8960   26.7297 C.3     1  UNL1        0.0521
     28 N          -5.7982    4.1690   24.9886 N.ar    1  UNL1       -0.2539
     29 C          -6.2608    4.1994   23.5621 C.ar    1  UNL1        0.0595
     30 C          -7.7073    4.4419   23.2477 C.3     1  UNL1        0.0521
     31 C          -5.2769    3.9874   22.4500 C.ar    1  UNL1        0.0209
@<TRIPOS>BOND
     1    20    21    1
     2    21     1    1
     3     1     2    1
     4     2     3   ar
     5     3     4   ar
     6     4     5   ar
     7     5    22    1
     8    22    23    1
     9    23    24    1
    10    24    25   ar
    11    25    26   ar
    12    26    27    1
    13    26    28   ar
    14    28    29   ar
    15    29    30    1
    16    29    31   ar
    17     5     6   ar
    18     6     7   ar
    19     7     8    1
    20     8     9    2
    21     8    10   am
    22    10    11    1
    23    11    12   ar
    24    12    13    1
    25    12    14   ar
    26    14    15   ar
    27    15    16    1
    28    15    17   ar
    29    17    18   ar
    30    18     1    1
    31     7     2   ar
    32    18    11   ar
    33    31    24   ar
    34    10    19    1
@<TRIPOS>MOLECULE
*****
 31 34 0 0 0
SMALL
GASTEIGER

@<TRIPOS>ATOM
      1 N           5.3173   -2.8275   21.1990 N.pl3   1  UNL1       -0.2567
      2 C           5.8618   -3.3702   22.4871 C.ar    1  UNL1        0.1408
      3 N           6.8859   -4.4385   22.2424 N.ar    1  UNL1       -0.2290
      4 C           7.5564   -5.1143   23.4016 C.ar    1  UNL1        0.0969
      5 C           7.2027   -4.7218   24.8055 C.ar    1  UNL1        0.0084
      6 C           6.1786   -3.6535   25.0502 C.ar    1  UNL1        0.0055
      7 C           5.5082   -2.9777   23.8910 C.ar    1  UNL1        0.0853
      8 C           4.5228   -1.9456   24.3535 C.2     1  UNL1        0.2523
      9 O           4.3957   -1.7871   25.8397 O.2     1  UNL1       -0.2697
     10 N           3.6476   -1.0512   23.5264 N.am    1  UNL1       -0.2784
     11 C           3.5417   -0.9679   22.0324 C.ar    1  UNL1        0.0790
     12 C           2.5397    0.0656   21.6109 C.ar    1  UNL1       -0.0032
     13 C           1.7966    0.8561   22.6466 C.3     1  UNL1        0.0325
     14 C           2.2807    0.3085   20.1535 C.ar    1  UNL1        0.0279
     15 C           3.0238   -0.4820   19.1177 C.ar    1  UNL1        0.1395
     16 CL          2.7649   -0.2391   17.6603 Cl      1  UNL1       -0.0613
     17 N           4.0259   -1.5155   19.5393 N.ar    1  UNL1       -0.2177
     18 C           4.2848   -1.7585   20.9966 C.ar    1  UNL1        0.1506
     19 H           3.0658   -0.4377   24.0308 H       1  UNL1        0.1552
     20 C           5.1120   -4.4968   19.2187 C.3     1  UNL1        0.0237
     21 C           5.8798   -3.4343   19.9478 C.3     1  UNL1        0.0984
     22 C           7.8732   -5.3977   25.9647 C.3     1  UNL1        0.0899
     23 S           7.0466   -6.0416   27.0379 S.3     1  UNL1       -0.1087
     24 C           7.3221   -5.7377   28.4808 C.ar    1  UNL1        0.0279
     25 C           8.2607   -6.6066   29.2643 C.ar    1  UNL1        0.0209
     26 C           8.5363   -6.3027   30.7070 C.ar    1  UNL1        0.0595
     27 C           9.4749   -7.1717   31.4906 C.3     1  UNL1        0.0521
     28 N           7.8732   -5.1298   31.3663 N.ar    1  UNL1       -0.2539
     29 C           6.9346   -4.2608   30.5829 C.ar    1  UNL1        0.0595
     30 C           6.2716   -3.0880   31.2422 C.3     1  UNL1        0.0521
     31 C           6.6591   -4.5648   29.1401 C.ar    1  UNL1        0.0209
@<TRIPOS>BOND
     1    20    21    1
     2    21     1    1
     3     1     2    1
     4     2     3   ar
     5     3     4   ar
     6     4     5   ar
     7     5    22    1
     8    22    23    1
     9    23    24    1
    10    24    25   ar
    11    25    26   ar
    12    26    27    1
    13    26    28   ar
    14    28    29   ar
    15    29    30    1
    16    29    31   ar
    17     5     6   ar
    18     6     7   ar
    19     7     8    1
    20     8     9    2
    21     8    10   am
    22    10    11    1
    23    11    12   ar
    24    12    13    1
    25    12    14   ar
    26    14    15   ar
    27    15    16    1
    28    15    17   ar
    29    17    18   ar
    30    18     1    1
    31     7     2   ar
    32    18    11   ar
    33    31    24   ar
    34    10    19    1
@<TRIPOS>MOLECULE
*****
 31 34 0 0 0
SMALL
GASTEIGER

@<TRIPOS>ATOM
      1 N           5.4340   -3.3336   21.9934 N.pl3   1  UNL1       -0.2567
      2 C           4.3868   -2.2647   22.0980 C.ar    1  UNL1        0.1408
      3 N           3.8276   -1.9117   20.7517 N.ar    1  UNL1       -0.2290
      4 C           2.7639   -0.8608   20.6335 C.ar    1  UNL1        0.0969
      5 C           2.2593   -0.1630   21.8616 C.ar    1  UNL1        0.0084
      6 C           2.8184   -0.5160   23.2080 C.ar    1  UNL1        0.0055
      7 C           3.8821   -1.5669   23.3262 C.ar    1  UNL1        0.0853
      8 C           4.3001   -1.7656   24.7530 C.2     1  UNL1        0.2523
      9 O           3.5996   -0.9049   25.7622 O.2     1  UNL1       -0.2697
     10 N           5.3259   -2.7111   25.3041 N.am    1  UNL1       -0.2784
     11 C           6.1871   -3.6915   24.5644 C.ar    1  UNL1        0.0790
     12 C           7.0838   -4.4477   25.4994 C.ar    1  UNL1       -0.0032
     13 C           7.0357   -4.1707   26.9728 C.3     1  UNL1        0.0325
     14 C           8.0286   -5.4809   24.9610 C.ar    1  UNL1        0.0279
     15 C           8.0767   -5.7579   23.4876 C.ar    1  UNL1        0.1395
     16 CL          9.0214   -6.7911   22.9491 Cl      1  UNL1       -0.0613
     17 N           7.1800   -5.0018   22.5526 N.ar    1  UNL1       -0.2177
     18 C           6.2353   -3.9686   23.0910 C.ar    1  UNL1        0.1506
     19 H           5.4504   -2.6847   26.2804 H       1  UNL1        0.1552
     20 C           6.6668   -3.0849   19.7199 C.3     1  UNL1        0.0237
     21 C           5.7175   -3.8335   20.6079 C.3     1  UNL1        0.0984
     22 C           1.1954    0.8879   21.7434 C.3     1  UNL1        0.0899
     23 S           1.2653    2.1244   22.5897 S.3     1  UNL1       -0.1087
     24 C           0.2618    2.3425   23.6832 C.ar    1  UNL1        0.0279
     25 C           0.4083    1.6215   24.9903 C.ar    1  UNL1        0.0209
     26 C          -0.5952    1.8396   26.0837 C.ar    1  UNL1        0.0595
     27 C          -0.4487    1.1186   27.3909 C.3     1  UNL1        0.0521
     28 N          -1.7451    2.7787   25.8699 N.ar    1  UNL1       -0.2539
     29 C          -1.8916    3.4997   24.5627 C.ar    1  UNL1        0.0595
     30 C          -3.0416    4.4388   24.3489 C.3     1  UNL1        0.0521
     31 C          -0.8882    3.2816   23.4694 C.ar    1  UNL1        0.0209
@<TRIPOS>BOND
     1    20    21    1
     2    21     1    1
     3     1     2    1
     4     2     3   ar
     5     3     4   ar
     6     4     5   ar
     7     5    22    1
     8    22    23    1
     9    23    24    1
    10    24    25   ar
    11    25    26   ar
    12    26    27    1
    13    26    28   ar
    14    28    29   ar
    15    29    30    1
    16    29    31   ar
    17     5     6   ar
    18     6     7   ar
    19     7     8    1
    20     8     9    2
    21     8    10   am
    22    10    11    1
    23    11    12   ar
    24    12    13    1
    25    12    14   ar
    26    14    15   ar
    27    15    16    1
    28    15    17   ar
    29    17    18   ar
    30    18     1    1
    31     7     2   ar
    32    18    11   ar
    33    31    24   ar
    34    10    19    1
@<TRIPOS>MOLECULE
*****
 31 34 0 0 0
SMALL
GASTEIGER

@<TRIPOS>ATOM
      1 N           7.9350   -5.5313   27.0318 N.pl3   1  UNL1       -0.2567
      2 C           7.3780   -4.7654   25.8685 C.ar    1  UNL1        0.1408
      3 N           7.7862   -5.3793   24.5622 N.ar    1  UNL1       -0.2290
      4 C           7.3335   -4.7650   23.2708 C.ar    1  UNL1        0.0969
      5 C           6.4725   -3.5368   23.2858 C.ar    1  UNL1        0.0084
      6 C           6.0643   -2.9229   24.5920 C.ar    1  UNL1        0.0055
      7 C           6.5171   -3.5372   25.8834 C.ar    1  UNL1        0.0853
      8 C           6.0004   -2.7715   27.0653 C.2     1  UNL1        0.2523
      9 O           5.1553   -1.5741   26.7461 O.2     1  UNL1       -0.2697
     10 N           6.2170   -3.0450   28.5242 N.am    1  UNL1       -0.2784
     11 C           7.0039   -4.1517   29.1614 C.ar    1  UNL1        0.0790
     12 C           6.9653   -4.0600   30.6581 C.ar    1  UNL1       -0.0032
     13 C           6.2008   -2.9536   31.3223 C.3     1  UNL1        0.0325
     14 C           7.6912   -5.0750   31.4907 C.ar    1  UNL1        0.0279
     15 C           8.4557   -6.1814   30.8265 C.ar    1  UNL1        0.1395
     16 CL          9.1816   -7.1964   31.6590 Cl      1  UNL1       -0.0613
     17 N           8.4944   -6.2730   29.3298 N.ar    1  UNL1       -0.2177
     18 C           7.7685   -5.2582   28.4973 C.ar    1  UNL1        0.1506
     19 H           5.7858   -2.4148   29.1456 H       1  UNL1        0.1552
     20 C           8.1137   -8.0600   26.4630 C.3     1  UNL1        0.0237
     21 C           8.7686   -6.7286   26.6835 C.3     1  UNL1        0.0984
     22 C           6.0197   -2.9226   21.9943 C.3     1  UNL1        0.0899
     23 S           4.6578   -3.2381   21.4506 S.3     1  UNL1       -0.1087
     24 C           3.9248   -2.2208   20.6271 C.ar    1  UNL1        0.0279
     25 C           4.2862   -2.0220   19.1850 C.ar    1  UNL1        0.0209
     26 C           3.5533   -1.0048   18.3615 C.ar    1  UNL1        0.0595
     27 C           3.9146   -0.8059   16.9193 C.3     1  UNL1        0.0521
     28 N           2.4589   -0.1865   18.9803 N.ar    1  UNL1       -0.2539
     29 C           2.0976   -0.3853   20.4224 C.ar    1  UNL1        0.0595
     30 C           1.0033    0.4330   21.0412 C.3     1  UNL1        0.0521
     31 C           2.8305   -1.4025   21.2458 C.ar    1  UNL1        0.0209
@<TRIPOS>BOND
     1    20    21    1
     2    21     1    1
     3     1     2    1
     4     2     3   ar
     5     3     4   ar
     6     4     5   ar
     7     5    22    1
     8    22    23    1
     9    23    24    1
    10    24    25   ar
    11    25    26   ar
    12    26    27    1
    13    26    28   ar
    14    28    29   ar
    15    29    30    1
    16    29    31   ar
    17     5     6   ar
    18     6     7   ar
    19     7     8    1
    20     8     9    2
    21     8    10   am
    22    10    11    1
    23    11    12   ar
    24    12    13    1
    25    12    14   ar
    26    14    15   ar
    27    15    16    1
    28    15    17   ar
    29    17    18   ar
    30    18     1    1
    31     7     2   ar
    32    18    11   ar
    33    31    24   ar
    34    10    19    1
