@<TRIPOS>MOLECULE
*****
 26 29 0 0 0
SMALL
GASTEIGER

@<TRIPOS>ATOM
      1 C         -11.4478  -17.6901   23.3292 C.3     1  UNL1        0.0061
      2 C         -10.1873  -18.1753   22.6767 C.3     1  UNL1        0.0373
      3 C         -11.2003  -18.6745   21.6896 C.3     1  UNL1        0.0075
      4 C         -10.7532  -19.4270   20.4714 C.3     1  UNL1        0.0219
      5 C          -9.2929  -19.6803   20.2404 C.3     1  UNL1        0.0950
      6 N          -8.2798  -19.1811   21.2275 N.am    1  UNL1       -0.2636
      7 C          -6.8195  -19.4344   20.9965 C.2     1  UNL1        0.3088
      8 O          -6.3724  -20.1869   19.7784 O.2     1  UNL1       -0.2522
      9 N          -5.8063  -18.9352   21.9836 N.am    1  UNL1       -0.2508
     10 C          -8.7270  -18.4286   22.4456 C.3     1  UNL1        0.0989
     11 H          -6.0998  -18.4413   22.7831 H       1  UNL1        0.1579
     12 C          -4.3460  -19.1885   21.7526 C.ar    1  UNL1        0.1773
     13 N          -3.4536  -20.0417   22.6044 N.ar    1  UNL1       -0.0617
     14 O          -2.0778  -20.0135   22.0074 O.2     1  UNL1       -0.3521
     15 C          -2.1200  -19.1430   20.7866 C.ar    1  UNL1        0.1781
     16 C          -1.0630  -18.7487   19.7981 C.ar    1  UNL1        0.0403
     17 C          -1.4079  -17.8445   18.6520 C.ar    1  UNL1        0.0032
     18 C          -2.8097  -17.3346   18.4945 C.ar    1  UNL1        0.0003
     19 C          -3.8667  -17.7289   19.4831 C.ar    1  UNL1        0.0060
     20 C          -3.5218  -18.6331   20.6291 C.ar    1  UNL1        0.0721
     21 C          -9.6119  -17.5076   23.8904 C.ar    1  UNL1       -0.0212
     22 C          -8.9256  -16.1801   23.7617 C.ar    1  UNL1       -0.0042
     23 C          -8.3502  -15.5124   24.9755 C.ar    1  UNL1       -0.0003
     24 C          -8.4610  -16.1724   26.3178 C.ar    1  UNL1       -0.0000
     25 C          -9.1473  -17.5000   26.4466 C.ar    1  UNL1       -0.0003
     26 C          -9.7227  -18.1676   25.2328 C.ar    1  UNL1       -0.0042
@<TRIPOS>BOND
     1     1     2    1
     2     2    21    1
     3    21    22   ar
     4    22    23   ar
     5    23    24   ar
     6    24    25   ar
     7    25    26   ar
     8     2     3    1
     9     3     4    1
    10     4     5    1
    11     5     6    1
    12     6     7   am
    13     7     8    2
    14     7     9   am
    15     9    12    1
    16    12    13   ar
    17    13    14   ar
    18    14    15   ar
    19    15    16   ar
    20    16    17   ar
    21    17    18   ar
    22    18    19   ar
    23    19    20   ar
    24     6    10    1
    25    10     2    1
    26    26    21   ar
    27    20    12   ar
    28    20    15   ar
    29     9    11    1
@<TRIPOS>MOLECULE
*****
 26 29 0 0 0
SMALL
GASTEIGER

@<TRIPOS>ATOM
      1 C         -10.8069  -19.7658   18.9139 C.3     1  UNL1        0.0061
      2 C          -9.6539  -19.2952   19.7500 C.3     1  UNL1        0.0373
      3 C          -8.9759  -20.3695   18.9525 C.3     1  UNL1        0.0075
      4 C          -7.5195  -20.6570   19.1672 C.3     1  UNL1        0.0219
      5 C          -6.7409  -19.8701   20.1794 C.3     1  UNL1        0.0950
      6 N          -7.4188  -18.7957   20.9769 N.am    1  UNL1       -0.2636
      7 C          -6.6403  -18.0088   21.9892 C.2     1  UNL1        0.3088
      8 O          -5.1838  -18.2963   22.2038 O.2     1  UNL1       -0.2522
      9 N          -7.3182  -16.9344   22.7868 N.am    1  UNL1       -0.2508
     10 C          -8.8753  -18.5083   20.7623 C.3     1  UNL1        0.0989
     11 H          -8.2741  -16.7457   22.6459 H       1  UNL1        0.1579
     12 C          -6.5396  -16.1475   23.7990 C.ar    1  UNL1        0.1773
     13 N          -5.1764  -15.5553   23.5966 N.ar    1  UNL1       -0.0617
     14 O          -4.7819  -14.8564   24.8639 O.2     1  UNL1       -0.3521
     15 C          -5.9013  -15.0167   25.8495 C.ar    1  UNL1        0.1781
     16 C          -6.0717  -14.5392   27.2612 C.ar    1  UNL1        0.0403
     17 C          -7.3284  -14.8597   28.0147 C.ar    1  UNL1        0.0032
     18 C          -8.4147  -15.6576   27.3566 C.ar    1  UNL1        0.0003
     19 C          -8.2443  -16.1351   25.9449 C.ar    1  UNL1        0.0060
     20 C          -6.9876  -15.8147   25.1913 C.ar    1  UNL1        0.0721
     21 C         -10.7322  -18.3842   20.2573 C.ar    1  UNL1       -0.0212
     22 C         -11.5453  -18.7783   21.4545 C.ar    1  UNL1       -0.0042
     23 C         -12.6237  -17.8672   21.9617 C.ar    1  UNL1       -0.0003
     24 C         -12.8888  -16.5621   21.2717 C.ar    1  UNL1       -0.0000
     25 C         -12.0757  -16.1679   20.0744 C.ar    1  UNL1       -0.0003
     26 C         -10.9974  -17.0790   19.5672 C.ar    1  UNL1       -0.0042
@<TRIPOS>BOND
     1     1     2    1
     2     2    21    1
     3    21    22   ar
     4    22    23   ar
     5    23    24   ar
     6    24    25   ar
     7    25    26   ar
     8     2     3    1
     9     3     4    1
    10     4     5    1
    11     5     6    1
    12     6     7   am
    13     7     8    2
    14     7     9   am
    15     9    12    1
    16    12    13   ar
    17    13    14   ar
    18    14    15   ar
    19    15    16   ar
    20    16    17   ar
    21    17    18   ar
    22    18    19   ar
    23    19    20   ar
    24     6    10    1
    25    10     2    1
    26    26    21   ar
    27    20    12   ar
    28    20    15   ar
    29     9    11    1
@<TRIPOS>MOLECULE
*****
 26 29 0 0 0
SMALL
GASTEIGER

@<TRIPOS>ATOM
      1 C         -11.4124   -2.6549   18.9371 C.3     1  UNL1        0.0061
      2 C         -12.6347   -3.5140   19.0715 C.3     1  UNL1        0.0373
      3 C         -13.2212   -2.1733   19.4007 C.3     1  UNL1        0.0075
      4 C         -14.6788   -2.0535   19.7338 C.3     1  UNL1        0.0219
      5 C         -15.5501   -3.2745   19.7377 C.3     1  UNL1        0.0950
      6 N         -14.9636   -4.6153   19.4085 N.am    1  UNL1       -0.2636
      7 C         -15.8348   -5.8363   19.4124 C.2     1  UNL1        0.3088
      8 O         -17.2925   -5.7166   19.7455 O.2     1  UNL1       -0.2522
      9 N         -15.2484   -7.1772   19.0832 N.am    1  UNL1       -0.2508
     10 C         -13.5060   -4.7350   19.0754 C.3     1  UNL1        0.0989
     11 H         -14.2917   -7.2558   18.8646 H       1  UNL1        0.1579
     12 C         -16.1196   -8.3982   19.0871 C.ar    1  UNL1        0.1773
     13 N         -16.0714   -9.5125   20.0901 N.ar    1  UNL1       -0.0617
     14 O         -17.1141  -10.5223   19.7115 O.2     1  UNL1       -0.3521
     15 C         -17.8066  -10.0321   18.4746 C.ar    1  UNL1        0.1781
     16 C         -18.9175  -10.6114   17.6498 C.ar    1  UNL1        0.0403
     17 C         -19.4138   -9.8780   16.4391 C.ar    1  UNL1        0.0032
     18 C         -18.7992   -8.5653   16.0532 C.ar    1  UNL1        0.0003
     19 C         -17.6883   -7.9859   16.8780 C.ar    1  UNL1        0.0060
     20 C         -17.1920   -8.7193   18.0886 C.ar    1  UNL1        0.0721
     21 C         -11.6238   -4.5565   18.6956 C.ar    1  UNL1       -0.0212
     22 C         -11.8229   -5.9815   19.1195 C.ar    1  UNL1       -0.0042
     23 C         -10.8119   -7.0240   18.7436 C.ar    1  UNL1       -0.0003
     24 C          -9.6020   -6.6414   17.9438 C.ar    1  UNL1       -0.0000
     25 C          -9.4029   -5.2164   17.5199 C.ar    1  UNL1       -0.0003
     26 C         -10.4139   -4.1739   17.8959 C.ar    1  UNL1       -0.0042
@<TRIPOS>BOND
     1     1     2    1
     2     2    21    1
     3    21    22   ar
     4    22    23   ar
     5    23    24   ar
     6    24    25   ar
     7    25    26   ar
     8     2     3    1
     9     3     4    1
    10     4     5    1
    11     5     6    1
    12     6     7   am
    13     7     8    2
    14     7     9   am
    15     9    12    1
    16    12    13   ar
    17    13    14   ar
    18    14    15   ar
    19    15    16   ar
    20    16    17   ar
    21    17    18   ar
    22    18    19   ar
    23    19    20   ar
    24     6    10    1
    25    10     2    1
    26    26    21   ar
    27    20    12   ar
    28    20    15   ar
    29     9    11    1
@<TRIPOS>MOLECULE
*****
 26 29 0 0 0
SMALL
GASTEIGER

@<TRIPOS>ATOM
      1 C         -11.0888   -1.6552   18.3750 C.3     1  UNL1        0.0061
      2 C         -11.5026   -3.0916   18.2498 C.3     1  UNL1        0.0373
      3 C         -10.1184   -3.1685   17.6771 C.3     1  UNL1        0.0075
      4 C          -9.5788   -4.4817   17.1932 C.3     1  UNL1        0.0219
      5 C         -10.4234   -5.7181   17.2819 C.3     1  UNL1        0.0950
      6 N         -11.8076   -5.6413   17.8545 N.am    1  UNL1       -0.2636
      7 C         -12.6522   -6.8777   17.9432 C.2     1  UNL1        0.3088
      8 O         -12.1125   -8.1909   17.4593 O.2     1  UNL1       -0.2522
      9 N         -14.0365   -6.8009   18.5159 N.am    1  UNL1       -0.2508
     10 C         -12.3473   -4.3280   18.3384 C.3     1  UNL1        0.0989
     11 H         -14.3907   -5.9390   18.8335 H       1  UNL1        0.1579
     12 C         -14.8812   -8.0373   18.6045 C.ar    1  UNL1        0.1773
     13 N         -14.4531   -9.4260   18.2327 N.ar    1  UNL1       -0.0617
     14 O         -15.6095  -10.3491   18.4790 O.2     1  UNL1       -0.3521
     15 C         -16.7523   -9.5309   19.0031 C.ar    1  UNL1        0.1781
     16 C         -18.1445   -9.9022   19.4197 C.ar    1  UNL1        0.0403
     17 C         -19.0867   -8.8448   19.9139 C.ar    1  UNL1        0.0032
     18 C         -18.6365   -7.4161   19.9915 C.ar    1  UNL1        0.0003
     19 C         -17.2442   -7.0447   19.5749 C.ar    1  UNL1        0.0060
     20 C         -16.3021   -8.1021   19.0807 C.ar    1  UNL1        0.0721
     21 C         -12.7432   -2.5160   18.8659 C.ar    1  UNL1       -0.0212
     22 C         -13.3414   -3.1547   20.0842 C.ar    1  UNL1       -0.0042
     23 C         -14.5820   -2.5790   20.7003 C.ar    1  UNL1       -0.0003
     24 C         -15.2244   -1.3647   20.0981 C.ar    1  UNL1       -0.0000
     25 C         -14.6263   -0.7260   18.8797 C.ar    1  UNL1       -0.0003
     26 C         -13.3857   -1.3017   18.2636 C.ar    1  UNL1       -0.0042
@<TRIPOS>BOND
     1     1     2    1
     2     2    21    1
     3    21    22   ar
     4    22    23   ar
     5    23    24   ar
     6    24    25   ar
     7    25    26   ar
     8     2     3    1
     9     3     4    1
    10     4     5    1
    11     5     6    1
    12     6     7   am
    13     7     8    2
    14     7     9   am
    15     9    12    1
    16    12    13   ar
    17    13    14   ar
    18    14    15   ar
    19    15    16   ar
    20    16    17   ar
    21    17    18   ar
    22    18    19   ar
    23    19    20   ar
    24     6    10    1
    25    10     2    1
    26    26    21   ar
    27    20    12   ar
    28    20    15   ar
    29     9    11    1
@<TRIPOS>MOLECULE
*****
 26 29 0 0 0
SMALL
GASTEIGER

@<TRIPOS>ATOM
      1 C         -11.3919  -18.7237   20.6545 C.3     1  UNL1        0.0061
      2 C          -9.9119  -18.9439   20.5502 C.3     1  UNL1        0.0373
      3 C         -10.3869  -19.8385   19.4438 C.3     1  UNL1        0.0075
      4 C          -9.3955  -20.6160   18.6299 C.3     1  UNL1        0.0219
      5 C          -7.9290  -20.4991   18.9223 C.3     1  UNL1        0.0950
      6 N          -7.4539  -19.6046   20.0286 N.am    1  UNL1       -0.2636
      7 C          -5.9873  -19.4876   20.3210 C.2     1  UNL1        0.3088
      8 O          -4.9959  -20.2652   19.5071 O.2     1  UNL1       -0.2522
      9 N          -5.5121  -18.5930   21.4274 N.am    1  UNL1       -0.2508
     10 C          -8.4453  -18.8270   20.8426 C.3     1  UNL1        0.0989
     11 H          -6.1628  -18.0827   21.9617 H       1  UNL1        0.1579
     12 C          -4.0455  -18.4761   21.7198 C.ar    1  UNL1        0.1773
     13 N          -3.4005  -18.6225   23.0661 N.ar    1  UNL1       -0.0617
     14 O          -1.9228  -18.4291   22.8955 O.2     1  UNL1       -0.3521
     15 C          -1.6546  -18.1630   21.4439 C.ar    1  UNL1        0.1781
     16 C          -0.3853  -17.8981   20.6898 C.ar    1  UNL1        0.0403
     17 C          -0.4280  -17.6622   19.2092 C.ar    1  UNL1        0.0032
     18 C          -1.7399  -17.6913   18.4825 C.ar    1  UNL1        0.0003
     19 C          -3.0092  -17.9562   19.2366 C.ar    1  UNL1        0.0060
     20 C          -2.9666  -18.1921   20.7172 C.ar    1  UNL1        0.0721
     21 C          -9.9507  -17.9729   21.6928 C.ar    1  UNL1       -0.0212
     22 C          -8.8150  -17.9203   22.6713 C.ar    1  UNL1       -0.0042
     23 C          -8.8539  -16.9493   23.8139 C.ar    1  UNL1       -0.0003
     24 C         -10.0284  -16.0308   23.9780 C.ar    1  UNL1       -0.0000
     25 C         -11.1641  -16.0834   22.9995 C.ar    1  UNL1       -0.0003
     26 C         -11.1252  -17.0545   21.8569 C.ar    1  UNL1       -0.0042
@<TRIPOS>BOND
     1     1     2    1
     2     2    21    1
     3    21    22   ar
     4    22    23   ar
     5    23    24   ar
     6    24    25   ar
     7    25    26   ar
     8     2     3    1
     9     3     4    1
    10     4     5    1
    11     5     6    1
    12     6     7   am
    13     7     8    2
    14     7     9   am
    15     9    12    1
    16    12    13   ar
    17    13    14   ar
    18    14    15   ar
    19    15    16   ar
    20    16    17   ar
    21    17    18   ar
    22    18    19   ar
    23    19    20   ar
    24     6    10    1
    25    10     2    1
    26    26    21   ar
    27    20    12   ar
    28    20    15   ar
    29     9    11    1
@<TRIPOS>MOLECULE
*****
 26 29 0 0 0
SMALL
GASTEIGER

@<TRIPOS>ATOM
      1 C          -9.5884   -3.9104   18.3015 C.3     1  UNL1        0.0061
      2 C         -11.0620   -4.0418   18.5486 C.3     1  UNL1        0.0373
      3 C         -10.9076   -2.5556   18.6793 C.3     1  UNL1        0.0075
      4 C         -12.1027   -1.7011   18.9819 C.3     1  UNL1        0.0219
      5 C         -13.4523   -2.3328   19.1539 C.3     1  UNL1        0.0950
      6 N         -13.6067   -3.8191   19.0232 N.am    1  UNL1       -0.2636
      7 C         -14.9563   -4.4508   19.1951 C.2     1  UNL1        0.3088
      8 O         -16.1513   -3.5963   19.4977 O.2     1  UNL1       -0.2522
      9 N         -15.1108   -5.9372   19.0644 N.am    1  UNL1       -0.2508
     10 C         -12.4116   -4.6736   18.7206 C.3     1  UNL1        0.0989
     11 H         -14.3264   -6.4980   18.8658 H       1  UNL1        0.1579
     12 C         -16.4603   -6.5689   19.2364 C.ar    1  UNL1        0.1773
     13 N         -17.6985   -5.8824   19.7318 N.ar    1  UNL1       -0.0617
     14 O         -18.8121   -6.8873   19.7447 O.2     1  UNL1       -0.3521
     15 C         -18.2620   -8.1949   19.2572 C.ar    1  UNL1        0.1781
     16 C         -18.8969   -9.5394   19.0588 C.ar    1  UNL1        0.0403
     17 C         -18.0783  -10.6870   18.5463 C.ar    1  UNL1        0.0032
     18 C         -16.6248  -10.4902   18.2322 C.ar    1  UNL1        0.0003
     19 C         -15.9900   -9.1458   18.4305 C.ar    1  UNL1        0.0060
     20 C         -16.8086   -7.9982   18.9431 C.ar    1  UNL1        0.0721
     21 C         -10.7048   -5.4825   18.3321 C.ar    1  UNL1       -0.0212
     22 C         -11.4570   -6.2983   17.3229 C.ar    1  UNL1       -0.0042
     23 C         -11.0997   -7.7390   17.1065 C.ar    1  UNL1       -0.0003
     24 C          -9.9902   -8.3638   17.8992 C.ar    1  UNL1       -0.0000
     25 C          -9.2379   -7.5480   18.9085 C.ar    1  UNL1       -0.0003
     26 C          -9.5952   -6.1073   19.1249 C.ar    1  UNL1       -0.0042
@<TRIPOS>BOND
     1     1     2    1
     2     2    21    1
     3    21    22   ar
     4    22    23   ar
     5    23    24   ar
     6    24    25   ar
     7    25    26   ar
     8     2     3    1
     9     3     4    1
    10     4     5    1
    11     5     6    1
    12     6     7   am
    13     7     8    2
    14     7     9   am
    15     9    12    1
    16    12    13   ar
    17    13    14   ar
    18    14    15   ar
    19    15    16   ar
    20    16    17   ar
    21    17    18   ar
    22    18    19   ar
    23    19    20   ar
    24     6    10    1
    25    10     2    1
    26    26    21   ar
    27    20    12   ar
    28    20    15   ar
    29     9    11    1
@<TRIPOS>MOLECULE
*****
 26 29 0 0 0
SMALL
GASTEIGER

@<TRIPOS>ATOM
      1 C         -10.3116   -3.4585   19.1145 C.3     1  UNL1        0.0061
      2 C         -11.2628   -4.5573   18.7431 C.3     1  UNL1        0.0373
      3 C          -9.9787   -5.3308   18.7946 C.3     1  UNL1        0.0075
      4 C          -9.9769   -6.8019   18.5017 C.3     1  UNL1        0.0219
      5 C         -11.2593   -7.4996   18.1572 C.3     1  UNL1        0.0950
      6 N         -12.5434   -6.7261   18.1056 N.am    1  UNL1       -0.2636
      7 C         -13.8258   -7.4238   17.7611 C.2     1  UNL1        0.3088
      8 O         -13.8241   -8.8949   17.4682 O.2     1  UNL1       -0.2522
      9 N         -15.1101   -6.6503   17.7096 N.am    1  UNL1       -0.2508
     10 C         -12.5452   -5.2550   18.3986 C.3     1  UNL1        0.0989
     11 H         -15.1113   -5.6847   17.9018 H       1  UNL1        0.1579
     12 C         -16.3925   -7.3480   17.3651 C.ar    1  UNL1        0.1773
     13 N         -16.8750   -7.6740   15.9827 N.ar    1  UNL1       -0.0617
     14 O         -18.1983   -8.3697   16.1058 O.2     1  UNL1       -0.3521
     15 C         -18.5336   -8.4735   17.5642 C.ar    1  UNL1        0.1781
     16 C         -19.7109   -9.0614   18.2840 C.ar    1  UNL1        0.0403
     17 C         -19.7722   -9.0179   19.7821 C.ar    1  UNL1        0.0032
     18 C         -18.6561   -8.3865   20.5604 C.ar    1  UNL1        0.0003
     19 C         -17.4788   -7.7985   19.8405 C.ar    1  UNL1        0.0060
     20 C         -17.4175   -7.8420   18.3425 C.ar    1  UNL1        0.0721
     21 C         -12.2167   -3.4023   18.8205 C.ar    1  UNL1       -0.0212
     22 C         -11.9286   -2.1396   18.0638 C.ar    1  UNL1       -0.0042
     23 C         -12.8826   -0.9846   18.1413 C.ar    1  UNL1       -0.0003
     24 C         -14.1245   -1.0923   18.9754 C.ar    1  UNL1       -0.0000
     25 C         -14.4126   -2.3550   19.7322 C.ar    1  UNL1       -0.0003
     26 C         -13.4587   -3.5100   19.6547 C.ar    1  UNL1       -0.0042
@<TRIPOS>BOND
     1     1     2    1
     2     2    21    1
     3    21    22   ar
     4    22    23   ar
     5    23    24   ar
     6    24    25   ar
     7    25    26   ar
     8     2     3    1
     9     3     4    1
    10     4     5    1
    11     5     6    1
    12     6     7   am
    13     7     8    2
    14     7     9   am
    15     9    12    1
    16    12    13   ar
    17    13    14   ar
    18    14    15   ar
    19    15    16   ar
    20    16    17   ar
    21    17    18   ar
    22    18    19   ar
    23    19    20   ar
    24     6    10    1
    25    10     2    1
    26    26    21   ar
    27    20    12   ar
    28    20    15   ar
    29     9    11    1
@<TRIPOS>MOLECULE
*****
 26 29 0 0 0
SMALL
GASTEIGER

@<TRIPOS>ATOM
      1 C         -20.4235   -7.7041   19.3859 C.3     1  UNL1        0.0061
      2 C         -19.2969   -6.7141   19.4090 C.3     1  UNL1        0.0373
      3 C         -20.4639   -5.7843   19.5625 C.3     1  UNL1        0.0075
      4 C         -20.2349   -4.3068   19.6830 C.3     1  UNL1        0.0219
      5 C         -18.8389   -3.7590   19.6501 C.3     1  UNL1        0.0950
      6 N         -17.6719   -4.6888   19.4966 N.am    1  UNL1       -0.2636
      7 C         -16.2759   -4.1410   19.4636 C.2     1  UNL1        0.3088
      8 O         -16.0469   -2.6635   19.5842 O.2     1  UNL1       -0.2522
      9 N         -15.1088   -5.0708   19.3101 N.am    1  UNL1       -0.2508
     10 C         -17.9009   -6.1663   19.3761 C.3     1  UNL1        0.0989
     11 H         -15.2590   -6.0405   19.2310 H       1  UNL1        0.1579
     12 C         -13.7128   -4.5230   19.2772 C.ar    1  UNL1        0.1773
     13 N         -13.3273   -3.0818   19.4329 N.ar    1  UNL1       -0.0617
     14 O         -11.8334   -2.9884   19.3347 O.2     1  UNL1       -0.3521
     15 C         -11.2957   -4.3718   19.1182 C.ar    1  UNL1        0.1781
     16 C          -9.8984   -4.8905   18.9488 C.ar    1  UNL1        0.0403
     17 C          -9.6627   -6.3576   18.7439 C.ar    1  UNL1        0.0032
     18 C         -10.8243   -7.3060   18.7084 C.ar    1  UNL1        0.0003
     19 C         -12.2215   -6.7874   18.8777 C.ar    1  UNL1        0.0060
     20 C         -12.4572   -5.3203   19.0826 C.ar    1  UNL1        0.0721
     21 C         -18.5211   -7.9876   19.2475 C.ar    1  UNL1       -0.0212
     22 C         -18.9187   -8.9798   18.1951 C.ar    1  UNL1       -0.0042
     23 C         -18.1428  -10.2533   18.0337 C.ar    1  UNL1       -0.0003
     24 C         -16.9693  -10.5347   18.9245 C.ar    1  UNL1       -0.0000
     25 C         -16.5716   -9.5425   19.9769 C.ar    1  UNL1       -0.0003
     26 C         -17.3475   -8.2690   20.1384 C.ar    1  UNL1       -0.0042
@<TRIPOS>BOND
     1     1     2    1
     2     2    21    1
     3    21    22   ar
     4    22    23   ar
     5    23    24   ar
     6    24    25   ar
     7    25    26   ar
     8     2     3    1
     9     3     4    1
    10     4     5    1
    11     5     6    1
    12     6     7   am
    13     7     8    2
    14     7     9   am
    15     9    12    1
    16    12    13   ar
    17    13    14   ar
    18    14    15   ar
    19    15    16   ar
    20    16    17   ar
    21    17    18   ar
    22    18    19   ar
    23    19    20   ar
    24     6    10    1
    25    10     2    1
    26    26    21   ar
    27    20    12   ar
    28    20    15   ar
    29     9    11    1
@<TRIPOS>MOLECULE
*****
 26 29 0 0 0
SMALL
GASTEIGER

@<TRIPOS>ATOM
      1 C           3.5648   -2.5321   18.9957 C.3     1  UNL1        0.0061
      2 C           3.5665   -2.1683   20.4509 C.3     1  UNL1        0.0373
      3 C           4.4026   -3.4129   20.4926 C.3     1  UNL1        0.0075
      4 C           4.9499   -3.9054   21.7995 C.3     1  UNL1        0.0219
      5 C           4.6611   -3.1533   23.0647 C.3     1  UNL1        0.0950
      6 N           3.8249   -1.9087   23.0230 N.am    1  UNL1       -0.2636
      7 C           3.5361   -1.1565   24.2883 C.2     1  UNL1        0.3088
      8 O           4.0834   -1.6490   25.5952 O.2     1  UNL1       -0.2522
      9 N           2.6999    0.0882   24.2467 N.am    1  UNL1       -0.2508
     10 C           3.2776   -1.4162   21.7162 C.3     1  UNL1        0.0989
     11 H           2.3407    0.4114   23.3889 H       1  UNL1        0.1579
     12 C           2.4110    0.8403   25.5119 C.ar    1  UNL1        0.1773
     13 N           3.3558    1.0268   26.6620 N.ar    1  UNL1       -0.0617
     14 O           2.6553    1.8397   27.7101 O.2     1  UNL1       -0.3521
     15 C           1.2777    2.1557   27.2078 C.ar    1  UNL1        0.1781
     16 C           0.1412    2.9260   27.8119 C.ar    1  UNL1        0.0403
     17 C          -1.1462    3.0786   27.0575 C.ar    1  UNL1        0.0032
     18 C          -1.2972    2.4609   25.6989 C.ar    1  UNL1        0.0003
     19 C          -0.1607    1.6906   25.0948 C.ar    1  UNL1        0.0060
     20 C           1.1267    1.5380   25.8492 C.ar    1  UNL1        0.0721
     21 C           2.7297   -1.0500   19.9039 C.ar    1  UNL1       -0.0212
     22 C           3.2499   -0.2049   18.7791 C.ar    1  UNL1       -0.0042
     23 C           2.4130    0.9134   18.2321 C.ar    1  UNL1       -0.0003
     24 C           1.0562    1.1867   18.8100 C.ar    1  UNL1       -0.0000
     25 C           0.5360    0.3416   19.9350 C.ar    1  UNL1       -0.0003
     26 C           1.3728   -0.7767   20.4819 C.ar    1  UNL1       -0.0042
@<TRIPOS>BOND
     1     1     2    1
     2     2    21    1
     3    21    22   ar
     4    22    23   ar
     5    23    24   ar
     6    24    25   ar
     7    25    26   ar
     8     2     3    1
     9     3     4    1
    10     4     5    1
    11     5     6    1
    12     6     7   am
    13     7     8    2
    14     7     9   am
    15     9    12    1
    16    12    13   ar
    17    13    14   ar
    18    14    15   ar
    19    15    16   ar
    20    16    17   ar
    21    17    18   ar
    22    18    19   ar
    23    19    20   ar
    24     6    10    1
    25    10     2    1
    26    26    21   ar
    27    20    12   ar
    28    20    15   ar
    29     9    11    1
