@<TRIPOS>MOLECULE
*****
 26 29 0 0 0
SMALL
GASTEIGER

@<TRIPOS>ATOM
      1 C          -8.0987  -16.2237   23.3748 C.ar    1  UNL1        0.1581
      2 N          -6.7623  -16.4645   22.7377 N.ar    1  UNL1       -0.1644
      3 N          -5.7068  -16.2616   23.7840 N.ar    1  UNL1       -0.2504
      4 C          -6.3909  -15.8954   25.0677 C.ar    1  UNL1        0.0795
      5 C          -5.8586  -15.5803   26.4342 C.ar    1  UNL1        0.0188
      6 C          -6.8048  -15.2417   27.5478 C.ar    1  UNL1        0.0015
      7 C          -8.2831  -15.2182   27.2949 C.ar    1  UNL1        0.0001
      8 C          -8.8153  -15.5334   25.9284 C.ar    1  UNL1        0.0032
      9 C          -7.8692  -15.8720   24.8148 C.ar    1  UNL1        0.0413
     10 C         -11.1371  -16.5011   20.9754 C.ar    1  UNL1        0.1965
     11 N         -11.8247  -16.4252   22.3063 N.ar    1  UNL1       -0.0587
     12 O         -10.7703  -16.3120   23.3672 O.2     1  UNL1       -0.3311
     13 C          -9.4309  -16.3180   22.6918 C.ar    1  UNL1        0.2792
     14 N          -9.6576  -16.4348   21.2137 N.ar    1  UNL1       -0.1884
     15 N         -12.3723  -15.4030   18.9708 N.3     1  UNL1       -0.3147
     16 C         -11.8106  -16.6220   19.6406 C.3     1  UNL1        0.1355
     17 H         -12.7903  -15.6675   18.0788 H       1  UNL1        0.1192
     18 H         -11.6242  -14.7287   18.8092 H       1  UNL1        0.1192
     19 C          -4.2269  -16.4006   23.5821 C.3     1  UNL1        0.1321
     20 C          -3.6076  -17.7636   23.4870 C.3     1  UNL1        0.0527
     21 C          -3.7248  -18.5536   22.2173 C.ar    1  UNL1       -0.0202
     22 C          -4.8976  -19.4646   22.0064 C.ar    1  UNL1       -0.0042
     23 C          -5.0148  -20.2547   20.7368 C.ar    1  UNL1       -0.0003
     24 C          -3.9591  -20.1337   19.6780 C.ar    1  UNL1       -0.0000
     25 C          -2.7863  -19.2227   19.8889 C.ar    1  UNL1       -0.0003
     26 C          -2.6691  -18.4327   21.1585 C.ar    1  UNL1       -0.0042
@<TRIPOS>BOND
     1    15    16    1
     2    16    10    1
     3    10    11   ar
     4    11    12   ar
     5    12    13   ar
     6    13     1    1
     7     1     2   ar
     8     2     3   ar
     9     3    19    1
    10    19    20    1
    11    20    21    1
    12    21    22   ar
    13    22    23   ar
    14    23    24   ar
    15    24    25   ar
    16    25    26   ar
    17     3     4   ar
    18     4     5   ar
    19     5     6   ar
    20     6     7   ar
    21     7     8   ar
    22     8     9   ar
    23    13    14   ar
    24    14    10   ar
    25     9     1   ar
    26    26    21   ar
    27     9     4   ar
    28    15    17    1
    29    15    18    1
@<TRIPOS>MOLECULE
*****
 26 29 0 0 0
SMALL
GASTEIGER

@<TRIPOS>ATOM
      1 C          -6.3855  -18.8127   22.3379 C.ar    1  UNL1        0.1581
      2 N          -7.4050  -19.9123   22.3007 N.ar    1  UNL1       -0.1644
      3 N          -8.6381  -19.4250   23.0023 N.ar    1  UNL1       -0.2504
      4 C          -8.3806  -18.0242   23.4730 C.ar    1  UNL1        0.0795
      5 C          -9.2339  -17.0444   24.2225 C.ar    1  UNL1        0.0188
      6 C          -8.6951  -15.6862   24.5614 C.ar    1  UNL1        0.0015
      7 C          -7.3029  -15.3078   24.1507 C.ar    1  UNL1        0.0001
      8 C          -6.4495  -16.2876   23.4013 C.ar    1  UNL1        0.0032
      9 C          -6.9884  -17.6458   23.0624 C.ar    1  UNL1        0.0413
     10 C          -3.1532  -18.7371   20.1903 C.ar    1  UNL1        0.1965
     11 N          -2.6097  -19.1789   21.5167 N.ar    1  UNL1       -0.0587
     12 O          -3.7543  -19.2610   22.4826 O.2     1  UNL1       -0.3311
     13 C          -5.0053  -18.8699   21.7532 C.ar    1  UNL1        0.2792
     14 N          -4.6338  -18.5461   20.3365 N.ar    1  UNL1       -0.1884
     15 N          -1.0209  -17.8435   19.0050 N.3     1  UNL1       -0.3147
     16 C          -2.3561  -18.5237   18.9377 C.3     1  UNL1        0.1355
     17 H          -0.6225  -17.7831   18.0680 H       1  UNL1        0.1192
     18 H          -0.3959  -18.3803   19.6064 H       1  UNL1        0.1192
     19 C          -9.9060  -20.2020   23.1986 C.3     1  UNL1        0.1321
     20 C         -11.0005  -20.1224   22.1758 C.3     1  UNL1        0.0527
     21 C         -11.3777  -18.7973   21.5827 C.ar    1  UNL1       -0.0202
     22 C         -10.9005  -18.4272   20.2097 C.ar    1  UNL1       -0.0042
     23 C         -11.2778  -17.1021   19.6165 C.ar    1  UNL1       -0.0003
     24 C         -12.1323  -16.1473   20.3963 C.ar    1  UNL1       -0.0000
     25 C         -12.6095  -16.5175   21.7693 C.ar    1  UNL1       -0.0003
     26 C         -12.2323  -17.8425   22.3625 C.ar    1  UNL1       -0.0042
@<TRIPOS>BOND
     1    15    16    1
     2    16    10    1
     3    10    11   ar
     4    11    12   ar
     5    12    13   ar
     6    13     1    1
     7     1     2   ar
     8     2     3   ar
     9     3    19    1
    10    19    20    1
    11    20    21    1
    12    21    22   ar
    13    22    23   ar
    14    23    24   ar
    15    24    25   ar
    16    25    26   ar
    17     3     4   ar
    18     4     5   ar
    19     5     6   ar
    20     6     7   ar
    21     7     8   ar
    22     8     9   ar
    23    13    14   ar
    24    14    10   ar
    25     9     1   ar
    26    26    21   ar
    27     9     4   ar
    28    15    17    1
    29    15    18    1
@<TRIPOS>MOLECULE
*****
 26 29 0 0 0
SMALL
GASTEIGER

@<TRIPOS>ATOM
      1 C          -6.5547  -18.8820   21.4979 C.ar    1  UNL1        0.1581
      2 N          -7.1251  -18.2358   22.7255 N.ar    1  UNL1       -0.1644
      3 N          -8.6192  -18.2272   22.5931 N.ar    1  UNL1       -0.2504
      4 C          -8.9722  -18.8682   21.2837 C.ar    1  UNL1        0.0795
      5 C         -10.2907  -19.1356   20.6203 C.ar    1  UNL1        0.0188
      6 C         -10.3331  -19.8077   19.2800 C.ar    1  UNL1        0.0015
      7 C          -9.0572  -20.2123   18.6031 C.ar    1  UNL1        0.0001
      8 C          -7.7387  -19.9449   19.2665 C.ar    1  UNL1        0.0032
      9 C          -7.6963  -19.2728   20.6068 C.ar    1  UNL1        0.0413
     10 C          -2.8879  -18.9197   20.2255 C.ar    1  UNL1        0.1965
     11 N          -2.8268  -19.9473   21.3166 N.ar    1  UNL1       -0.0587
     12 O          -4.1929  -20.0582   21.9260 O.2     1  UNL1       -0.3311
     13 C          -5.0984  -19.0992   21.2116 C.ar    1  UNL1        0.2792
     14 N          -4.2919  -18.3957   20.1607 N.ar    1  UNL1       -0.1884
     15 N          -0.3352  -18.6199   19.8465 N.3     1  UNL1       -0.3147
     16 C          -1.7457  -18.4916   19.3526 C.3     1  UNL1        0.1355
     17 H           0.3079  -18.2845   19.1294 H       1  UNL1        0.1192
     18 H          -0.1347  -19.5987   20.0521 H       1  UNL1        0.1192
     19 C          -9.5899  -17.6748   23.5943 C.3     1  UNL1        0.1321
     20 C          -9.4209  -16.2764   24.1103 C.3     1  UNL1        0.0527
     21 C          -8.3054  -15.9576   25.0612 C.ar    1  UNL1       -0.0202
     22 C          -8.4616  -16.2473   26.5246 C.ar    1  UNL1       -0.0042
     23 C          -7.3462  -15.9285   27.4754 C.ar    1  UNL1       -0.0003
     24 C          -6.0746  -15.3200   26.9629 C.ar    1  UNL1       -0.0000
     25 C          -5.9183  -15.0303   25.4994 C.ar    1  UNL1       -0.0003
     26 C          -7.0338  -15.3491   24.5486 C.ar    1  UNL1       -0.0042
@<TRIPOS>BOND
     1    15    16    1
     2    16    10    1
     3    10    11   ar
     4    11    12   ar
     5    12    13   ar
     6    13     1    1
     7     1     2   ar
     8     2     3   ar
     9     3    19    1
    10    19    20    1
    11    20    21    1
    12    21    22   ar
    13    22    23   ar
    14    23    24   ar
    15    24    25   ar
    16    25    26   ar
    17     3     4   ar
    18     4     5   ar
    19     5     6   ar
    20     6     7   ar
    21     7     8   ar
    22     8     9   ar
    23    13    14   ar
    24    14    10   ar
    25     9     1   ar
    26    26    21   ar
    27     9     4   ar
    28    15    17    1
    29    15    18    1
@<TRIPOS>MOLECULE
*****
 26 29 0 0 0
SMALL
GASTEIGER

@<TRIPOS>ATOM
      1 C          -9.5328  -18.2685   22.8078 C.ar    1  UNL1        0.1581
      2 N          -8.8211  -19.4610   22.2409 N.ar    1  UNL1       -0.1644
      3 N          -7.3459  -19.2005   22.3186 N.ar    1  UNL1       -0.2504
      4 C          -7.1459  -17.8470   22.9335 C.ar    1  UNL1        0.0795
      5 C          -5.9077  -17.0646   23.2571 C.ar    1  UNL1        0.0188
      6 C          -6.0211  -15.7063   23.8831 C.ar    1  UNL1        0.0015
      7 C          -7.3727  -15.1303   24.1854 C.ar    1  UNL1        0.0001
      8 C          -8.6109  -15.9126   23.8618 C.ar    1  UNL1        0.0032
      9 C          -8.4975  -17.2710   23.2358 C.ar    1  UNL1        0.0413
     10 C         -13.2819  -18.1280   23.8029 C.ar    1  UNL1        0.1965
     11 N         -13.3297  -17.5666   22.4127 N.ar    1  UNL1       -0.0587
     12 O         -11.9311  -17.5509   21.8708 O.2     1  UNL1       -0.3311
     13 C         -11.0189  -18.1026   22.9260 C.ar    1  UNL1        0.2792
     14 N         -11.8537  -18.4593   24.1200 N.ar    1  UNL1       -0.1884
     15 N         -14.2347  -18.6396   26.1651 N.3     1  UNL1       -0.3147
     16 C         -14.4560  -18.3238   24.7155 C.3     1  UNL1        0.1355
     17 H         -15.1357  -18.7392   26.6327 H       1  UNL1        0.1192
     18 H         -13.7071  -17.8834   26.6012 H       1  UNL1        0.1192
     19 C          -6.2611  -20.1302   21.8616 C.3     1  UNL1        0.1321
     20 C          -5.5367  -19.8629   20.5755 C.3     1  UNL1        0.0527
     21 C          -4.1430  -19.3088   20.6009 C.ar    1  UNL1       -0.0202
     22 C          -3.3566  -19.3154   21.8782 C.ar    1  UNL1       -0.0042
     23 C          -1.9629  -18.7613   21.9037 C.ar    1  UNL1       -0.0003
     24 C          -1.3557  -18.2007   20.6519 C.ar    1  UNL1       -0.0000
     25 C          -2.1421  -18.1942   19.3746 C.ar    1  UNL1       -0.0003
     26 C          -3.5358  -18.7483   19.3491 C.ar    1  UNL1       -0.0042
@<TRIPOS>BOND
     1    15    16    1
     2    16    10    1
     3    10    11   ar
     4    11    12   ar
     5    12    13   ar
     6    13     1    1
     7     1     2   ar
     8     2     3   ar
     9     3    19    1
    10    19    20    1
    11    20    21    1
    12    21    22   ar
    13    22    23   ar
    14    23    24   ar
    15    24    25   ar
    16    25    26   ar
    17     3     4   ar
    18     4     5   ar
    19     5     6   ar
    20     6     7   ar
    21     7     8   ar
    22     8     9   ar
    23    13    14   ar
    24    14    10   ar
    25     9     1   ar
    26    26    21   ar
    27     9     4   ar
    28    15    17    1
    29    15    18    1
@<TRIPOS>MOLECULE
*****
 26 29 0 0 0
SMALL
GASTEIGER

@<TRIPOS>ATOM
      1 C          -8.2129  -17.9289   22.0360 C.ar    1  UNL1        0.1581
      2 N          -7.8063  -19.2406   21.4326 N.ar    1  UNL1       -0.1644
      3 N          -6.3542  -19.4606   21.7372 N.ar    1  UNL1       -0.2504
      4 C          -5.8632  -18.2849   22.5288 C.ar    1  UNL1        0.0795
      5 C          -4.5186  -17.9541   23.1054 C.ar    1  UNL1        0.0188
      6 C          -4.3228  -16.6766   23.8666 C.ar    1  UNL1        0.0015
      7 C          -5.4715  -15.7299   24.0513 C.ar    1  UNL1        0.0001
      8 C          -6.8162  -16.0607   23.4747 C.ar    1  UNL1        0.0032
      9 C          -7.0120  -17.3383   22.7135 C.ar    1  UNL1        0.0413
     10 C         -11.6650  -16.4050   21.1270 C.ar    1  UNL1        0.1965
     11 N         -11.7039  -16.3380   22.6250 N.ar    1  UNL1       -0.0587
     12 O         -10.4155  -16.9007   23.1478 O.2     1  UNL1       -0.3311
     13 C          -9.5803  -17.3155   21.9729 C.ar    1  UNL1        0.2792
     14 N         -10.3525  -17.0091   20.7241 N.ar    1  UNL1       -0.1884
     15 N         -12.3939  -15.3917   18.8484 N.3     1  UNL1       -0.3147
     16 C         -12.7483  -15.9482   20.1956 C.3     1  UNL1        0.1355
     17 H         -13.2467  -15.1334   18.3522 H       1  UNL1        0.1192
     18 H         -11.8885  -16.0966   18.3117 H       1  UNL1        0.1192
     19 C          -5.5364  -20.6479   21.3229 C.3     1  UNL1        0.1321
     20 C          -4.6719  -20.5731   20.0993 C.3     1  UNL1        0.0527
     21 C          -3.5586  -19.5704   20.0278 C.ar    1  UNL1       -0.0202
     22 C          -2.3727  -19.7004   20.9371 C.ar    1  UNL1       -0.0042
     23 C          -1.2594  -18.6976   20.8656 C.ar    1  UNL1       -0.0003
     24 C          -1.3320  -17.5650   19.8849 C.ar    1  UNL1       -0.0000
     25 C          -2.5179  -17.4350   18.9756 C.ar    1  UNL1       -0.0003
     26 C          -3.6312  -18.4377   19.0471 C.ar    1  UNL1       -0.0042
@<TRIPOS>BOND
     1    15    16    1
     2    16    10    1
     3    10    11   ar
     4    11    12   ar
     5    12    13   ar
     6    13     1    1
     7     1     2   ar
     8     2     3   ar
     9     3    19    1
    10    19    20    1
    11    20    21    1
    12    21    22   ar
    13    22    23   ar
    14    23    24   ar
    15    24    25   ar
    16    25    26   ar
    17     3     4   ar
    18     4     5   ar
    19     5     6   ar
    20     6     7   ar
    21     7     8   ar
    22     8     9   ar
    23    13    14   ar
    24    14    10   ar
    25     9     1   ar
    26    26    21   ar
    27     9     4   ar
    28    15    17    1
    29    15    18    1
@<TRIPOS>MOLECULE
*****
 26 29 0 0 0
SMALL
GASTEIGER

@<TRIPOS>ATOM
      1 C          -7.1054  -17.5110   22.4239 C.ar    1  UNL1        0.1581
      2 N          -8.4316  -17.6001   21.7287 N.ar    1  UNL1       -0.1644
      3 N          -8.3450  -18.6916   20.7034 N.ar    1  UNL1       -0.2504
      4 C          -6.9654  -19.2770   20.7649 C.ar    1  UNL1        0.0795
      5 C          -6.3077  -20.3802   19.9901 C.ar    1  UNL1        0.0188
      6 C          -4.8839  -20.7538   20.2786 C.ar    1  UNL1        0.0015
      7 C          -4.1178  -20.0241   21.3419 C.ar    1  UNL1        0.0001
      8 C          -4.7754  -18.9209   22.1168 C.ar    1  UNL1        0.0032
      9 C          -6.1992  -18.5474   21.8283 C.ar    1  UNL1        0.0413
     10 C          -6.6882  -15.4196   25.6670 C.ar    1  UNL1        0.1965
     11 N          -5.7083  -14.7409   24.7563 N.ar    1  UNL1       -0.0587
     12 O          -5.7453  -15.4418   23.4306 O.2     1  UNL1       -0.3311
     13 C          -6.7481  -16.5536   23.5219 C.ar    1  UNL1        0.2792
     14 N          -7.3308  -16.5398   24.9040 N.ar    1  UNL1       -0.1884
     15 N          -8.3907  -14.8360   27.5406 N.3     1  UNL1       -0.3147
     16 C          -6.9750  -15.0439   27.0905 C.3     1  UNL1        0.1355
     17 H          -8.3999  -14.5878   28.5299 H       1  UNL1        0.1192
     18 H          -8.9217  -15.6956   27.4008 H       1  UNL1        0.1192
     19 C          -9.4450  -19.1221   19.7789 C.3     1  UNL1        0.1321
     20 C         -10.6851  -19.7582   20.3337 C.3     1  UNL1        0.0527
     21 C         -11.2090  -19.3362   21.6744 C.ar    1  UNL1       -0.0202
     22 C         -10.7156  -20.0124   22.9190 C.ar    1  UNL1       -0.0042
     23 C         -11.2395  -19.5904   24.2597 C.ar    1  UNL1       -0.0003
     24 C         -12.2569  -18.4923   24.3556 C.ar    1  UNL1       -0.0000
     25 C         -12.7504  -17.8162   23.1110 C.ar    1  UNL1       -0.0003
     26 C         -12.2264  -18.2382   21.7703 C.ar    1  UNL1       -0.0042
@<TRIPOS>BOND
     1    15    16    1
     2    16    10    1
     3    10    11   ar
     4    11    12   ar
     5    12    13   ar
     6    13     1    1
     7     1     2   ar
     8     2     3   ar
     9     3    19    1
    10    19    20    1
    11    20    21    1
    12    21    22   ar
    13    22    23   ar
    14    23    24   ar
    15    24    25   ar
    16    25    26   ar
    17     3     4   ar
    18     4     5   ar
    19     5     6   ar
    20     6     7   ar
    21     7     8   ar
    22     8     9   ar
    23    13    14   ar
    24    14    10   ar
    25     9     1   ar
    26    26    21   ar
    27     9     4   ar
    28    15    17    1
    29    15    18    1
@<TRIPOS>MOLECULE
*****
 26 29 0 0 0
SMALL
GASTEIGER

@<TRIPOS>ATOM
      1 C          -7.4119  -17.7180   22.2748 C.ar    1  UNL1        0.1581
      2 N          -6.3090  -18.6043   21.7769 N.ar    1  UNL1       -0.1644
      3 N          -6.8579  -19.4460   20.6632 N.ar    1  UNL1       -0.2504
      4 C          -8.3000  -19.0799   20.4728 C.ar    1  UNL1        0.0795
      5 C          -9.3455  -19.5810   19.5212 C.ar    1  UNL1        0.0188
      6 C         -10.7335  -19.0140   19.5656 C.ar    1  UNL1        0.0015
      7 C         -11.0759  -17.9460   20.5616 C.ar    1  UNL1        0.0001
      8 C         -10.0304  -17.4449   21.5132 C.ar    1  UNL1        0.0032
      9 C          -8.6424  -18.0118   21.4688 C.ar    1  UNL1        0.0413
     10 C          -7.6507  -15.5476   25.4838 C.ar    1  UNL1        0.1965
     11 N          -6.6221  -14.7902   24.6975 N.ar    1  UNL1       -0.0587
     12 O          -6.4074  -15.5110   23.3997 O.2     1  UNL1       -0.3311
     13 C          -7.3034  -16.7139   23.3839 C.ar    1  UNL1        0.2792
     14 N          -8.0717  -16.7365   24.6719 N.ar    1  UNL1       -0.1884
     15 N          -7.2854  -14.4440   27.8073 N.3     1  UNL1       -0.3147
     16 C          -8.1675  -15.1805   26.8432 C.3     1  UNL1        0.1355
     17 H          -7.7946  -14.2780   28.6753 H       1  UNL1        0.1192
     18 H          -7.0076  -13.5511   27.3999 H       1  UNL1        0.1192
     19 C          -6.0980  -20.4736   19.8778 C.3     1  UNL1        0.1321
     20 C          -4.6846  -20.8091   20.2517 C.3     1  UNL1        0.0527
     21 C          -3.6526  -19.7237   20.3335 C.ar    1  UNL1       -0.0202
     22 C          -2.7772  -19.6110   21.5463 C.ar    1  UNL1       -0.0042
     23 C          -1.7452  -18.5256   21.6281 C.ar    1  UNL1       -0.0003
     24 C          -1.5885  -17.5529   20.4970 C.ar    1  UNL1       -0.0000
     25 C          -2.4639  -17.6655   19.2842 C.ar    1  UNL1       -0.0003
     26 C          -3.4959  -18.7510   19.2024 C.ar    1  UNL1       -0.0042
@<TRIPOS>BOND
     1    15    16    1
     2    16    10    1
     3    10    11   ar
     4    11    12   ar
     5    12    13   ar
     6    13     1    1
     7     1     2   ar
     8     2     3   ar
     9     3    19    1
    10    19    20    1
    11    20    21    1
    12    21    22   ar
    13    22    23   ar
    14    23    24   ar
    15    24    25   ar
    16    25    26   ar
    17     3     4   ar
    18     4     5   ar
    19     5     6   ar
    20     6     7   ar
    21     7     8   ar
    22     8     9   ar
    23    13    14   ar
    24    14    10   ar
    25     9     1   ar
    26    26    21   ar
    27     9     4   ar
    28    15    17    1
    29    15    18    1
@<TRIPOS>MOLECULE
*****
 26 29 0 0 0
SMALL
GASTEIGER

@<TRIPOS>ATOM
      1 C          -6.2703  -18.7925   20.8491 C.ar    1  UNL1        0.1581
      2 N          -7.3320  -19.3169   19.9282 N.ar    1  UNL1       -0.1644
      3 N          -8.6506  -18.7596   20.3763 N.ar    1  UNL1       -0.2504
      4 C          -8.4039  -17.8909   21.5740 C.ar    1  UNL1        0.0795
      5 C          -9.3287  -17.0841   22.4362 C.ar    1  UNL1        0.0188
      6 C          -8.7825  -16.2975   23.5907 C.ar    1  UNL1        0.0015
      7 C          -7.3113  -16.3178   23.8829 C.ar    1  UNL1        0.0001
      8 C          -6.3865  -17.1247   23.0207 C.ar    1  UNL1        0.0032
      9 C          -6.9328  -17.9113   21.8662 C.ar    1  UNL1        0.0413
     10 C          -2.4320  -18.9136   20.2846 C.ar    1  UNL1        0.1965
     11 N          -2.6613  -20.2132   20.9978 N.ar    1  UNL1       -0.0587
     12 O          -4.1270  -20.3260   21.2960 O.2     1  UNL1       -0.3311
     13 C          -4.8036  -19.0961   20.7672 C.ar    1  UNL1        0.2792
     14 N          -3.7561  -18.2233   20.1422 N.ar    1  UNL1       -0.1884
     15 N           0.0030  -18.1514   20.7739 N.3     1  UNL1       -0.3147
     16 C          -1.1108  -18.3954   19.7992 C.3     1  UNL1        0.1355
     17 H           0.8213  -17.8028   20.2746 H       1  UNL1        0.1192
     18 H           0.2391  -19.0242   21.2459 H       1  UNL1        0.1192
     19 C          -9.9822  -19.0246   19.7385 C.3     1  UNL1        0.1321
     20 C         -11.0205  -19.8200   20.4730 C.3     1  UNL1        0.0527
     21 C         -11.4438  -19.4086   21.8520 C.ar    1  UNL1       -0.0202
     22 C         -10.7726  -20.0074   23.0523 C.ar    1  UNL1       -0.0042
     23 C         -11.1959  -19.5960   24.4313 C.ar    1  UNL1       -0.0003
     24 C         -12.2903  -18.5859   24.6099 C.ar    1  UNL1       -0.0000
     25 C         -12.9615  -17.9871   23.4095 C.ar    1  UNL1       -0.0003
     26 C         -12.5382  -18.3985   22.0305 C.ar    1  UNL1       -0.0042
@<TRIPOS>BOND
     1    15    16    1
     2    16    10    1
     3    10    11   ar
     4    11    12   ar
     5    12    13   ar
     6    13     1    1
     7     1     2   ar
     8     2     3   ar
     9     3    19    1
    10    19    20    1
    11    20    21    1
    12    21    22   ar
    13    22    23   ar
    14    23    24   ar
    15    24    25   ar
    16    25    26   ar
    17     3     4   ar
    18     4     5   ar
    19     5     6   ar
    20     6     7   ar
    21     7     8   ar
    22     8     9   ar
    23    13    14   ar
    24    14    10   ar
    25     9     1   ar
    26    26    21   ar
    27     9     4   ar
    28    15    17    1
    29    15    18    1
@<TRIPOS>MOLECULE
*****
 26 29 0 0 0
SMALL
GASTEIGER

@<TRIPOS>ATOM
      1 C          -6.7370  -18.6160   21.4732 C.ar    1  UNL1        0.1581
      2 N          -6.5035  -17.5894   22.5417 N.ar    1  UNL1       -0.1644
      3 N          -5.0389  -17.5824   22.8655 N.ar    1  UNL1       -0.2504
      4 C          -4.3672  -18.6047   21.9972 C.ar    1  UNL1        0.0795
      5 C          -2.9356  -19.0363   21.8790 C.ar    1  UNL1        0.0188
      6 C          -2.5535  -20.1068   20.9002 C.ar    1  UNL1        0.0015
      7 C          -3.6030  -20.7456   20.0397 C.ar    1  UNL1        0.0001
      8 C          -5.0346  -20.3140   20.1580 C.ar    1  UNL1        0.0032
      9 C          -5.4167  -19.2435   21.1367 C.ar    1  UNL1        0.0413
     10 C         -10.4434  -19.0672   20.4125 C.ar    1  UNL1        0.1965
     11 N          -9.7419  -19.8891   19.3721 N.ar    1  UNL1       -0.0587
     12 O          -8.2682  -19.8202   19.6428 O.2     1  UNL1       -0.3311
     13 C          -8.0587  -18.9556   20.8505 C.ar    1  UNL1        0.2792
     14 N          -9.4030  -18.4903   21.3262 N.ar    1  UNL1       -0.1884
     15 N         -12.4676  -17.5102   20.8901 N.3     1  UNL1       -0.3147
     16 C         -11.9248  -18.8588   20.5203 C.3     1  UNL1        0.1355
     17 H         -13.4865  -17.5495   20.9168 H       1  UNL1        0.1192
     18 H         -12.1719  -16.8229   20.1968 H       1  UNL1        0.1192
     19 C          -4.3644  -16.7069   23.8796 C.3     1  UNL1        0.1321
     20 C          -5.0008  -15.4139   24.2960 C.3     1  UNL1        0.0527
     21 C          -6.1611  -15.4210   25.2466 C.ar    1  UNL1       -0.0202
     22 C          -7.5554  -15.2255   24.7294 C.ar    1  UNL1       -0.0042
     23 C          -8.7157  -15.2326   25.6800 C.ar    1  UNL1       -0.0003
     24 C          -8.4816  -15.4351   27.1477 C.ar    1  UNL1       -0.0000
     25 C          -7.0873  -15.6305   27.6649 C.ar    1  UNL1       -0.0003
     26 C          -5.9270  -15.6235   26.7143 C.ar    1  UNL1       -0.0042
@<TRIPOS>BOND
     1    15    16    1
     2    16    10    1
     3    10    11   ar
     4    11    12   ar
     5    12    13   ar
     6    13     1    1
     7     1     2   ar
     8     2     3   ar
     9     3    19    1
    10    19    20    1
    11    20    21    1
    12    21    22   ar
    13    22    23   ar
    14    23    24   ar
    15    24    25   ar
    16    25    26   ar
    17     3     4   ar
    18     4     5   ar
    19     5     6   ar
    20     6     7   ar
    21     7     8   ar
    22     8     9   ar
    23    13    14   ar
    24    14    10   ar
    25     9     1   ar
    26    26    21   ar
    27     9     4   ar
    28    15    17    1
    29    15    18    1
