@<TRIPOS>MOLECULE
*****
 23 25 0 0 0
SMALL
GASTEIGER

@<TRIPOS>ATOM
      1 C          -7.7535  -19.7817   21.8002 C.3     1  UNL1        0.1154
      2 C          -7.7119  -19.4833   19.8155 C.3     1  UNL1        0.0335
      3 C          -8.7695  -19.2251   20.8475 C.3     1  UNL1        0.1377
      4 C          -9.6146  -19.0833   22.0786 C.3     1  UNL1        0.0613
      5 C         -10.9320  -18.4929   21.6710 C.3     1  UNL1        0.1290
      6 C         -12.1940  -17.9013   21.1165 C.3     1  UNL1        0.0305
      7 C         -13.3409  -17.5889   22.0313 C.3     1  UNL1        0.0025
      8 C         -13.2259  -17.8680   23.5006 C.3     1  UNL1        0.0002
      9 C         -11.9639  -18.4596   24.0551 C.3     1  UNL1        0.0025
     10 C         -10.8170  -18.7720   23.1403 C.3     1  UNL1        0.0305
     11 O         -10.9011  -18.2699   20.1880 O.3     1  UNL1       -0.2256
     12 O          -9.5645  -18.7224   19.6790 O.3     1  UNL1       -0.2251
     13 C          -6.5211  -18.9919   22.1281 C.2     1  UNL1        0.2252
     14 O          -6.6073  -17.5044   22.3000 O.2     1  UNL1       -0.2750
     15 N          -5.2024  -19.6898   22.2842 N.am    1  UNL1       -0.2991
     16 H          -5.1459  -20.6662   22.1714 H       1  UNL1        0.1498
     17 C          -3.9701  -18.9000   22.6121 C.3     1  UNL1        0.1358
     18 C          -3.0751  -18.4148   21.5105 C.ar    1  UNL1        0.0788
     19 C          -3.1562  -19.0384   20.1487 C.ar    1  UNL1        0.0165
     20 C          -2.2612  -18.5532   19.0471 C.ar    1  UNL1        0.0029
     21 C          -1.2851  -17.4444   19.3073 C.ar    1  UNL1        0.0207
     22 C          -1.2040  -16.8208   20.6691 C.ar    1  UNL1        0.0985
     23 N          -2.0990  -17.3060   21.7707 N.ar    1  UNL1       -0.2464
@<TRIPOS>BOND
     1     2     3    1
     2     3     1    1
     3     1    13    1
     4    13    14    2
     5    13    15   am
     6    15    17    1
     7    17    18    1
     8    18    19   ar
     9    19    20   ar
    10    20    21   ar
    11    21    22   ar
    12    22    23   ar
    13     3     4    1
    14     4     5    1
    15     5     6    1
    16     6     7    1
    17     7     8    1
    18     8     9    1
    19     9    10    1
    20     5    11    1
    21    11    12    1
    22    12     3    1
    23    23    18   ar
    24    10     5    1
    25    15    16    1
@<TRIPOS>MOLECULE
*****
 23 25 0 0 0
SMALL
GASTEIGER

@<TRIPOS>ATOM
      1 C          -6.5070  -20.0787   20.3036 C.3     1  UNL1        0.1154
      2 C          -6.5526  -20.4768   22.2707 C.3     1  UNL1        0.0335
      3 C          -5.4907  -19.8876   21.3901 C.3     1  UNL1        0.1377
      4 C          -4.6413  -19.3384   20.2824 C.3     1  UNL1        0.0613
      5 C          -3.3219  -18.9310   20.8684 C.3     1  UNL1        0.1290
      6 C          -2.0584  -18.5723   21.5928 C.3     1  UNL1        0.0305
      7 C          -0.9072  -17.9728   20.8410 C.3     1  UNL1        0.0025
      8 C          -1.0196  -17.7319   19.3647 C.3     1  UNL1        0.0002
      9 C          -2.2831  -18.0905   18.6403 C.3     1  UNL1        0.0025
     10 C          -3.4343  -18.6901   19.3922 C.3     1  UNL1        0.0305
     11 O          -3.3559  -19.2284   22.3383 O.3     1  UNL1       -0.2256
     12 O          -4.6963  -19.8196   22.6607 O.3     1  UNL1       -0.2251
     13 C          -7.7325  -19.2146   20.2626 C.2     1  UNL1        0.2252
     14 O          -7.6949  -17.8317   20.8421 O.2     1  UNL1       -0.2750
     15 N          -8.9957  -19.7337   19.6421 N.am    1  UNL1       -0.2991
     16 H          -9.0205  -20.6414   19.2617 H       1  UNL1        0.1498
     17 C         -10.2212  -18.8696   19.6011 C.3     1  UNL1        0.1358
     18 C         -11.0174  -18.6377   20.8510 C.ar    1  UNL1        0.0788
     19 C         -10.6558  -19.3591   22.1154 C.ar    1  UNL1        0.0165
     20 C         -11.4520  -19.1272   23.3652 C.ar    1  UNL1        0.0029
     21 C         -12.6099  -18.1737   23.3507 C.ar    1  UNL1        0.0207
     22 C         -12.9715  -17.4523   22.0864 C.ar    1  UNL1        0.0985
     23 N         -12.1753  -17.6842   20.8364 N.ar    1  UNL1       -0.2464
@<TRIPOS>BOND
     1     2     3    1
     2     3     1    1
     3     1    13    1
     4    13    14    2
     5    13    15   am
     6    15    17    1
     7    17    18    1
     8    18    19   ar
     9    19    20   ar
    10    20    21   ar
    11    21    22   ar
    12    22    23   ar
    13     3     4    1
    14     4     5    1
    15     5     6    1
    16     6     7    1
    17     7     8    1
    18     8     9    1
    19     9    10    1
    20     5    11    1
    21    11    12    1
    22    12     3    1
    23    23    18   ar
    24    10     5    1
    25    15    16    1
@<TRIPOS>MOLECULE
*****
 23 25 0 0 0
SMALL
GASTEIGER

@<TRIPOS>ATOM
      1 C          -8.8274  -17.4682   21.7136 C.3     1  UNL1        0.1154
      2 C         -10.5820  -17.8172   22.6242 C.3     1  UNL1        0.0335
      3 C          -9.2914  -17.2362   23.1209 C.3     1  UNL1        0.1377
      4 C          -7.9038  -16.7037   23.3234 C.3     1  UNL1        0.0613
      5 C          -7.7799  -16.2640   24.7522 C.3     1  UNL1        0.1290
      6 C          -7.8051  -15.8703   26.1994 C.3     1  UNL1        0.0305
      7 C          -6.5845  -15.2745   26.8359 C.3     1  UNL1        0.0025
      8 C          -5.3388  -15.0723   26.0251 C.3     1  UNL1        0.0002
      9 C          -5.3136  -15.4659   24.5780 C.3     1  UNL1        0.0025
     10 C          -6.5342  -16.0618   23.9415 C.3     1  UNL1        0.0305
     11 O          -9.0910  -16.5248   25.4328 O.3     1  UNL1       -0.2256
     12 O         -10.0252  -17.1257   24.4246 O.3     1  UNL1       -0.2251
     13 C          -7.8153  -18.5368   21.4241 C.2     1  UNL1        0.2252
     14 O          -7.8071  -19.8007   22.2317 O.2     1  UNL1       -0.2750
     15 N          -6.8112  -18.3414   20.3268 N.am    1  UNL1       -0.2991
     16 H          -6.8166  -17.5118   19.7967 H       1  UNL1        0.1498
     17 C          -5.7991  -19.4099   20.0374 C.3     1  UNL1        0.1358
     18 C          -4.3343  -19.0962   20.1147 C.ar    1  UNL1        0.0788
     19 C          -3.4576  -19.8408   21.0775 C.ar    1  UNL1        0.0165
     20 C          -1.9929  -19.5271   21.1548 C.ar    1  UNL1        0.0029
     21 C          -1.4048  -18.4688   20.2692 C.ar    1  UNL1        0.0207
     22 C          -2.2814  -17.7243   19.3064 C.ar    1  UNL1        0.0985
     23 N          -3.7463  -18.0380   19.2291 N.ar    1  UNL1       -0.2464
@<TRIPOS>BOND
     1     2     3    1
     2     3     1    1
     3     1    13    1
     4    13    14    2
     5    13    15   am
     6    15    17    1
     7    17    18    1
     8    18    19   ar
     9    19    20   ar
    10    20    21   ar
    11    21    22   ar
    12    22    23   ar
    13     3     4    1
    14     4     5    1
    15     5     6    1
    16     6     7    1
    17     7     8    1
    18     8     9    1
    19     9    10    1
    20     5    11    1
    21    11    12    1
    22    12     3    1
    23    23    18   ar
    24    10     5    1
    25    15    16    1
@<TRIPOS>MOLECULE
*****
 23 25 0 0 0
SMALL
GASTEIGER

@<TRIPOS>ATOM
      1 C          -6.0746  -19.7737   21.8547 C.3     1  UNL1        0.1154
      2 C          -5.9668  -21.1946   20.4409 C.3     1  UNL1        0.0335
      3 C          -5.0526  -20.0592   20.7947 C.3     1  UNL1        0.1377
      4 C          -4.3520  -18.8642   21.3700 C.3     1  UNL1        0.0613
      5 C          -3.0880  -18.6485   20.5916 C.3     1  UNL1        0.1290
      6 C          -1.8651  -18.5580   19.7278 C.3     1  UNL1        0.0305
      7 C          -0.8586  -17.4713   19.9643 C.3     1  UNL1        0.0025
      8 C          -1.0749  -16.4752   21.0647 C.3     1  UNL1        0.0002
      9 C          -2.2978  -16.5656   21.9285 C.3     1  UNL1        0.0025
     10 C          -3.3044  -17.6523   21.6920 C.3     1  UNL1        0.0305
     11 O          -3.0074  -19.7102   19.5351 O.3     1  UNL1       -0.2256
     12 O          -4.2216  -20.5822   19.6606 O.3     1  UNL1       -0.2251
     13 C          -7.0943  -18.6943   21.6419 C.2     1  UNL1        0.2252
     14 O          -7.7055  -18.4965   20.2865 O.2     1  UNL1       -0.2750
     15 N          -7.5029  -17.8127   22.7848 N.am    1  UNL1       -0.2991
     16 H          -7.1017  -17.9425   23.6744 H       1  UNL1        0.1498
     17 C          -8.5226  -16.7333   22.5720 C.3     1  UNL1        0.1358
     18 C          -9.9789  -17.0260   22.7800 C.ar    1  UNL1        0.0788
     19 C         -10.3962  -18.2003   23.6149 C.ar    1  UNL1        0.0165
     20 C         -11.8526  -18.4929   23.8229 C.ar    1  UNL1        0.0029
     21 C         -12.8917  -17.6112   23.1961 C.ar    1  UNL1        0.0207
     22 C         -12.4745  -16.4370   22.3613 C.ar    1  UNL1        0.0985
     23 N         -11.0180  -16.1443   22.1532 N.ar    1  UNL1       -0.2464
@<TRIPOS>BOND
     1     2     3    1
     2     3     1    1
     3     1    13    1
     4    13    14    2
     5    13    15   am
     6    15    17    1
     7    17    18    1
     8    18    19   ar
     9    19    20   ar
    10    20    21   ar
    11    21    22   ar
    12    22    23   ar
    13     3     4    1
    14     4     5    1
    15     5     6    1
    16     6     7    1
    17     7     8    1
    18     8     9    1
    19     9    10    1
    20     5    11    1
    21    11    12    1
    22    12     3    1
    23    23    18   ar
    24    10     5    1
    25    15    16    1
@<TRIPOS>MOLECULE
*****
 23 25 0 0 0
SMALL
GASTEIGER

@<TRIPOS>ATOM
      1 C          -7.6072  -19.6909   21.3355 C.3     1  UNL1        0.1154
      2 C          -7.8258  -19.4145   19.3592 C.3     1  UNL1        0.0335
      3 C          -8.7624  -19.2042   20.5118 C.3     1  UNL1        0.1377
      4 C          -9.4576  -19.0956   21.8366 C.3     1  UNL1        0.0613
      5 C         -10.8468  -18.5858   21.5907 C.3     1  UNL1        0.1290
      6 C         -12.1990  -18.0734   21.1923 C.3     1  UNL1        0.0305
      7 C         -13.2417  -17.8154   22.2393 C.3     1  UNL1        0.0025
      8 C         -12.9321  -18.0698   23.6848 C.3     1  UNL1        0.0002
      9 C         -11.5798  -18.5822   24.0832 C.3     1  UNL1        0.0025
     10 C         -10.5372  -18.8402   23.0362 C.3     1  UNL1        0.0305
     11 O         -11.0102  -18.3793   20.1140 O.3     1  UNL1       -0.2256
     12 O          -9.7219  -18.7615   19.4472 O.3     1  UNL1       -0.2251
     13 C          -6.7487  -18.7094   22.0770 C.2     1  UNL1        0.2252
     14 O          -5.3560  -19.0891   22.4843 O.2     1  UNL1       -0.2750
     15 N          -7.2831  -17.3481   22.4112 N.am    1  UNL1       -0.2991
     16 H          -8.1972  -17.0989   22.1438 H       1  UNL1        0.1498
     17 C          -6.4246  -16.3667   23.1527 C.3     1  UNL1        0.1358
     18 C          -6.7748  -15.9758   24.5579 C.ar    1  UNL1        0.0788
     19 C          -8.2098  -15.9501   24.9937 C.ar    1  UNL1        0.0165
     20 C          -8.5600  -15.5592   26.3989 C.ar    1  UNL1        0.0029
     21 C          -7.4751  -15.1940   27.3682 C.ar    1  UNL1        0.0207
     22 C          -6.0402  -15.2197   26.9324 C.ar    1  UNL1        0.0985
     23 N          -5.6899  -15.6106   25.5272 N.ar    1  UNL1       -0.2464
@<TRIPOS>BOND
     1     2     3    1
     2     3     1    1
     3     1    13    1
     4    13    14    2
     5    13    15   am
     6    15    17    1
     7    17    18    1
     8    18    19   ar
     9    19    20   ar
    10    20    21   ar
    11    21    22   ar
    12    22    23   ar
    13     3     4    1
    14     4     5    1
    15     5     6    1
    16     6     7    1
    17     7     8    1
    18     8     9    1
    19     9    10    1
    20     5    11    1
    21    11    12    1
    22    12     3    1
    23    23    18   ar
    24    10     5    1
    25    15    16    1
@<TRIPOS>MOLECULE
*****
 23 25 0 0 0
SMALL
GASTEIGER

@<TRIPOS>ATOM
      1 C          -8.2232  -19.9256   22.0493 C.3     1  UNL1        0.1154
      2 C          -8.8994  -20.6158   23.8089 C.3     1  UNL1        0.0335
      3 C          -9.4725  -19.6368   22.8275 C.3     1  UNL1        0.1377
      4 C          -9.7845  -18.7183   21.6834 C.3     1  UNL1        0.0613
      5 C         -11.1070  -18.0664   21.9596 C.3     1  UNL1        0.1290
      6 C         -12.4327  -17.4969   22.3695 C.3     1  UNL1        0.0305
      7 C         -13.1278  -16.5038   21.4861 C.3     1  UNL1        0.0025
      8 C         -12.4971  -16.0801   20.1928 C.3     1  UNL1        0.0002
      9 C         -11.1713  -16.6495   19.7829 C.3     1  UNL1        0.0025
     10 C         -10.4763  -17.6427   20.6663 C.3     1  UNL1        0.0305
     11 O         -11.6123  -18.5821   23.2745 O.3     1  UNL1       -0.2256
     12 O         -10.6021  -19.5527   23.8109 O.3     1  UNL1       -0.2251
     13 C          -6.9677  -19.1553   22.3335 C.2     1  UNL1        0.2252
     14 O          -7.0485  -17.7158   22.7471 O.2     1  UNL1       -0.2750
     15 N          -5.6316  -19.8247   22.2039 N.am    1  UNL1       -0.2991
     16 H          -5.5786  -20.7696   21.9324 H       1  UNL1        0.1498
     17 C          -4.3762  -19.0545   22.4881 C.3     1  UNL1        0.1358
     18 C          -3.4596  -18.6731   21.3636 C.ar    1  UNL1        0.0788
     19 C          -1.9793  -18.5994   21.5949 C.ar    1  UNL1        0.0165
     20 C          -1.0627  -18.2181   20.4704 C.ar    1  UNL1        0.0029
     21 C          -1.6263  -17.9105   19.1148 C.ar    1  UNL1        0.0207
     22 C          -3.1064  -17.9842   18.8836 C.ar    1  UNL1        0.0985
     23 N          -4.0232  -18.3655   20.0080 N.ar    1  UNL1       -0.2464
@<TRIPOS>BOND
     1     2     3    1
     2     3     1    1
     3     1    13    1
     4    13    14    2
     5    13    15   am
     6    15    17    1
     7    17    18    1
     8    18    19   ar
     9    19    20   ar
    10    20    21   ar
    11    21    22   ar
    12    22    23   ar
    13     3     4    1
    14     4     5    1
    15     5     6    1
    16     6     7    1
    17     7     8    1
    18     8     9    1
    19     9    10    1
    20     5    11    1
    21    11    12    1
    22    12     3    1
    23    23    18   ar
    24    10     5    1
    25    15    16    1
@<TRIPOS>MOLECULE
*****
 23 25 0 0 0
SMALL
GASTEIGER

@<TRIPOS>ATOM
      1 C          -6.9942  -19.1757   22.4269 C.3     1  UNL1        0.1154
      2 C          -6.1219  -17.4449   22.9495 C.3     1  UNL1        0.0335
      3 C          -7.5311  -17.7816   22.5610 C.3     1  UNL1        0.1377
      4 C          -8.8280  -18.4098   22.1445 C.3     1  UNL1        0.0613
      5 C          -9.8720  -17.3334   22.1023 C.3     1  UNL1        0.1290
      6 C         -10.8030  -16.1574   22.1047 C.3     1  UNL1        0.0305
      7 C         -12.2454  -16.3421   21.7368 C.3     1  UNL1        0.0025
      8 C         -12.7567  -17.7027   21.3663 C.3     1  UNL1        0.0002
      9 C         -11.8256  -18.8787   21.3639 C.3     1  UNL1        0.0025
     10 C         -10.3832  -18.6941   21.7319 C.3     1  UNL1        0.0305
     11 O          -9.2202  -16.0400   22.4928 O.3     1  UNL1       -0.2256
     12 O          -7.7734  -16.3170   22.7763 O.3     1  UNL1       -0.2251
     13 C          -5.6678  -19.4083   21.7660 C.2     1  UNL1        0.2252
     14 O          -4.5453  -20.0363   22.5376 O.2     1  UNL1       -0.2750
     15 N          -5.4640  -19.0126   20.3335 N.am    1  UNL1       -0.2991
     16 H          -6.2008  -18.6004   19.8271 H       1  UNL1        0.1498
     17 C          -4.1377  -19.2451   19.6727 C.3     1  UNL1        0.1358
     18 C          -2.9738  -18.3548   19.9931 C.ar    1  UNL1        0.0788
     19 C          -1.6944  -18.4858   19.2211 C.ar    1  UNL1        0.0165
     20 C          -0.5305  -17.5955   19.5415 C.ar    1  UNL1        0.0029
     21 C          -0.6460  -16.5743   20.6341 C.ar    1  UNL1        0.0207
     22 C          -1.9253  -16.4433   21.4061 C.ar    1  UNL1        0.0985
     23 N          -3.0892  -17.3336   21.0857 N.ar    1  UNL1       -0.2464
@<TRIPOS>BOND
     1     2     3    1
     2     3     1    1
     3     1    13    1
     4    13    14    2
     5    13    15   am
     6    15    17    1
     7    17    18    1
     8    18    19   ar
     9    19    20   ar
    10    20    21   ar
    11    21    22   ar
    12    22    23   ar
    13     3     4    1
    14     4     5    1
    15     5     6    1
    16     6     7    1
    17     7     8    1
    18     8     9    1
    19     9    10    1
    20     5    11    1
    21    11    12    1
    22    12     3    1
    23    23    18   ar
    24    10     5    1
    25    15    16    1
@<TRIPOS>MOLECULE
*****
 23 25 0 0 0
SMALL
GASTEIGER

@<TRIPOS>ATOM
      1 C         -10.9621   -6.4745   18.9701 C.3     1  UNL1        0.1154
      2 C          -9.3993   -5.4533   18.2321 C.3     1  UNL1        0.0335
      3 C         -10.7680   -5.0187   18.6654 C.3     1  UNL1        0.1377
      4 C         -12.1772   -4.8884   19.1625 C.3     1  UNL1        0.0613
      5 C         -12.5680   -3.4428   19.0744 C.3     1  UNL1        0.1290
      6 C         -12.8150   -1.9704   18.9292 C.3     1  UNL1        0.0305
      7 C         -14.1407   -1.3899   19.3234 C.3     1  UNL1        0.0025
      8 C         -15.2195   -2.2818   19.8629 C.3     1  UNL1        0.0002
      9 C         -14.9725   -3.7541   20.0081 C.3     1  UNL1        0.0025
     10 C         -13.6468   -4.3346   19.6139 C.3     1  UNL1        0.0305
     11 O         -11.4003   -2.6797   18.5229 O.3     1  UNL1       -0.2256
     12 O         -10.2878   -3.6537   18.2701 O.3     1  UNL1       -0.2251
     13 C         -11.9961   -7.2653   18.2248 C.2     1  UNL1        0.2252
     14 O         -11.9151   -7.3869   16.7320 O.2     1  UNL1       -0.2750
     15 N         -13.1112   -7.9346   18.9724 N.am    1  UNL1       -0.2991
     16 H         -13.1644   -7.8548   19.9522 H       1  UNL1        0.1498
     17 C         -14.1452   -8.7254   18.2271 C.3     1  UNL1        0.1358
     18 C         -15.5440   -8.8212   18.7600 C.ar    1  UNL1        0.0788
     19 C         -16.1932   -7.6209   19.3827 C.ar    1  UNL1        0.0165
     20 C         -17.5921   -7.7167   19.9156 C.ar    1  UNL1        0.0029
     21 C         -18.3417   -9.0128   19.8258 C.ar    1  UNL1        0.0207
     22 C         -17.6926  -10.2130   19.2031 C.ar    1  UNL1        0.0985
     23 N         -16.2937  -10.1173   18.6702 N.ar    1  UNL1       -0.2464
@<TRIPOS>BOND
     1     2     3    1
     2     3     1    1
     3     1    13    1
     4    13    14    2
     5    13    15   am
     6    15    17    1
     7    17    18    1
     8    18    19   ar
     9    19    20   ar
    10    20    21   ar
    11    21    22   ar
    12    22    23   ar
    13     3     4    1
    14     4     5    1
    15     5     6    1
    16     6     7    1
    17     7     8    1
    18     8     9    1
    19     9    10    1
    20     5    11    1
    21    11    12    1
    22    12     3    1
    23    23    18   ar
    24    10     5    1
    25    15    16    1
@<TRIPOS>MOLECULE
*****
 23 25 0 0 0
SMALL
GASTEIGER

@<TRIPOS>ATOM
      1 C          -5.9408  -16.7802   23.9778 C.3     1  UNL1        0.1154
      2 C          -5.4764  -14.8282   23.9171 C.3     1  UNL1        0.0335
      3 C          -4.8193  -16.0355   23.3164 C.3     1  UNL1        0.1377
      4 C          -4.3967  -17.3984   22.8540 C.3     1  UNL1        0.0613
      5 C          -3.1513  -17.2437   22.0323 C.3     1  UNL1        0.1290
      6 C          -1.9169  -16.9347   21.2381 C.3     1  UNL1        0.0305
      7 C          -1.1528  -18.0438   20.5778 C.3     1  UNL1        0.0025
      8 C          -1.6231  -19.4619   20.7117 C.3     1  UNL1        0.0002
      9 C          -2.8575  -19.7708   21.5059 C.3     1  UNL1        0.0025
     10 C          -3.6216  -18.6618   22.1662 C.3     1  UNL1        0.0305
     11 O          -2.8042  -15.7851   21.9869 O.3     1  UNL1       -0.2256
     12 O          -3.8351  -15.0383   22.7805 O.3     1  UNL1       -0.2251
     13 C          -7.3260  -16.7125   23.4061 C.2     1  UNL1        0.2252
     14 O          -7.5216  -16.6413   21.9207 O.2     1  UNL1       -0.2750
     15 N          -8.5155  -16.7159   24.3200 N.am    1  UNL1       -0.2991
     16 H          -8.3871  -16.7626   25.2950 H       1  UNL1        0.1498
     17 C          -9.9006  -16.6482   23.7483 C.3     1  UNL1        0.1358
     18 C         -10.3484  -17.6688   22.7444 C.ar    1  UNL1        0.0788
     19 C         -10.4176  -19.1174   23.1273 C.ar    1  UNL1        0.0165
     20 C         -10.8653  -20.1380   22.1234 C.ar    1  UNL1        0.0029
     21 C         -11.2438  -19.7100   20.7365 C.ar    1  UNL1        0.0207
     22 C         -11.1746  -18.2614   20.3535 C.ar    1  UNL1        0.0985
     23 N         -10.7268  -17.2407   21.3575 N.ar    1  UNL1       -0.2464
@<TRIPOS>BOND
     1     2     3    1
     2     3     1    1
     3     1    13    1
     4    13    14    2
     5    13    15   am
     6    15    17    1
     7    17    18    1
     8    18    19   ar
     9    19    20   ar
    10    20    21   ar
    11    21    22   ar
    12    22    23   ar
    13     3     4    1
    14     4     5    1
    15     5     6    1
    16     6     7    1
    17     7     8    1
    18     8     9    1
    19     9    10    1
    20     5    11    1
    21    11    12    1
    22    12     3    1
    23    23    18   ar
    24    10     5    1
    25    15    16    1
