@<TRIPOS>MOLECULE
*****
 34 38 0 0 0
SMALL
GASTEIGER

@<TRIPOS>ATOM
      1 C           2.6804   -0.2508   24.2740 C.ar    1  UNL1        0.1655
      2 N           3.2174   -1.1053   23.1643 N.ar    1  UNL1       -0.2219
      3 C           4.3099   -1.9646   23.7281 C.ar    1  UNL1        0.1344
      4 C           5.1968   -2.9999   23.1022 C.ar    1  UNL1        0.1049
      5 C           6.2218   -3.7117   23.9343 C.ar    1  UNL1        0.0392
      6 C           6.3601   -3.3884   25.3926 C.ar    1  UNL1        0.0751
      7 N           5.4732   -2.3531   26.0185 N.ar    1  UNL1       -0.3361
      8 C           4.4482   -1.6413   25.1863 C.ar    1  UNL1        0.1615
      9 N           3.4411   -0.5821   25.5237 N.ar    1  UNL1       -0.2081
     10 H           5.5639   -2.1409   26.9756 H       1  UNL1        0.1675
     11 C          -0.1564    1.7814   27.6708 C.ar    1  UNL1        0.1346
     12 C           0.7983    1.0616   26.7651 C.ar    1  UNL1        0.0253
     13 C           0.7652    1.3148   25.2870 C.ar    1  UNL1        0.0234
     14 C           1.5766    0.7578   24.1549 C.ar    1  UNL1        0.0545
     15 C           1.0903    1.3866   22.8829 C.ar    1  UNL1        0.0790
     16 N          -0.0216    2.3322   23.2288 N.ar    1  UNL1       -0.3227
     17 C          -0.7965    3.1743   22.2591 C.3     1  UNL1        0.1305
     18 C          -0.2225    2.2878   24.7146 C.ar    1  UNL1        0.0795
     19 C          -1.1772    3.0076   25.6203 C.ar    1  UNL1        0.1161
     20 N          -1.1441    2.7544   27.0984 N.ar    1  UNL1       -0.2377
     21 C           0.6955    2.1829   31.5261 C.3     1  UNL1        0.1110
     22 N           0.6625    2.4361   30.0480 N.am    1  UNL1       -0.2979
     23 C          -0.1234    1.5283   29.1489 C.2     1  UNL1        0.2636
     24 O          -0.8763    0.3674   29.7280 O.2     1  UNL1       -0.2685
     25 H           1.1566    3.1980   29.6679 H       1  UNL1        0.1498
     26 N           5.0586   -3.3233   21.6439 N.ar    1  UNL1       -0.2268
     27 C           5.5830   -2.5003   20.5048 C.ar    1  UNL1        0.0991
     28 C           5.2202   -3.1948   19.2257 C.ar    1  UNL1        0.0339
     29 C           4.4717   -4.4470   19.5744 C.ar    1  UNL1        0.1191
     30 N           4.3718   -4.5264   21.0689 N.ar    1  UNL1       -0.1637
     31 C           5.5484   -2.7204   17.8410 C.3     1  UNL1        0.1024
     32 N           5.3079   -1.2892   17.4618 N.3     1  UNL1       -0.2664
     33 C           3.9375   -0.8438   17.0451 C.3     1  UNL1        0.0899
     34 C           6.4379   -0.3034   17.4994 C.3     1  UNL1        0.0899
@<TRIPOS>BOND
     1    21    22    1
     2    22    23   am
     3    23    24    2
     4    23    11    1
     5    11    12   ar
     6    12    13   ar
     7    13    14   ar
     8    14     1    1
     9     1     2   ar
    10     2     3   ar
    11     3     4   ar
    12     4    26    1
    13    26    27   ar
    14    27    28   ar
    15    28    31    1
    16    31    32    1
    17    32    33    1
    18    32    34    1
    19    28    29   ar
    20    29    30   ar
    21     4     5   ar
    22     5     6   ar
    23     6     7   ar
    24     7     8   ar
    25     8     9   ar
    26    14    15   ar
    27    15    16   ar
    28    16    17    1
    29    16    18   ar
    30    18    19   ar
    31    19    20   ar
    32    20    11   ar
    33    18    13   ar
    34     9     1   ar
    35     8     3    1
    36    30    26   ar
    37    22    25    1
    38     7    10    1
@<TRIPOS>MOLECULE
*****
 34 38 0 0 0
SMALL
GASTEIGER

@<TRIPOS>ATOM
      1 C           4.9462   -1.4579   32.3440 C.ar    1  UNL1        0.1655
      2 N           5.4942   -1.6659   30.9632 N.ar    1  UNL1       -0.2219
      3 C           6.1280   -3.0245   30.9159 C.ar    1  UNL1        0.1344
      4 C           6.8273   -3.7682   29.8168 C.ar    1  UNL1        0.1049
      5 C           7.3703   -5.1434   30.0690 C.ar    1  UNL1        0.0392
      6 C           7.2141   -5.7752   31.4206 C.ar    1  UNL1        0.0751
      7 N           6.5149   -5.0316   32.5197 N.ar    1  UNL1       -0.3361
      8 C           5.9719   -3.6563   32.2673 C.ar    1  UNL1        0.1615
      9 N           5.2414   -2.6880   33.1500 N.ar    1  UNL1       -0.2081
     10 H           6.4123   -5.4462   33.4067 H       1  UNL1        0.1675
     11 C           1.1935    1.0026   30.4521 C.ar    1  UNL1        0.1346
     12 C           2.3340    0.1307   30.8869 C.ar    1  UNL1        0.0253
     13 C           3.0729    0.4395   32.1552 C.ar    1  UNL1        0.0234
     14 C           4.2290   -0.2346   32.8329 C.ar    1  UNL1        0.0545
     15 C           4.5419    0.5295   34.0851 C.ar    1  UNL1        0.0790
     16 N           3.5792    1.6758   34.1815 N.ar    1  UNL1       -0.3227
     17 C           3.5325    2.6982   35.2780 C.3     1  UNL1        0.1305
     18 C           2.6713    1.6201   32.9887 C.ar    1  UNL1        0.0795
     19 C           1.5308    2.4920   32.5539 C.ar    1  UNL1        0.1161
     20 N           0.7919    2.1832   31.2856 N.ar    1  UNL1       -0.2377
     21 C          -0.1091    1.2637   26.7124 C.3     1  UNL1        0.1110
     22 N           0.6298    1.5724   27.9808 N.am    1  UNL1       -0.2979
     23 C           0.4546    0.6938   29.1837 C.2     1  UNL1        0.2636
     24 O          -0.4595   -0.4937   29.1184 O.2     1  UNL1       -0.2685
     25 H           1.2298    2.3518   28.0236 H       1  UNL1        0.1498
     26 N           6.9835   -3.1364   28.4652 N.ar    1  UNL1       -0.2268
     27 C           6.4762   -3.6928   27.1679 C.ar    1  UNL1        0.0991
     28 C           6.8537   -2.7377   26.0747 C.ar    1  UNL1        0.0339
     29 C           7.5943   -1.5909   26.6963 C.ar    1  UNL1        0.1191
     30 N           7.6745   -1.8374   28.1737 N.ar    1  UNL1       -0.1637
     31 C           6.5448   -2.9006   24.6159 C.3     1  UNL1        0.1024
     32 N           5.1715   -2.5873   24.1005 N.3     1  UNL1       -0.2664
     33 C           4.6698   -3.2497   22.8517 C.3     1  UNL1        0.0899
     34 C           4.2998   -1.6114   24.8339 C.3     1  UNL1        0.0899
@<TRIPOS>BOND
     1    21    22    1
     2    22    23   am
     3    23    24    2
     4    23    11    1
     5    11    12   ar
     6    12    13   ar
     7    13    14   ar
     8    14     1    1
     9     1     2   ar
    10     2     3   ar
    11     3     4   ar
    12     4    26    1
    13    26    27   ar
    14    27    28   ar
    15    28    31    1
    16    31    32    1
    17    32    33    1
    18    32    34    1
    19    28    29   ar
    20    29    30   ar
    21     4     5   ar
    22     5     6   ar
    23     6     7   ar
    24     7     8   ar
    25     8     9   ar
    26    14    15   ar
    27    15    16   ar
    28    16    17    1
    29    16    18   ar
    30    18    19   ar
    31    19    20   ar
    32    20    11   ar
    33    18    13   ar
    34     9     1   ar
    35     8     3    1
    36    30    26   ar
    37    22    25    1
    38     7    10    1
@<TRIPOS>MOLECULE
*****
 34 38 0 0 0
SMALL
GASTEIGER

@<TRIPOS>ATOM
      1 C          -8.9469  -16.2493   23.2272 C.ar    1  UNL1        0.1655
      2 N          -7.4638  -16.3319   23.0178 N.ar    1  UNL1       -0.2219
      3 C          -6.7917  -15.8794   24.2801 C.ar    1  UNL1        0.1344
      4 C          -5.3453  -15.7504   24.6564 C.ar    1  UNL1        0.1049
      5 C          -4.9666  -15.2592   26.0220 C.ar    1  UNL1        0.0392
      6 C          -6.0341  -14.8969   27.0116 C.ar    1  UNL1        0.0751
      7 N          -7.4804  -15.0258   26.6353 N.ar    1  UNL1       -0.3361
      8 C          -7.8591  -15.5171   25.2696 C.ar    1  UNL1        0.1615
      9 N          -9.1912  -15.7457   24.6189 N.ar    1  UNL1       -0.2081
     10 H          -8.1811  -14.7881   27.2847 H       1  UNL1        0.1675
     11 C          -9.0056  -19.6634   19.7549 C.ar    1  UNL1        0.1346
     12 C          -8.8159  -18.6743   20.8666 C.ar    1  UNL1        0.0253
     13 C          -9.9024  -17.6920   21.1899 C.ar    1  UNL1        0.0234
     14 C         -10.0005  -16.6074   22.2215 C.ar    1  UNL1        0.0545
     15 C         -11.3372  -15.9438   22.0706 C.ar    1  UNL1        0.0790
     16 N         -12.0653  -16.6183   20.9459 N.ar    1  UNL1       -0.3227
     17 C         -13.4389  -16.2729   20.4521 C.3     1  UNL1        0.1305
     18 C         -11.1785  -17.6987   20.4015 C.ar    1  UNL1        0.0795
     19 C         -11.3681  -18.6877   19.2899 C.ar    1  UNL1        0.1161
     20 N         -10.2816  -19.6701   18.9666 N.ar    1  UNL1       -0.2377
     21 C          -5.5367  -21.5883   19.8627 C.3     1  UNL1        0.1110
     22 N          -6.6232  -20.6060   20.1860 N.am    1  UNL1       -0.2979
     23 C          -7.9191  -20.6458   19.4316 C.2     1  UNL1        0.2636
     24 O          -8.1285  -21.6679   18.3540 O.2     1  UNL1       -0.2685
     25 H          -6.4857  -19.9351   20.8933 H       1  UNL1        0.1498
     26 N          -4.2777  -16.1127   23.6669 N.ar    1  UNL1       -0.2268
     27 C          -3.7119  -17.4836   23.4427 C.ar    1  UNL1        0.0991
     28 C          -2.6730  -17.3858   22.3651 C.ar    1  UNL1        0.0339
     29 C          -2.5968  -15.9544   21.9234 C.ar    1  UNL1        0.1191
     30 N          -3.5885  -15.1675   22.7279 N.ar    1  UNL1       -0.1637
     31 C          -1.8541  -18.5203   21.8243 C.3     1  UNL1        0.1024
     32 N          -1.5729  -18.6078   20.3535 N.3     1  UNL1       -0.2664
     33 C          -0.2136  -18.2537   19.8274 C.3     1  UNL1        0.0899
     34 C          -2.6511  -19.0495   19.4088 C.3     1  UNL1        0.0899
@<TRIPOS>BOND
     1    21    22    1
     2    22    23   am
     3    23    24    2
     4    23    11    1
     5    11    12   ar
     6    12    13   ar
     7    13    14   ar
     8    14     1    1
     9     1     2   ar
    10     2     3   ar
    11     3     4   ar
    12     4    26    1
    13    26    27   ar
    14    27    28   ar
    15    28    31    1
    16    31    32    1
    17    32    33    1
    18    32    34    1
    19    28    29   ar
    20    29    30   ar
    21     4     5   ar
    22     5     6   ar
    23     6     7   ar
    24     7     8   ar
    25     8     9   ar
    26    14    15   ar
    27    15    16   ar
    28    16    17    1
    29    16    18   ar
    30    18    19   ar
    31    19    20   ar
    32    20    11   ar
    33    18    13   ar
    34     9     1   ar
    35     8     3    1
    36    30    26   ar
    37    22    25    1
    38     7    10    1
@<TRIPOS>MOLECULE
*****
 34 38 0 0 0
SMALL
GASTEIGER

@<TRIPOS>ATOM
      1 C           1.9041   -0.2031   21.1539 C.ar    1  UNL1        0.1655
      2 N           1.6643    0.4739   22.4708 N.ar    1  UNL1       -0.2219
      3 C           0.5632    1.4751   22.2835 C.ar    1  UNL1        0.1344
      4 C          -0.0951    2.4323   23.2324 C.ar    1  UNL1        0.1049
      5 C          -1.1940    3.3314   22.7487 C.ar    1  UNL1        0.0392
      6 C          -1.6347    3.2733   21.3160 C.ar    1  UNL1        0.0751
      7 N          -0.9764    2.3160   20.3671 N.ar    1  UNL1       -0.3361
      8 C           0.1226    1.4170   20.8509 C.ar    1  UNL1        0.1615
      9 N           0.9513    0.3798   20.1528 N.ar    1  UNL1       -0.2081
     10 H          -1.2656    2.2779   19.4269 H       1  UNL1        0.1675
     11 C           5.1245   -2.3517   24.1084 C.ar    1  UNL1        0.1346
     12 C           4.0801   -1.5898   23.3478 C.ar    1  UNL1        0.0253
     13 C           3.8663   -1.8631   21.8885 C.ar    1  UNL1        0.0234
     14 C           2.9187   -1.2748   20.8854 C.ar    1  UNL1        0.0545
     15 C           3.1638   -1.9464   19.5668 C.ar    1  UNL1        0.0790
     16 N           4.2629   -2.9497   19.7549 N.ar    1  UNL1       -0.3227
     17 C           4.8286   -3.8470   18.6943 C.3     1  UNL1        0.1305
     18 C           4.6971   -2.8982   21.1897 C.ar    1  UNL1        0.0795
     19 C           5.7415   -3.6601   21.9503 C.ar    1  UNL1        0.1161
     20 N           5.9553   -3.3869   23.4097 N.ar    1  UNL1       -0.2377
     21 C           4.3797   -1.5052   27.9135 C.3     1  UNL1        0.1110
     22 N           4.1660   -1.7784   26.4541 N.am    1  UNL1       -0.2979
     23 C           5.3382   -2.0785   25.5677 C.2     1  UNL1        0.2636
     24 O           6.7242   -2.1053   26.1407 O.2     1  UNL1       -0.2685
     25 H           3.2563   -1.7608   26.0781 H       1  UNL1        0.1498
     26 N           0.3456    2.4905   24.6651 N.ar    1  UNL1       -0.2268
     27 C          -0.4192    1.9674   25.8447 C.ar    1  UNL1        0.0991
     28 C           0.3909    2.2356   27.0783 C.ar    1  UNL1        0.0339
     29 C           1.6564    2.9245   26.6610 C.ar    1  UNL1        0.1191
     30 N           1.6283    3.0820   25.1696 N.ar    1  UNL1       -0.1637
     31 C           0.0036    1.8778   28.4825 C.3     1  UNL1        0.1024
     32 N          -0.0031    0.4418   28.9160 N.3     1  UNL1       -0.2664
     33 C          -1.2788   -0.3463   28.8808 C.3     1  UNL1        0.0899
     34 C           1.2661   -0.2060   29.3846 C.3     1  UNL1        0.0899
@<TRIPOS>BOND
     1    21    22    1
     2    22    23   am
     3    23    24    2
     4    23    11    1
     5    11    12   ar
     6    12    13   ar
     7    13    14   ar
     8    14     1    1
     9     1     2   ar
    10     2     3   ar
    11     3     4   ar
    12     4    26    1
    13    26    27   ar
    14    27    28   ar
    15    28    31    1
    16    31    32    1
    17    32    33    1
    18    32    34    1
    19    28    29   ar
    20    29    30   ar
    21     4     5   ar
    22     5     6   ar
    23     6     7   ar
    24     7     8   ar
    25     8     9   ar
    26    14    15   ar
    27    15    16   ar
    28    16    17    1
    29    16    18   ar
    30    18    19   ar
    31    19    20   ar
    32    20    11   ar
    33    18    13   ar
    34     9     1   ar
    35     8     3    1
    36    30    26   ar
    37    22    25    1
    38     7    10    1
@<TRIPOS>MOLECULE
*****
 34 38 0 0 0
SMALL
GASTEIGER

@<TRIPOS>ATOM
      1 C           0.8497    1.1726   19.9521 C.ar    1  UNL1        0.1655
      2 N          -0.3683    1.6890   20.6589 N.ar    1  UNL1       -0.2219
      3 C          -1.0059    2.7278   19.7847 C.ar    1  UNL1        0.1344
      4 C          -2.2304    3.5757   19.9631 C.ar    1  UNL1        0.1049
      5 C          -2.6309    4.5491   18.8945 C.ar    1  UNL1        0.0392
      6 C          -1.8069    4.6747   17.6473 C.ar    1  UNL1        0.0751
      7 N          -0.5824    3.8268   17.4689 N.ar    1  UNL1       -0.3361
      8 C          -0.1820    2.8534   18.5376 C.ar    1  UNL1        0.1615
      9 N           0.9649    1.8922   18.6411 N.ar    1  UNL1       -0.2081
     10 H          -0.0416    3.9092   16.6504 H       1  UNL1        0.1675
     11 C           2.5305    0.3251   24.4436 C.ar    1  UNL1        0.1346
     12 C           1.9181    0.7292   23.1353 C.ar    1  UNL1        0.0253
     13 C           2.2369   -0.0409   21.8882 C.ar    1  UNL1        0.0234
     14 C           1.7879    0.1211   20.4662 C.ar    1  UNL1        0.0545
     15 C           2.4417   -0.9531   19.6485 C.ar    1  UNL1        0.0790
     16 N           3.2948   -1.7789   20.5652 N.ar    1  UNL1       -0.3227
     17 C           4.1282   -2.9610   20.1674 C.3     1  UNL1        0.1305
     18 C           3.1683   -1.2151   21.9494 C.ar    1  UNL1        0.0795
     19 C           3.7807   -1.6192   23.2576 C.ar    1  UNL1        0.1161
     20 N           3.4618   -0.8491   24.5047 N.ar    1  UNL1       -0.2377
     21 C           0.8367    1.3655   27.8785 C.3     1  UNL1        0.1110
     22 N           1.1556    0.5954   26.6314 N.am    1  UNL1       -0.2979
     23 C           2.2116    1.0952   25.6907 C.2     1  UNL1        0.2636
     24 O           2.9488    2.3651   25.9971 O.2     1  UNL1       -0.2685
     25 H           0.6717   -0.2381   26.4303 H       1  UNL1        0.1498
     26 N          -3.0544    3.4502   21.2103 N.ar    1  UNL1       -0.2268
     27 C          -2.6469    3.8922   22.5845 C.ar    1  UNL1        0.0991
     28 C          -3.7713    3.5758   23.5256 C.ar    1  UNL1        0.0339
     29 C          -4.8736    2.9382   22.7330 C.ar    1  UNL1        0.1191
     30 N          -4.4306    2.8605   21.3021 N.ar    1  UNL1       -0.1637
     31 C          -3.7899    3.8490   25.0004 C.3     1  UNL1        0.1024
     32 N          -4.5666    5.0144   25.5375 N.3     1  UNL1       -0.2664
     33 C          -4.9839    6.1248   24.6195 C.3     1  UNL1        0.0899
     34 C          -4.9260    5.0694   26.9928 C.3     1  UNL1        0.0899
@<TRIPOS>BOND
     1    21    22    1
     2    22    23   am
     3    23    24    2
     4    23    11    1
     5    11    12   ar
     6    12    13   ar
     7    13    14   ar
     8    14     1    1
     9     1     2   ar
    10     2     3   ar
    11     3     4   ar
    12     4    26    1
    13    26    27   ar
    14    27    28   ar
    15    28    31    1
    16    31    32    1
    17    32    33    1
    18    32    34    1
    19    28    29   ar
    20    29    30   ar
    21     4     5   ar
    22     5     6   ar
    23     6     7   ar
    24     7     8   ar
    25     8     9   ar
    26    14    15   ar
    27    15    16   ar
    28    16    17    1
    29    16    18   ar
    30    18    19   ar
    31    19    20   ar
    32    20    11   ar
    33    18    13   ar
    34     9     1   ar
    35     8     3    1
    36    30    26   ar
    37    22    25    1
    38     7    10    1
@<TRIPOS>MOLECULE
*****
 34 38 0 0 0
SMALL
GASTEIGER

@<TRIPOS>ATOM
      1 C           1.8237    0.1436   19.8295 C.ar    1  UNL1        0.1655
      2 N           1.0162    0.9115   20.8336 N.ar    1  UNL1       -0.2219
      3 C           0.2232    1.9487   20.0952 C.ar    1  UNL1        0.1344
      4 C          -0.7469    2.9923   20.5639 C.ar    1  UNL1        0.1049
      5 C          -1.3996    3.9090   19.5723 C.ar    1  UNL1        0.0392
      6 C          -1.0822    3.7822   18.1117 C.ar    1  UNL1        0.0751
      7 N          -0.1120    2.7386   17.6429 N.ar    1  UNL1       -0.3361
      8 C           0.5406    1.8219   18.6347 C.ar    1  UNL1        0.1615
      9 N           1.5298    0.7063   18.4705 N.ar    1  UNL1       -0.2081
     10 H           0.0963    2.6554   16.6843 H       1  UNL1        0.1675
     11 C           3.7758   -1.3381   24.0379 C.ar    1  UNL1        0.1346
     12 C           3.0896   -0.7480   22.8417 C.ar    1  UNL1        0.0253
     13 C           3.2992   -1.3501   21.4840 C.ar    1  UNL1        0.0234
     14 C           2.7606   -0.9882   20.1315 C.ar    1  UNL1        0.0545
     15 C           3.3235   -1.9569   19.1341 C.ar    1  UNL1        0.0790
     16 N           4.2099   -2.9174   19.8701 N.ar    1  UNL1       -0.3227
     17 C           4.9768   -4.0535   19.2608 C.3     1  UNL1        0.1305
     18 C           4.1949   -2.5424   21.3224 C.ar    1  UNL1        0.0795
     19 C           4.8810   -3.1325   22.5186 C.ar    1  UNL1        0.1161
     20 N           4.6715   -2.5304   23.8763 N.ar    1  UNL1       -0.2377
     21 C           3.3115   -1.0155   27.9660 C.3     1  UNL1        0.1110
     22 N           3.5210   -1.6177   26.6083 N.am    1  UNL1       -0.2979
     23 C           3.5662   -0.7359   25.3957 C.2     1  UNL1        0.2636
     24 O           3.4019    0.7479   25.5408 O.2     1  UNL1       -0.2685
     25 H           3.6289   -2.5916   26.5130 H       1  UNL1        0.1498
     26 N          -1.0644    3.1191   22.0245 N.ar    1  UNL1       -0.2268
     27 C          -2.3777    3.5501   22.6072 C.ar    1  UNL1        0.0991
     28 C          -2.2492    3.5346   24.1016 C.ar    1  UNL1        0.0339
     29 C          -0.8565    3.0940   24.4425 C.ar    1  UNL1        0.1191
     30 N          -0.1242    2.8372   23.1588 N.ar    1  UNL1       -0.1637
     31 C          -3.3246    3.8962   25.0828 C.3     1  UNL1        0.1024
     32 N          -4.4364    4.8155   24.6721 N.3     1  UNL1       -0.2664
     33 C          -5.7368    4.2488   24.1845 C.3     1  UNL1        0.0899
     34 C          -4.2477    6.3016   24.7490 C.3     1  UNL1        0.0899
@<TRIPOS>BOND
     1    21    22    1
     2    22    23   am
     3    23    24    2
     4    23    11    1
     5    11    12   ar
     6    12    13   ar
     7    13    14   ar
     8    14     1    1
     9     1     2   ar
    10     2     3   ar
    11     3     4   ar
    12     4    26    1
    13    26    27   ar
    14    27    28   ar
    15    28    31    1
    16    31    32    1
    17    32    33    1
    18    32    34    1
    19    28    29   ar
    20    29    30   ar
    21     4     5   ar
    22     5     6   ar
    23     6     7   ar
    24     7     8   ar
    25     8     9   ar
    26    14    15   ar
    27    15    16   ar
    28    16    17    1
    29    16    18   ar
    30    18    19   ar
    31    19    20   ar
    32    20    11   ar
    33    18    13   ar
    34     9     1   ar
    35     8     3    1
    36    30    26   ar
    37    22    25    1
    38     7    10    1
@<TRIPOS>MOLECULE
*****
 34 38 0 0 0
SMALL
GASTEIGER

@<TRIPOS>ATOM
      1 C           5.0678   -2.3000   24.3468 C.ar    1  UNL1        0.1655
      2 N           4.2258   -1.2570   23.6735 N.ar    1  UNL1       -0.2219
      3 C           3.8970   -1.7462   22.2942 C.ar    1  UNL1        0.1344
      4 C           3.0985   -1.1405   21.1782 C.ar    1  UNL1        0.1049
      5 C           2.9387   -1.8800   19.8831 C.ar    1  UNL1        0.0392
      6 C           3.5774   -3.2254   19.7038 C.ar    1  UNL1        0.0751
      7 N           4.3759   -3.8311   20.8198 N.ar    1  UNL1       -0.3361
      8 C           4.5357   -3.0915   22.1150 C.ar    1  UNL1        0.1615
      9 N           5.2593   -3.4338   23.3836 N.ar    1  UNL1       -0.2081
     10 H           4.7952   -4.7141   20.7022 H       1  UNL1        0.1675
     11 C           3.0439   -0.7506   28.4964 C.ar    1  UNL1        0.1346
     12 C           3.5040   -1.1854   27.1366 C.ar    1  UNL1        0.0253
     13 C           4.8928   -1.7210   26.9505 C.ar    1  UNL1        0.0234
     14 C           5.6210   -2.2227   25.7389 C.ar    1  UNL1        0.0545
     15 C           6.9996   -2.6335   26.1638 C.ar    1  UNL1        0.0790
     16 N           7.1234   -2.3857   27.6381 N.ar    1  UNL1       -0.3227
     17 C           8.3363   -2.6546   28.4785 C.3     1  UNL1        0.1305
     18 C           5.8213   -1.8217   28.1242 C.ar    1  UNL1        0.0795
     19 C           5.3611   -1.3869   29.4840 C.ar    1  UNL1        0.1161
     20 N           3.9724   -0.8513   29.6701 N.ar    1  UNL1       -0.2377
     21 C          -0.4895    0.8689   27.6948 C.3     1  UNL1        0.1110
     22 N           0.8992    0.3333   27.5087 N.am    1  UNL1       -0.2979
     23 C           1.6551   -0.2150   28.6825 C.2     1  UNL1        0.2636
     24 O           1.0224   -0.2278   30.0424 O.2     1  UNL1       -0.2685
     25 H           1.3145    0.3417   26.6162 H       1  UNL1        0.1498
     26 N           2.4598    0.2049   21.3574 N.ar    1  UNL1       -0.2268
     27 C           0.9866    0.4874   21.3664 C.ar    1  UNL1        0.0991
     28 C           0.7985    1.9611   21.5736 C.ar    1  UNL1        0.0339
     29 C           2.1553    2.5893   21.6927 C.ar    1  UNL1        0.1191
     30 N           3.1820    1.5040   21.5591 N.ar    1  UNL1       -0.1637
     31 C          -0.5158    2.6802   21.6485 C.3     1  UNL1        0.1024
     32 N          -1.2305    3.0697   20.3887 N.3     1  UNL1       -0.2664
     33 C          -2.7198    3.2488   20.3959 C.3     1  UNL1        0.0899
     34 C          -0.4560    3.2802   19.1215 C.3     1  UNL1        0.0899
@<TRIPOS>BOND
     1    21    22    1
     2    22    23   am
     3    23    24    2
     4    23    11    1
     5    11    12   ar
     6    12    13   ar
     7    13    14   ar
     8    14     1    1
     9     1     2   ar
    10     2     3   ar
    11     3     4   ar
    12     4    26    1
    13    26    27   ar
    14    27    28   ar
    15    28    31    1
    16    31    32    1
    17    32    33    1
    18    32    34    1
    19    28    29   ar
    20    29    30   ar
    21     4     5   ar
    22     5     6   ar
    23     6     7   ar
    24     7     8   ar
    25     8     9   ar
    26    14    15   ar
    27    15    16   ar
    28    16    17    1
    29    16    18   ar
    30    18    19   ar
    31    19    20   ar
    32    20    11   ar
    33    18    13   ar
    34     9     1   ar
    35     8     3    1
    36    30    26   ar
    37    22    25    1
    38     7    10    1
@<TRIPOS>MOLECULE
*****
 34 38 0 0 0
SMALL
GASTEIGER

@<TRIPOS>ATOM
      1 C           2.0273   -0.3159   19.8482 C.ar    1  UNL1        0.1655
      2 N           1.3608    0.5101   20.9082 N.ar    1  UNL1       -0.2219
      3 C           0.5934    1.6050   20.2284 C.ar    1  UNL1        0.1344
      4 C          -0.2556    2.7187   20.7660 C.ar    1  UNL1        0.1049
      5 C          -0.9123    3.6832   19.8235 C.ar    1  UNL1        0.0392
      6 C          -0.7201    3.5340   18.3433 C.ar    1  UNL1        0.0751
      7 N           0.1289    2.4203   17.8057 N.ar    1  UNL1       -0.3361
      8 C           0.7856    1.4559   18.7483 C.ar    1  UNL1        0.1615
      9 N           1.6718    0.2687   18.5134 N.ar    1  UNL1       -0.2081
     10 H           0.2550    2.3224   16.8343 H       1  UNL1        0.1675
     11 C           4.3352   -1.8437   23.8552 C.ar    1  UNL1        0.1346
     12 C           3.5633   -1.2298   22.7251 C.ar    1  UNL1        0.0253
     13 C           3.5599   -1.8852   21.3758 C.ar    1  UNL1        0.0234
     14 C           2.8966   -1.5157   20.0821 C.ar    1  UNL1        0.0545
     15 C           3.2553   -2.5566   19.0635 C.ar    1  UNL1        0.0790
     16 N           4.1403   -3.5695   19.7276 N.ar    1  UNL1       -0.3227
     17 C           4.7329   -4.7841   19.0769 C.3     1  UNL1        0.1305
     18 C           4.3285   -3.1545   21.1567 C.ar    1  UNL1        0.0795
     19 C           5.1005   -3.7684   22.2868 C.ar    1  UNL1        0.1161
     20 N           5.1038   -3.1130   23.6360 N.ar    1  UNL1       -0.2377
     21 C           3.6593   -1.1977   27.7121 C.3     1  UNL1        0.1110
     22 N           3.6560   -1.8531   26.3628 N.am    1  UNL1       -0.2979
     23 C           4.3386   -1.1883   25.2044 C.2     1  UNL1        0.2636
     24 O           5.0246    0.1319   25.3952 O.2     1  UNL1       -0.2685
     25 H           3.2057   -2.7196   26.2376 H       1  UNL1        0.1498
     26 N          -0.4478    2.8680   22.2462 N.ar    1  UNL1       -0.2268
     27 C           0.5435    2.4900   23.3065 C.ar    1  UNL1        0.0991
     28 C          -0.0611    2.8098   24.6415 C.ar    1  UNL1        0.0339
     29 C          -1.4261    3.3854   24.4061 C.ar    1  UNL1        0.1191
     30 N          -1.6651    3.4214   22.9258 N.ar    1  UNL1       -0.1637
     31 C           0.5857    2.5922   25.9773 C.3     1  UNL1        0.1024
     32 N          -0.2151    2.7595   27.2345 N.3     1  UNL1       -0.2664
     33 C          -0.2441    4.0858   27.9345 C.3     1  UNL1        0.0899
     34 C          -0.9870    1.6003   27.7918 C.3     1  UNL1        0.0899
@<TRIPOS>BOND
     1    21    22    1
     2    22    23   am
     3    23    24    2
     4    23    11    1
     5    11    12   ar
     6    12    13   ar
     7    13    14   ar
     8    14     1    1
     9     1     2   ar
    10     2     3   ar
    11     3     4   ar
    12     4    26    1
    13    26    27   ar
    14    27    28   ar
    15    28    31    1
    16    31    32    1
    17    32    33    1
    18    32    34    1
    19    28    29   ar
    20    29    30   ar
    21     4     5   ar
    22     5     6   ar
    23     6     7   ar
    24     7     8   ar
    25     8     9   ar
    26    14    15   ar
    27    15    16   ar
    28    16    17    1
    29    16    18   ar
    30    18    19   ar
    31    19    20   ar
    32    20    11   ar
    33    18    13   ar
    34     9     1   ar
    35     8     3    1
    36    30    26   ar
    37    22    25    1
    38     7    10    1
@<TRIPOS>MOLECULE
*****
 34 38 0 0 0
SMALL
GASTEIGER

@<TRIPOS>ATOM
      1 C           2.7820    3.3035   33.0053 C.ar    1  UNL1        0.1655
      2 N           3.3497    1.9301   32.8016 N.ar    1  UNL1       -0.2219
      3 C           2.6261    1.2955   31.6511 C.ar    1  UNL1        0.1344
      4 C           2.7602   -0.0491   30.9999 C.ar    1  UNL1        0.1049
      5 C           1.8795   -0.4126   29.8414 C.ar    1  UNL1        0.0392
      6 C           0.8646    0.5686   29.3340 C.ar    1  UNL1        0.0751
      7 N           0.7305    1.9132   29.9853 N.ar    1  UNL1       -0.3361
      8 C           1.6113    2.2766   31.1438 C.ar    1  UNL1        0.1615
      9 N           1.7077    3.5177   31.9807 N.ar    1  UNL1       -0.2081
     10 H           0.0645    2.5572   29.6523 H       1  UNL1        0.1675
     11 C           3.0373    2.9005   37.8519 C.ar    1  UNL1        0.1346
     12 C           2.8967    2.8478   36.3594 C.ar    1  UNL1        0.0253
     13 C           3.2492    4.0469   35.5301 C.ar    1  UNL1        0.0234
     14 C           3.2131    4.2896   34.0502 C.ar    1  UNL1        0.0545
     15 C           3.6839    5.6914   33.7988 C.ar    1  UNL1        0.0790
     16 N           4.0109    6.3151   35.1232 N.ar    1  UNL1       -0.3227
     17 C           4.5176    7.7102   35.3396 C.3     1  UNL1        0.1305
     18 C           3.7422    5.2988   36.1932 C.ar    1  UNL1        0.0795
     19 C           3.8828    5.3515   37.6856 C.ar    1  UNL1        0.1161
     20 N           3.5303    4.1523   38.5149 N.ar    1  UNL1       -0.2377
     21 C           0.9346   -0.0413   39.4872 C.3     1  UNL1        0.1110
     22 N           1.2870    1.1579   38.6578 N.am    1  UNL1       -0.2979
     23 C           2.6849    1.7013   38.6812 C.2     1  UNL1        0.2636
     24 O           3.7303    1.0457   39.5339 O.2     1  UNL1       -0.2685
     25 H           0.6009    1.5882   38.0981 H       1  UNL1        0.1498
     26 N           3.7750   -1.0304   31.5072 N.ar    1  UNL1       -0.2268
     27 C           4.9792   -1.5199   30.7586 C.ar    1  UNL1        0.0991
     28 C           5.7122   -2.4864   31.6410 C.ar    1  UNL1        0.0339
     29 C           4.9611   -2.5942   32.9349 C.ar    1  UNL1        0.1191
     30 N           3.7639   -1.6943   32.8523 N.ar    1  UNL1       -0.1637
     31 C           6.9747   -3.2169   31.2909 C.3     1  UNL1        0.1024
     32 N           6.9046   -4.5783   30.6650 N.3     1  UNL1       -0.2664
     33 C           6.7172   -4.7137   29.1830 C.3     1  UNL1        0.0899
     34 C           7.0220   -5.8042   31.5213 C.3     1  UNL1        0.0899
@<TRIPOS>BOND
     1    21    22    1
     2    22    23   am
     3    23    24    2
     4    23    11    1
     5    11    12   ar
     6    12    13   ar
     7    13    14   ar
     8    14     1    1
     9     1     2   ar
    10     2     3   ar
    11     3     4   ar
    12     4    26    1
    13    26    27   ar
    14    27    28   ar
    15    28    31    1
    16    31    32    1
    17    32    33    1
    18    32    34    1
    19    28    29   ar
    20    29    30   ar
    21     4     5   ar
    22     5     6   ar
    23     6     7   ar
    24     7     8   ar
    25     8     9   ar
    26    14    15   ar
    27    15    16   ar
    28    16    17    1
    29    16    18   ar
    30    18    19   ar
    31    19    20   ar
    32    20    11   ar
    33    18    13   ar
    34     9     1   ar
    35     8     3    1
    36    30    26   ar
    37    22    25    1
    38     7    10    1
