@<TRIPOS>MOLECULE
*****
 26 28 0 0 0
SMALL
GASTEIGER

@<TRIPOS>ATOM
      1 C          -5.5927  -20.1721   21.1025 C.3     1  UNL1        0.0061
      2 C          -5.5645  -18.9168   21.9232 C.3     1  UNL1        0.0373
      3 C          -5.0625  -17.6395   22.5284 C.3     1  UNL1        0.0075
      4 C          -5.9346  -16.8617   23.4690 C.3     1  UNL1        0.0219
      5 C          -7.3087  -17.3613   23.8042 C.3     1  UNL1        0.0950
      6 N          -7.8107  -18.6386   23.1989 N.am    1  UNL1       -0.2639
      7 C          -9.1847  -19.1382   23.5342 C.2     1  UNL1        0.3040
      8 O          -9.6867  -20.4155   22.9289 O.2     1  UNL1       -0.2526
      9 N         -10.0568  -18.3604   24.4747 N.am    1  UNL1       -0.2884
     10 C          -6.9386  -19.4164   22.2584 C.3     1  UNL1        0.0989
     11 H          -9.7273  -17.5220   24.8720 H       1  UNL1        0.1510
     12 C          -4.2002  -18.8532   21.3029 C.ar    1  UNL1       -0.0212
     13 C          -4.0498  -18.9282   19.8124 C.ar    1  UNL1       -0.0042
     14 C          -2.6855  -18.8646   19.1922 C.ar    1  UNL1       -0.0003
     15 C          -1.4717  -18.7260   20.0625 C.ar    1  UNL1       -0.0000
     16 C          -1.6221  -18.6510   21.5530 C.ar    1  UNL1       -0.0003
     17 C          -2.9864  -18.7146   22.1732 C.ar    1  UNL1       -0.0042
     18 C         -11.4308  -18.8600   24.8099 C.3     1  UNL1        0.0956
     19 C         -12.5833  -18.5522   23.9003 C.3     1  UNL1        0.0476
     20 C         -12.3552  -17.7765   22.6370 C.ar    1  UNL1       -0.0204
     21 C         -12.5356  -16.2874   22.6283 C.ar    1  UNL1       -0.0033
     22 C         -12.3075  -15.5116   21.3650 C.ar    1  UNL1        0.0111
     23 C         -11.8991  -16.2248   20.1102 C.ar    1  UNL1        0.0577
     24 CL        -11.6710  -15.4490   18.8469 Cl      1  UNL1       -0.0822
     25 C         -11.7187  -17.7139   20.1188 C.ar    1  UNL1        0.0111
     26 C         -11.9468  -18.4897   21.3822 C.ar    1  UNL1       -0.0033
@<TRIPOS>BOND
     1     1     2    1
     2     2    12    1
     3    12    13   ar
     4    13    14   ar
     5    14    15   ar
     6    15    16   ar
     7    16    17   ar
     8     2     3    1
     9     3     4    1
    10     4     5    1
    11     5     6    1
    12     6     7   am
    13     7     8    2
    14     7     9   am
    15     9    18    1
    16    18    19    1
    17    19    20    1
    18    20    21   ar
    19    21    22   ar
    20    22    23   ar
    21    23    24    1
    22    23    25   ar
    23    25    26   ar
    24     6    10    1
    25    10     2    1
    26    17    12   ar
    27    26    20   ar
    28     9    11    1
@<TRIPOS>MOLECULE
*****
 26 28 0 0 0
SMALL
GASTEIGER

@<TRIPOS>ATOM
      1 C          -3.5803  -19.2325   19.8912 C.3     1  UNL1        0.0061
      2 C          -3.7453  -18.4664   21.1703 C.3     1  UNL1        0.0373
      3 C          -3.4344  -17.5412   22.3092 C.3     1  UNL1        0.0075
      4 C          -4.4364  -17.3402   23.4072 C.3     1  UNL1        0.0219
      5 C          -5.7494  -18.0645   23.3661 C.3     1  UNL1        0.0950
      6 N          -6.0603  -18.9896   22.2271 N.am    1  UNL1       -0.2639
      7 C          -7.3733  -19.7139   22.1861 C.2     1  UNL1        0.3040
      8 O          -7.6841  -20.6391   21.0471 O.2     1  UNL1       -0.2526
      9 N          -8.3753  -19.5128   23.2840 N.am    1  UNL1       -0.2884
     10 C          -5.0583  -19.1907   21.1292 C.3     1  UNL1        0.0989
     11 H          -8.1713  -18.9056   24.0316 H       1  UNL1        0.1510
     12 C          -2.3750  -18.0083   20.7671 C.ar    1  UNL1       -0.0212
     13 C          -1.9212  -16.6177   21.0991 C.ar    1  UNL1       -0.0042
     14 C          -0.5510  -16.1596   20.6959 C.ar    1  UNL1       -0.0003
     15 C           0.3654  -17.0921   19.9607 C.ar    1  UNL1       -0.0000
     16 C          -0.0883  -18.4827   19.6287 C.ar    1  UNL1       -0.0003
     17 C          -1.4586  -18.9408   20.0318 C.ar    1  UNL1       -0.0042
     18 C          -9.6882  -20.2371   23.2429 C.3     1  UNL1        0.0956
     19 C         -10.9726  -19.4621   23.2443 C.3     1  UNL1        0.0476
     20 C         -11.2381  -18.4486   22.1710 C.ar    1  UNL1       -0.0204
     21 C         -10.8213  -18.7267   20.7572 C.ar    1  UNL1       -0.0033
     22 C         -11.0868  -17.7132   19.6837 C.ar    1  UNL1        0.0111
     23 C         -11.7691  -16.4214   20.0241 C.ar    1  UNL1        0.0577
     24 CL        -12.0346  -15.4080   18.9507 Cl      1  UNL1       -0.0822
     25 C         -12.1859  -16.1432   21.4379 C.ar    1  UNL1        0.0111
     26 C         -11.9204  -17.1568   22.5113 C.ar    1  UNL1       -0.0033
@<TRIPOS>BOND
     1     1     2    1
     2     2    12    1
     3    12    13   ar
     4    13    14   ar
     5    14    15   ar
     6    15    16   ar
     7    16    17   ar
     8     2     3    1
     9     3     4    1
    10     4     5    1
    11     5     6    1
    12     6     7   am
    13     7     8    2
    14     7     9   am
    15     9    18    1
    16    18    19    1
    17    19    20    1
    18    20    21   ar
    19    21    22   ar
    20    22    23   ar
    21    23    24    1
    22    23    25   ar
    23    25    26   ar
    24     6    10    1
    25    10     2    1
    26    17    12   ar
    27    26    20   ar
    28     9    11    1
@<TRIPOS>MOLECULE
*****
 26 28 0 0 0
SMALL
GASTEIGER

@<TRIPOS>ATOM
      1 C          -9.6571  -19.0132   23.9944 C.3     1  UNL1        0.0061
      2 C          -9.9729  -19.0788   22.5294 C.3     1  UNL1        0.0373
      3 C         -10.7425  -18.9651   21.2470 C.3     1  UNL1        0.0075
      4 C         -10.0958  -19.3449   19.9480 C.3     1  UNL1        0.0219
      5 C          -8.6793  -19.8384   19.9314 C.3     1  UNL1        0.0950
      6 N          -7.9097  -19.9521   21.2139 N.am    1  UNL1       -0.2639
      7 C          -6.4933  -20.4456   21.1973 C.2     1  UNL1        0.3040
      8 O          -5.7237  -20.5592   22.4798 O.2     1  UNL1       -0.2526
      9 N          -5.8465  -20.8253   19.8983 N.am    1  UNL1       -0.2884
     10 C          -8.5565  -19.5723   22.5129 C.3     1  UNL1        0.0989
     11 H          -6.3516  -20.7507   19.0566 H       1  UNL1        0.1510
     12 C         -11.2797  -18.5625   23.0548 C.ar    1  UNL1       -0.0212
     13 C         -12.0278  -17.5061   22.2971 C.ar    1  UNL1       -0.0042
     14 C         -13.3345  -16.9899   22.8224 C.ar    1  UNL1       -0.0003
     15 C         -13.8930  -17.5301   24.1055 C.ar    1  UNL1       -0.0000
     16 C         -13.1449  -18.5865   24.8632 C.ar    1  UNL1       -0.0003
     17 C         -11.8382  -19.1028   24.3378 C.ar    1  UNL1       -0.0042
     18 C          -4.4301  -21.3188   19.8818 C.3     1  UNL1        0.0956
     19 C          -3.3535  -20.4872   19.2496 C.3     1  UNL1        0.0476
     20 C          -2.8831  -19.2320   19.9225 C.ar    1  UNL1       -0.0204
     21 C          -2.5814  -18.0108   19.1053 C.ar    1  UNL1       -0.0033
     22 C          -2.1109  -16.7555   19.7782 C.ar    1  UNL1        0.0111
     23 C          -1.9420  -16.7212   21.2683 C.ar    1  UNL1        0.0577
     24 CL         -1.4715  -15.4659   21.9411 Cl      1  UNL1       -0.0822
     25 C          -2.2437  -17.9424   22.0855 C.ar    1  UNL1        0.0111
     26 C          -2.7142  -19.1977   21.4126 C.ar    1  UNL1       -0.0033
@<TRIPOS>BOND
     1     1     2    1
     2     2    12    1
     3    12    13   ar
     4    13    14   ar
     5    14    15   ar
     6    15    16   ar
     7    16    17   ar
     8     2     3    1
     9     3     4    1
    10     4     5    1
    11     5     6    1
    12     6     7   am
    13     7     8    2
    14     7     9   am
    15     9    18    1
    16    18    19    1
    17    19    20    1
    18    20    21   ar
    19    21    22   ar
    20    22    23   ar
    21    23    24    1
    22    23    25   ar
    23    25    26   ar
    24     6    10    1
    25    10     2    1
    26    17    12   ar
    27    26    20   ar
    28     9    11    1
@<TRIPOS>MOLECULE
*****
 26 28 0 0 0
SMALL
GASTEIGER

@<TRIPOS>ATOM
      1 C           4.0336   -2.1731   19.9969 C.3     1  UNL1        0.0061
      2 C           3.6570   -1.5287   21.2981 C.3     1  UNL1        0.0373
      3 C           2.9972   -0.5963   22.2702 C.3     1  UNL1        0.0075
      4 C           3.2836   -0.7170   23.7377 C.3     1  UNL1        0.0219
      5 C           4.2299   -1.7703   24.2329 C.3     1  UNL1        0.0950
      6 N           4.8897   -2.7027   23.2608 N.am    1  UNL1       -0.2639
      7 C           5.8361   -3.7560   23.7560 C.2     1  UNL1        0.3040
      8 O           6.4958   -4.6884   22.7838 O.2     1  UNL1       -0.2526
      9 N           6.1225   -3.8767   25.2234 N.am    1  UNL1       -0.2884
     10 C           4.6033   -2.5820   21.7933 C.3     1  UNL1        0.0989
     11 H           5.6894   -3.2647   25.8615 H       1  UNL1        0.1510
     12 C           2.8415   -0.6993   20.3509 C.ar    1  UNL1       -0.0212
     13 C           1.3849   -0.4655   20.6220 C.ar    1  UNL1       -0.0042
     14 C           0.5695    0.3639   19.6749 C.ar    1  UNL1       -0.0003
     15 C           1.2107    0.9595   18.4566 C.ar    1  UNL1       -0.0000
     16 C           2.6673    0.7258   18.1855 C.ar    1  UNL1       -0.0003
     17 C           3.4827   -0.1036   19.1327 C.ar    1  UNL1       -0.0042
     18 C           7.0688   -4.9300   25.7186 C.3     1  UNL1        0.0956
     19 C           6.7167   -5.7463   26.9269 C.3     1  UNL1        0.0476
     20 C           6.7849   -5.1314   28.2932 C.ar    1  UNL1       -0.0204
     21 C           7.2009   -5.9632   29.4701 C.ar    1  UNL1       -0.0033
     22 C           7.2692   -5.3483   30.8365 C.ar    1  UNL1        0.0111
     23 C           6.9213   -3.9015   31.0262 C.ar    1  UNL1        0.0577
     24 CL          6.9895   -3.2867   32.3927 Cl      1  UNL1       -0.0822
     25 C           6.5052   -3.0697   29.8494 C.ar    1  UNL1        0.0111
     26 C           6.4370   -3.6846   28.4829 C.ar    1  UNL1       -0.0033
@<TRIPOS>BOND
     1     1     2    1
     2     2    12    1
     3    12    13   ar
     4    13    14   ar
     5    14    15   ar
     6    15    16   ar
     7    16    17   ar
     8     2     3    1
     9     3     4    1
    10     4     5    1
    11     5     6    1
    12     6     7   am
    13     7     8    2
    14     7     9   am
    15     9    18    1
    16    18    19    1
    17    19    20    1
    18    20    21   ar
    19    21    22   ar
    20    22    23   ar
    21    23    24    1
    22    23    25   ar
    23    25    26   ar
    24     6    10    1
    25    10     2    1
    26    17    12   ar
    27    26    20   ar
    28     9    11    1
@<TRIPOS>MOLECULE
*****
 26 28 0 0 0
SMALL
GASTEIGER

@<TRIPOS>ATOM
      1 C           4.4741   -0.2573   21.0906 C.3     1  UNL1        0.0061
      2 C           4.2140   -1.4783   20.2590 C.3     1  UNL1        0.0373
      3 C           3.5522   -2.4021   19.2799 C.3     1  UNL1        0.0075
      4 C           4.1371   -3.7577   19.0146 C.3     1  UNL1        0.0219
      5 C           5.3837   -4.1894   19.7284 C.3     1  UNL1        0.0950
      6 N           6.0454   -3.2657   20.7076 N.am    1  UNL1       -0.2639
      7 C           7.2921   -3.6974   21.4214 C.2     1  UNL1        0.3040
      8 O           7.9538   -2.7736   22.4005 O.2     1  UNL1       -0.2526
      9 N           7.8769   -5.0530   21.1561 N.am    1  UNL1       -0.2884
     10 C           5.4606   -1.9101   20.9729 C.3     1  UNL1        0.0989
     11 H           7.4426   -5.6593   20.5134 H       1  UNL1        0.1510
     12 C           3.0577   -0.6225   19.8340 C.ar    1  UNL1       -0.0212
     13 C           1.7394   -0.7383   20.5401 C.ar    1  UNL1       -0.0042
     14 C           0.5832    0.1175   20.1151 C.ar    1  UNL1       -0.0003
     15 C           0.7453    1.0892   18.9839 C.ar    1  UNL1       -0.0000
     16 C           2.0636    1.2051   18.2778 C.ar    1  UNL1       -0.0003
     17 C           3.2198    0.3492   18.7028 C.ar    1  UNL1       -0.0042
     18 C           9.1235   -5.4847   21.8699 C.3     1  UNL1        0.0956
     19 C           9.0655   -6.5975   22.8741 C.3     1  UNL1        0.0476
     20 C           8.4112   -6.3733   24.2050 C.ar    1  UNL1       -0.0204
     21 C           7.8958   -7.5405   24.9936 C.ar    1  UNL1       -0.0033
     22 C           7.2415   -7.3164   26.3246 C.ar    1  UNL1        0.0111
     23 C           7.1025   -5.9248   26.8671 C.ar    1  UNL1        0.0577
     24 CL          6.4481   -5.7006   28.1981 Cl      1  UNL1       -0.0822
     25 C           7.6179   -4.7575   26.0786 C.ar    1  UNL1        0.0111
     26 C           8.2722   -4.9817   24.7476 C.ar    1  UNL1       -0.0033
@<TRIPOS>BOND
     1     1     2    1
     2     2    12    1
     3    12    13   ar
     4    13    14   ar
     5    14    15   ar
     6    15    16   ar
     7    16    17   ar
     8     2     3    1
     9     3     4    1
    10     4     5    1
    11     5     6    1
    12     6     7   am
    13     7     8    2
    14     7     9   am
    15     9    18    1
    16    18    19    1
    17    19    20    1
    18    20    21   ar
    19    21    22   ar
    20    22    23   ar
    21    23    24    1
    22    23    25   ar
    23    25    26   ar
    24     6    10    1
    25    10     2    1
    26    17    12   ar
    27    26    20   ar
    28     9    11    1
@<TRIPOS>MOLECULE
*****
 26 28 0 0 0
SMALL
GASTEIGER

@<TRIPOS>ATOM
      1 C           3.9407   -1.3258   22.1786 C.3     1  UNL1        0.0061
      2 C           2.8291   -0.9219   21.2560 C.3     1  UNL1        0.0373
      3 C           1.9731   -0.8523   20.0262 C.3     1  UNL1        0.0075
      4 C           0.7673    0.0395   20.0012 C.3     1  UNL1        0.0219
      5 C           0.4175    0.8618   21.2060 C.3     1  UNL1        0.0950
      6 N           1.2735    0.7922   22.4358 N.am    1  UNL1       -0.2639
      7 C           0.9237    1.6144   23.6406 C.2     1  UNL1        0.3040
      8 O           1.7797    1.5448   24.8704 O.2     1  UNL1       -0.2526
      9 N          -0.2822    2.5063   23.6156 N.am    1  UNL1       -0.2884
     10 C           2.4793   -0.0996   22.4608 C.3     1  UNL1        0.0989
     11 H          -0.8440    2.5520   22.8085 H       1  UNL1        0.1510
     12 C           3.5650   -1.8845   20.3716 C.ar    1  UNL1       -0.0212
     13 C           4.0010   -1.4602   19.0005 C.ar    1  UNL1       -0.0042
     14 C           4.7368   -2.4227   18.1162 C.ar    1  UNL1       -0.0003
     15 C           5.0366   -3.8095   18.6030 C.ar    1  UNL1       -0.0000
     16 C           4.6006   -4.2338   19.9740 C.ar    1  UNL1       -0.0003
     17 C           3.8648   -3.2712   20.8583 C.ar    1  UNL1       -0.0042
     18 C          -0.6319    3.3285   24.8204 C.3     1  UNL1        0.0956
     19 C          -1.4248    2.7201   25.9392 C.3     1  UNL1        0.0476
     20 C          -0.7734    2.4600   27.2649 C.ar    1  UNL1       -0.0204
     21 C          -0.9621    1.1373   27.9467 C.ar    1  UNL1       -0.0033
     22 C          -0.3107    0.8771   29.2725 C.ar    1  UNL1        0.0111
     23 C           0.5295    1.9397   29.9168 C.ar    1  UNL1        0.0577
     24 CL          1.1809    1.6795   31.2426 Cl      1  UNL1       -0.0822
     25 C           0.7183    3.2624   29.2351 C.ar    1  UNL1        0.0111
     26 C           0.0669    3.5226   27.9092 C.ar    1  UNL1       -0.0033
@<TRIPOS>BOND
     1     1     2    1
     2     2    12    1
     3    12    13   ar
     4    13    14   ar
     5    14    15   ar
     6    15    16   ar
     7    16    17   ar
     8     2     3    1
     9     3     4    1
    10     4     5    1
    11     5     6    1
    12     6     7   am
    13     7     8    2
    14     7     9   am
    15     9    18    1
    16    18    19    1
    17    19    20    1
    18    20    21   ar
    19    21    22   ar
    20    22    23   ar
    21    23    24    1
    22    23    25   ar
    23    25    26   ar
    24     6    10    1
    25    10     2    1
    26    17    12   ar
    27    26    20   ar
    28     9    11    1
@<TRIPOS>MOLECULE
*****
 26 28 0 0 0
SMALL
GASTEIGER

@<TRIPOS>ATOM
      1 C           6.8705   -4.6107   25.4258 C.3     1  UNL1        0.0061
      2 C           7.6984   -5.3356   24.4063 C.3     1  UNL1        0.0373
      3 C           8.6323   -6.3461   23.8092 C.3     1  UNL1        0.0075
      4 C           8.9731   -6.2822   22.3499 C.3     1  UNL1        0.0219
      5 C           8.3800   -5.2076   21.4875 C.3     1  UNL1        0.0950
      6 N           7.4460   -4.1971   22.0846 N.am    1  UNL1       -0.2639
      7 C           6.8529   -3.1225   21.2222 C.2     1  UNL1        0.3040
      8 O           5.9190   -2.1120   21.8194 O.2     1  UNL1       -0.2526
      9 N           7.1937   -3.0586   19.7629 N.am    1  UNL1       -0.2884
     10 C           7.1052   -4.2610   23.5439 C.3     1  UNL1        0.0989
     11 H           7.8067   -3.7219   19.3710 H       1  UNL1        0.1510
     12 C           8.0040   -6.1584   25.6227 C.ar    1  UNL1       -0.0212
     13 C           7.6833   -7.6236   25.6370 C.ar    1  UNL1       -0.0042
     14 C           7.9890   -8.4463   26.8534 C.ar    1  UNL1       -0.0003
     15 C           8.6152   -7.8038   28.0555 C.ar    1  UNL1       -0.0000
     16 C           8.9359   -6.3386   28.0412 C.ar    1  UNL1       -0.0003
     17 C           8.6302   -5.5159   26.8248 C.ar    1  UNL1       -0.0042
     18 C           6.6006   -1.9841   18.9006 C.3     1  UNL1        0.0956
     19 C           5.3071   -2.2284   18.1812 C.3     1  UNL1        0.0476
     20 C           4.0747   -1.4701   18.5757 C.ar    1  UNL1       -0.0204
     21 C           3.2414   -1.9416   19.7304 C.ar    1  UNL1       -0.0033
     22 C           2.0089   -1.1832   20.1250 C.ar    1  UNL1        0.0111
     23 C           1.6096    0.0468   19.3648 C.ar    1  UNL1        0.0577
     24 CL          0.3771    0.8052   19.7594 Cl      1  UNL1       -0.0822
     25 C           2.4428    0.5184   18.2102 C.ar    1  UNL1        0.0111
     26 C           3.6754   -0.2400   17.8156 C.ar    1  UNL1       -0.0033
@<TRIPOS>BOND
     1     1     2    1
     2     2    12    1
     3    12    13   ar
     4    13    14   ar
     5    14    15   ar
     6    15    16   ar
     7    16    17   ar
     8     2     3    1
     9     3     4    1
    10     4     5    1
    11     5     6    1
    12     6     7   am
    13     7     8    2
    14     7     9   am
    15     9    18    1
    16    18    19    1
    17    19    20    1
    18    20    21   ar
    19    21    22   ar
    20    22    23   ar
    21    23    24    1
    22    23    25   ar
    23    25    26   ar
    24     6    10    1
    25    10     2    1
    26    17    12   ar
    27    26    20   ar
    28     9    11    1
@<TRIPOS>MOLECULE
*****
 26 28 0 0 0
SMALL
GASTEIGER

@<TRIPOS>ATOM
      1 C           3.1172   -0.1596   17.5759 C.3     1  UNL1        0.0061
      2 C           2.6875   -0.3857   18.9952 C.3     1  UNL1        0.0373
      3 C           2.6354   -0.9687   20.3762 C.3     1  UNL1        0.0075
      4 C           1.6453   -0.4457   21.3742 C.3     1  UNL1        0.0219
      5 C           0.7072    0.6604   20.9912 C.3     1  UNL1        0.0950
      6 N           0.7593    1.2434   19.6101 N.am    1  UNL1       -0.2639
      7 C          -0.1787    2.3495   19.2271 C.2     1  UNL1        0.3040
      8 O          -0.1266    2.9324   17.8460 O.2     1  UNL1       -0.2526
      9 N          -1.1688    2.8725   20.2251 N.am    1  UNL1       -0.2884
     10 C           1.7494    0.7204   18.6121 C.3     1  UNL1        0.0989
     11 H          -1.2030    2.4899   21.1316 H       1  UNL1        0.1510
     12 C           3.7748   -1.4133   18.8853 C.ar    1  UNL1       -0.0212
     13 C           5.1562   -1.0020   18.4701 C.ar    1  UNL1       -0.0042
     14 C           6.2434   -2.0295   18.3603 C.ar    1  UNL1       -0.0003
     15 C           5.9492   -3.4683   18.6656 C.ar    1  UNL1       -0.0000
     16 C           4.5678   -3.8796   19.0807 C.ar    1  UNL1       -0.0003
     17 C           3.4806   -2.8521   19.1906 C.ar    1  UNL1       -0.0042
     18 C          -2.1068    3.9786   19.8420 C.3     1  UNL1        0.0956
     19 C          -3.5384    3.6693   19.5177 C.3     1  UNL1        0.0476
     20 C          -4.6013    3.8608   20.5585 C.ar    1  UNL1       -0.0204
     21 C          -4.4062    3.3101   21.9400 C.ar    1  UNL1       -0.0033
     22 C          -5.4691    3.5016   22.9809 C.ar    1  UNL1        0.0111
     23 C          -6.7274    4.2438   22.6402 C.ar    1  UNL1        0.0577
     24 CL         -7.7903    4.4353   23.6811 Cl      1  UNL1       -0.0822
     25 C          -6.9226    4.7945   21.2587 C.ar    1  UNL1        0.0111
     26 C          -5.8596    4.6030   20.2178 C.ar    1  UNL1       -0.0033
@<TRIPOS>BOND
     1     1     2    1
     2     2    12    1
     3    12    13   ar
     4    13    14   ar
     5    14    15   ar
     6    15    16   ar
     7    16    17   ar
     8     2     3    1
     9     3     4    1
    10     4     5    1
    11     5     6    1
    12     6     7   am
    13     7     8    2
    14     7     9   am
    15     9    18    1
    16    18    19    1
    17    19    20    1
    18    20    21   ar
    19    21    22   ar
    20    22    23   ar
    21    23    24    1
    22    23    25   ar
    23    25    26   ar
    24     6    10    1
    25    10     2    1
    26    17    12   ar
    27    26    20   ar
    28     9    11    1
@<TRIPOS>MOLECULE
*****
 26 28 0 0 0
SMALL
GASTEIGER

@<TRIPOS>ATOM
      1 C         -10.0762  -18.2401   24.2664 C.3     1  UNL1        0.0061
      2 C         -10.4909  -18.7797   22.9296 C.3     1  UNL1        0.0373
      3 C         -11.3736  -19.2390   21.8072 C.3     1  UNL1        0.0075
      4 C         -10.7648  -19.7421   20.5320 C.3     1  UNL1        0.0219
      5 C          -9.2732  -19.7860   20.3793 C.3     1  UNL1        0.0950
      6 N          -8.3905  -19.3267   21.5017 N.am    1  UNL1       -0.2639
      7 C          -6.8989  -19.3706   21.3489 C.2     1  UNL1        0.3040
      8 O          -6.0163  -18.9112   22.4714 O.2     1  UNL1       -0.2526
      9 N          -6.2901  -19.8737   20.0737 N.am    1  UNL1       -0.2884
     10 C          -8.9993  -18.8235   22.7769 C.3     1  UNL1        0.0989
     11 H          -6.8694  -20.1752   19.3370 H       1  UNL1        0.1510
     12 C         -11.8385  -18.5484   23.5467 C.ar    1  UNL1       -0.0212
     13 C         -12.0950  -18.9631   24.9652 C.ar    1  UNL1       -0.0042
     14 C         -13.4425  -18.7318   25.5821 C.ar    1  UNL1       -0.0003
     15 C         -14.5335  -18.0858   24.7806 C.ar    1  UNL1       -0.0000
     16 C         -14.2770  -17.6712   23.3621 C.ar    1  UNL1       -0.0003
     17 C         -12.9295  -17.9025   22.7451 C.ar    1  UNL1       -0.0042
     18 C          -4.7986  -19.9175   19.9210 C.3     1  UNL1        0.0956
     19 C          -4.0873  -18.8200   19.1864 C.3     1  UNL1        0.0476
     20 C          -2.6705  -18.4768   19.5395 C.ar    1  UNL1       -0.0204
     21 C          -2.1448  -18.7804   20.9111 C.ar    1  UNL1       -0.0033
     22 C          -0.7280  -18.4372   21.2643 C.ar    1  UNL1        0.0111
     23 C           0.1632  -17.7903   20.2457 C.ar    1  UNL1        0.0577
     24 CL          1.5801  -17.4471   20.5989 Cl      1  UNL1       -0.0822
     25 C          -0.3624  -17.4866   18.8741 C.ar    1  UNL1        0.0111
     26 C          -1.7793  -17.8299   18.5209 C.ar    1  UNL1       -0.0033
@<TRIPOS>BOND
     1     1     2    1
     2     2    12    1
     3    12    13   ar
     4    13    14   ar
     5    14    15   ar
     6    15    16   ar
     7    16    17   ar
     8     2     3    1
     9     3     4    1
    10     4     5    1
    11     5     6    1
    12     6     7   am
    13     7     8    2
    14     7     9   am
    15     9    18    1
    16    18    19    1
    17    19    20    1
    18    20    21   ar
    19    21    22   ar
    20    22    23   ar
    21    23    24    1
    22    23    25   ar
    23    25    26   ar
    24     6    10    1
    25    10     2    1
    26    17    12   ar
    27    26    20   ar
    28     9    11    1
