@<TRIPOS>MOLECULE
*****
 33 36 0 0 0
SMALL
GASTEIGER

@<TRIPOS>ATOM
      1 C          -3.1232  -18.3003   22.6542 C.2     1  UNL1        0.1892
      2 O          -1.8077  -17.9231   22.0402 O.2     1  UNL1       -0.2899
      3 C          -5.1910  -15.4592   25.4653 C.ar    1  UNL1        0.1386
      4 C          -5.1398  -15.1569   23.9970 C.ar    1  UNL1        0.0370
      5 C          -4.4505  -16.1040   23.0600 C.ar    1  UNL1        0.0060
      6 C          -3.8125  -17.3532   23.5913 C.ar    1  UNL1        0.0363
      7 C          -3.8638  -17.6555   25.0596 C.ar    1  UNL1        0.0060
      8 C          -4.5531  -16.7084   25.9966 C.ar    1  UNL1        0.0370
      9 O          -5.8803  -14.5121   26.4024 O.3     1  UNL1       -0.4754
     10 C          -6.5782  -15.0383   27.6214 C.3     1  UNL1        0.2068
     11 C          -8.0375  -15.3801   27.5614 C.3     1  UNL1        0.0646
     12 C          -8.4858  -16.6376   26.8774 C.3     1  UNL1        0.0759
     13 C         -10.0279  -19.0075   25.2482 C.3     1  UNL1        0.0173
     14 C          -9.5719  -17.6976   24.6771 C.3     1  UNL1        0.0576
     15 C          -9.7447  -17.2471   23.2569 C.3     1  UNL1        0.0174
     16 C          -9.1426  -15.8792   23.1279 C.3     1  UNL1        0.0187
     17 C          -8.5977  -15.4845   24.4686 C.3     1  UNL1        0.0721
     18 N          -8.8630  -16.6083   25.4260 N.3     1  UNL1       -0.2738
     19 C          -3.7494  -19.6245   22.3313 C.3     1  UNL1        0.1424
     20 N          -5.0717  -19.6764   21.6248 N.3     1  UNL1       -0.2632
     21 C          -6.2673  -18.9936   22.2198 C.3     1  UNL1        0.0942
     22 C          -7.5895  -19.0456   21.5133 C.3     1  UNL1        0.1111
     23 N          -7.7159  -19.7804   20.2118 N.am    1  UNL1       -0.2732
     24 C          -9.0382  -19.8324   19.5052 C.2     1  UNL1        0.2491
     25 O          -9.1647  -20.5673   18.2037 O.2     1  UNL1       -0.2699
     26 C          -6.5203  -20.4633   19.6167 C.3     1  UNL1        0.1111
     27 C          -5.1982  -20.4113   20.3232 C.3     1  UNL1        0.0942
     28 C         -10.2338  -19.1496   20.1003 C.ar    1  UNL1        0.0536
     29 C         -11.0503  -19.8453   21.1487 C.ar    1  UNL1        0.0045
     30 C         -12.2460  -19.1625   21.7437 C.ar    1  UNL1        0.0001
     31 C         -12.6252  -17.7838   21.2903 C.ar    1  UNL1        0.0000
     32 C         -11.8086  -17.0880   20.2419 C.ar    1  UNL1        0.0001
     33 C         -10.6129  -17.7710   19.6468 C.ar    1  UNL1        0.0045
@<TRIPOS>BOND
     1    14    13    1
     2    14    15    1
     3    15    16    1
     4    16    17    1
     5    17    18    1
     6    18    12    1
     7    12    11    1
     8    11    10    1
     9    10     9    1
    10     9     3    1
    11     3     4   ar
    12     4     5   ar
    13     5     6   ar
    14     6     1    1
    15     1     2    2
    16     1    19    1
    17    19    20    1
    18    20    21    1
    19    21    22    1
    20    22    23    1
    21    23    24   am
    22    24    25    2
    23    24    28    1
    24    28    29   ar
    25    29    30   ar
    26    30    31   ar
    27    31    32   ar
    28    32    33   ar
    29    23    26    1
    30    26    27    1
    31     6     7   ar
    32     7     8   ar
    33    18    14    1
    34     8     3   ar
    35    27    20    1
    36    33    28   ar
@<TRIPOS>MOLECULE
*****
 33 36 0 0 0
SMALL
GASTEIGER

@<TRIPOS>ATOM
      1 C           7.1449   -3.0485   24.5388 C.2     1  UNL1        0.1892
      2 O           8.5590   -2.5833   24.7230 O.2     1  UNL1       -0.2899
      3 C           4.3419   -0.7326   21.8874 C.ar    1  UNL1        0.1386
      4 C           5.7234   -0.2127   22.1538 C.ar    1  UNL1        0.0370
      5 C           6.6577   -0.9847   23.0376 C.ar    1  UNL1        0.0060
      6 C           6.2105   -2.2765   23.6550 C.ar    1  UNL1        0.0363
      7 C           4.8290   -2.7964   23.3885 C.ar    1  UNL1        0.0060
      8 C           3.8947   -2.0245   22.5048 C.ar    1  UNL1        0.0370
      9 O           3.4075    0.0394   21.0036 O.3     1  UNL1       -0.4754
     10 C           2.7043   -0.6499   19.8721 C.3     1  UNL1        0.2068
     11 C           3.1698   -0.4414   18.4614 C.3     1  UNL1        0.0646
     12 C           4.0765   -1.4460   17.8146 C.3     1  UNL1        0.0759
     13 C           3.4735   -4.3408   19.1952 C.3     1  UNL1        0.0173
     14 C           4.7575   -3.5707   19.2866 C.3     1  UNL1        0.0576
     15 C           5.9897   -3.9960   20.0287 C.3     1  UNL1        0.0174
     16 C           7.0285   -2.9282   19.8527 C.3     1  UNL1        0.0187
     17 C           6.4382   -1.8431   19.0019 C.3     1  UNL1        0.0721
     18 N           5.0347   -2.2401   18.6520 N.3     1  UNL1       -0.2738
     19 C           6.6652   -4.2855   25.2383 C.3     1  UNL1        0.1424
     20 N           6.6988   -4.3610   26.7361 N.3     1  UNL1       -0.2632
     21 C           6.6838   -3.1018   27.5510 C.3     1  UNL1        0.0942
     22 C           6.7174   -3.1774   29.0487 C.3     1  UNL1        0.1111
     23 N           6.7661   -4.5121   29.7315 N.am    1  UNL1       -0.2732
     24 C           6.7997   -4.5876   31.2293 C.2     1  UNL1        0.2491
     25 O           6.8484   -5.9223   31.9120 O.2     1  UNL1       -0.2699
     26 C           6.7811   -5.7713   28.9166 C.3     1  UNL1        0.1111
     27 C           6.7475   -5.6957   27.4189 C.3     1  UNL1        0.0942
     28 C           6.7847   -3.3284   32.0442 C.ar    1  UNL1        0.0536
     29 C           5.4822   -2.7646   32.5296 C.ar    1  UNL1        0.0045
     30 C           5.4672   -1.5054   33.3445 C.ar    1  UNL1        0.0001
     31 C           6.7547   -0.8099   33.6741 C.ar    1  UNL1        0.0000
     32 C           8.0573   -1.3737   33.1887 C.ar    1  UNL1        0.0001
     33 C           8.0722   -2.6329   32.3737 C.ar    1  UNL1        0.0045
@<TRIPOS>BOND
     1    14    13    1
     2    14    15    1
     3    15    16    1
     4    16    17    1
     5    17    18    1
     6    18    12    1
     7    12    11    1
     8    11    10    1
     9    10     9    1
    10     9     3    1
    11     3     4   ar
    12     4     5   ar
    13     5     6   ar
    14     6     1    1
    15     1     2    2
    16     1    19    1
    17    19    20    1
    18    20    21    1
    19    21    22    1
    20    22    23    1
    21    23    24   am
    22    24    25    2
    23    24    28    1
    24    28    29   ar
    25    29    30   ar
    26    30    31   ar
    27    31    32   ar
    28    32    33   ar
    29    23    26    1
    30    26    27    1
    31     6     7   ar
    32     7     8   ar
    33    18    14    1
    34     8     3   ar
    35    27    20    1
    36    33    28   ar
@<TRIPOS>MOLECULE
*****
 33 36 0 0 0
SMALL
GASTEIGER

@<TRIPOS>ATOM
      1 C           8.0735   -3.8620   24.4277 C.2     1  UNL1        0.1892
      2 O           9.3962   -3.9674   25.1272 O.2     1  UNL1       -0.2899
      3 C           7.8937   -2.4685   20.1527 C.ar    1  UNL1        0.1386
      4 C           7.8992   -1.4662   21.2686 C.ar    1  UNL1        0.0370
      5 C           7.9591   -1.9307   22.6936 C.ar    1  UNL1        0.0060
      6 C           8.0135   -3.3975   23.0027 C.ar    1  UNL1        0.0363
      7 C           8.0080   -4.3998   21.8868 C.ar    1  UNL1        0.0060
      8 C           7.9481   -3.9353   20.4618 C.ar    1  UNL1        0.0370
      9 O           7.8337   -2.0040   18.7276 O.3     1  UNL1       -0.4754
     10 C           6.5262   -2.0059   17.9926 C.3     1  UNL1        0.2068
     11 C           5.4706   -0.9974   18.3372 C.3     1  UNL1        0.0646
     12 C           4.2036   -1.4376   19.0087 C.3     1  UNL1        0.0759
     13 C           4.3241   -4.6774   19.3811 C.3     1  UNL1        0.0173
     14 C           4.3188   -3.6625   20.4856 C.3     1  UNL1        0.0576
     15 C           4.3679   -3.9587   21.9553 C.3     1  UNL1        0.0174
     16 C           4.3429   -2.6525   22.6925 C.3     1  UNL1        0.0187
     17 C           4.2783   -1.5491   21.6784 C.3     1  UNL1        0.0721
     18 N           4.2634   -2.1733   20.3145 N.3     1  UNL1       -0.2738
     19 C           6.8107   -4.2211   25.1533 C.3     1  UNL1        0.1424
     20 N           6.8099   -4.3282   26.6495 N.3     1  UNL1       -0.2632
     21 C           6.8716   -3.0876   27.4902 C.3     1  UNL1        0.0942
     22 C           6.8708   -3.1947   28.9864 C.3     1  UNL1        0.1111
     23 N           6.8082   -4.5425   29.6417 N.am    1  UNL1       -0.2732
     24 C           6.8074   -4.6496   31.1380 C.2     1  UNL1        0.2491
     25 O           6.7449   -5.9974   31.7933 O.2     1  UNL1       -0.2699
     26 C           6.7465   -5.7832   28.8010 C.3     1  UNL1        0.1111
     27 C           6.7474   -5.6760   27.3049 C.3     1  UNL1        0.0942
     28 C           6.8691   -3.4090   31.9787 C.ar    1  UNL1        0.0536
     29 C           5.6025   -2.7626   32.4560 C.ar    1  UNL1        0.0045
     30 C           5.6642   -1.5219   33.2967 C.ar    1  UNL1        0.0001
     31 C           6.9926   -0.9276   33.6603 C.ar    1  UNL1        0.0000
     32 C           8.2593   -1.5740   33.1831 C.ar    1  UNL1        0.0001
     33 C           8.1975   -2.8147   32.3423 C.ar    1  UNL1        0.0045
@<TRIPOS>BOND
     1    14    13    1
     2    14    15    1
     3    15    16    1
     4    16    17    1
     5    17    18    1
     6    18    12    1
     7    12    11    1
     8    11    10    1
     9    10     9    1
    10     9     3    1
    11     3     4   ar
    12     4     5   ar
    13     5     6   ar
    14     6     1    1
    15     1     2    2
    16     1    19    1
    17    19    20    1
    18    20    21    1
    19    21    22    1
    20    22    23    1
    21    23    24   am
    22    24    25    2
    23    24    28    1
    24    28    29   ar
    25    29    30   ar
    26    30    31   ar
    27    31    32   ar
    28    32    33   ar
    29    23    26    1
    30    26    27    1
    31     6     7   ar
    32     7     8   ar
    33    18    14    1
    34     8     3   ar
    35    27    20    1
    36    33    28   ar
@<TRIPOS>MOLECULE
*****
 33 36 0 0 0
SMALL
GASTEIGER

@<TRIPOS>ATOM
      1 C           6.1563   -1.1214   26.3584 C.2     1  UNL1        0.1892
      2 O           7.1785   -0.0641   26.0631 O.2     1  UNL1       -0.2899
      3 C           3.2192   -0.5359   29.7170 C.ar    1  UNL1        0.1386
      4 C           4.6925   -0.4544   29.9864 C.ar    1  UNL1        0.0370
      5 C           5.6715   -0.6496   28.8668 C.ar    1  UNL1        0.0060
      6 C           5.1772   -0.9262   27.4779 C.ar    1  UNL1        0.0363
      7 C           3.7039   -1.0078   27.2085 C.ar    1  UNL1        0.0060
      8 C           2.7249   -0.8126   28.3281 C.ar    1  UNL1        0.0370
      9 O           2.2401   -0.3407   30.8366 O.3     1  UNL1       -0.4754
     10 C           2.3670    0.8457   31.7456 C.3     1  UNL1        0.2068
     11 C           1.6538    2.1233   31.4152 C.3     1  UNL1        0.0646
     12 C           0.3293    2.0828   30.7125 C.3     1  UNL1        0.0759
     13 C          -1.5184   -0.0730   29.1037 C.3     1  UNL1        0.0173
     14 C          -0.5741    0.9144   28.4846 C.3     1  UNL1        0.0576
     15 C          -0.3134    1.0843   27.0172 C.3     1  UNL1        0.0174
     16 C           0.6971    2.1802   26.8497 C.3     1  UNL1        0.0187
     17 C           1.0608    2.6876   28.2136 C.3     1  UNL1        0.0721
     18 N           0.2751    1.9053   29.2240 N.3     1  UNL1       -0.2738
     19 C           6.1132   -2.3739   25.5341 C.3     1  UNL1        0.1424
     20 N           5.4277   -2.3704   24.1998 N.3     1  UNL1       -0.2632
     21 C           4.7405   -1.1292   23.7129 C.3     1  UNL1        0.0942
     22 C           4.0551   -1.1257   22.3787 C.3     1  UNL1        0.1111
     23 N           4.0568   -2.3635   21.5314 N.am    1  UNL1       -0.2732
     24 C           3.3713   -2.3600   20.1972 C.2     1  UNL1        0.2491
     25 O           3.3730   -3.5978   19.3499 O.2     1  UNL1       -0.2699
     26 C           4.7440   -3.6047   22.0184 C.3     1  UNL1        0.1111
     27 C           5.4294   -3.6082   23.3525 C.3     1  UNL1        0.0942
     28 C           2.6842   -1.1188   19.7102 C.ar    1  UNL1        0.0536
     29 C           1.2984   -0.7939   20.1835 C.ar    1  UNL1        0.0045
     30 C           0.6113    0.4473   19.6966 C.ar    1  UNL1        0.0001
     31 C           1.3099    1.3637   18.7363 C.ar    1  UNL1        0.0000
     32 C           2.6958    1.0389   18.2630 C.ar    1  UNL1        0.0001
     33 C           3.3829   -0.2024   18.7500 C.ar    1  UNL1        0.0045
@<TRIPOS>BOND
     1    14    13    1
     2    14    15    1
     3    15    16    1
     4    16    17    1
     5    17    18    1
     6    18    12    1
     7    12    11    1
     8    11    10    1
     9    10     9    1
    10     9     3    1
    11     3     4   ar
    12     4     5   ar
    13     5     6   ar
    14     6     1    1
    15     1     2    2
    16     1    19    1
    17    19    20    1
    18    20    21    1
    19    21    22    1
    20    22    23    1
    21    23    24   am
    22    24    25    2
    23    24    28    1
    24    28    29   ar
    25    29    30   ar
    26    30    31   ar
    27    31    32   ar
    28    32    33   ar
    29    23    26    1
    30    26    27    1
    31     6     7   ar
    32     7     8   ar
    33    18    14    1
    34     8     3   ar
    35    27    20    1
    36    33    28   ar
@<TRIPOS>MOLECULE
*****
 33 36 0 0 0
SMALL
GASTEIGER

@<TRIPOS>ATOM
      1 C          -8.2964  -16.1086   26.3969 C.2     1  UNL1        0.1892
      2 O          -8.5026  -16.3296   27.8661 O.2     1  UNL1       -0.2899
      3 C         -11.1680  -17.8946   23.4281 C.ar    1  UNL1        0.1386
      4 C         -10.6842  -16.4860   23.2496 C.ar    1  UNL1        0.0370
      5 C          -9.7270  -15.8907   24.2392 C.ar    1  UNL1        0.0060
      6 C          -9.2536  -16.7039   25.4073 C.ar    1  UNL1        0.0363
      7 C          -9.7374  -18.1125   25.5858 C.ar    1  UNL1        0.0060
      8 C         -10.6946  -18.7078   24.5962 C.ar    1  UNL1        0.0370
      9 O         -12.1252  -18.4899   22.4385 O.3     1  UNL1       -0.4754
     10 C         -12.4979  -17.7260   21.2026 C.3     1  UNL1        0.2068
     11 C         -11.5065  -17.5742   20.0871 C.3     1  UNL1        0.0646
     12 C         -10.8130  -18.7822   19.5305 C.3     1  UNL1        0.0759
     13 C          -8.8277  -20.8926   18.0291 C.3     1  UNL1        0.0173
     14 C          -8.4725  -20.0316   19.2049 C.3     1  UNL1        0.0576
     15 C          -7.1424  -19.9896   19.8971 C.3     1  UNL1        0.0174
     16 C          -7.2329  -18.9935   21.0151 C.3     1  UNL1        0.0187
     17 C          -8.6189  -18.4200   21.0138 C.3     1  UNL1        0.0721
     18 N          -9.3851  -19.0616   19.8951 N.3     1  UNL1       -0.2738
     19 C          -7.1330  -15.2922   25.9173 C.3     1  UNL1        0.1424
     20 N          -6.0159  -15.9496   25.1622 N.3     1  UNL1       -0.2632
     21 C          -6.1308  -16.1545   23.6808 C.3     1  UNL1        0.0942
     22 C          -5.0138  -16.8119   22.9258 C.3     1  UNL1        0.1111
     23 N          -3.7819  -17.2643   23.6522 N.am    1  UNL1       -0.2732
     24 C          -2.6648  -17.9217   22.8972 C.2     1  UNL1        0.2491
     25 O          -1.4329  -18.3741   23.6236 O.2     1  UNL1       -0.2699
     26 C          -3.6670  -17.0593   25.1337 C.3     1  UNL1        0.1111
     27 C          -4.7840  -16.4020   25.8887 C.3     1  UNL1        0.0942
     28 C          -2.7797  -18.1267   21.4157 C.ar    1  UNL1        0.0536
     29 C          -3.4831  -19.3377   20.8784 C.ar    1  UNL1        0.0045
     30 C          -3.5979  -19.5426   19.3969 C.ar    1  UNL1        0.0001
     31 C          -3.0094  -18.5366   18.4527 C.ar    1  UNL1        0.0000
     32 C          -2.3060  -17.3256   18.9900 C.ar    1  UNL1        0.0001
     33 C          -2.1911  -17.1206   20.4716 C.ar    1  UNL1        0.0045
@<TRIPOS>BOND
     1    14    13    1
     2    14    15    1
     3    15    16    1
     4    16    17    1
     5    17    18    1
     6    18    12    1
     7    12    11    1
     8    11    10    1
     9    10     9    1
    10     9     3    1
    11     3     4   ar
    12     4     5   ar
    13     5     6   ar
    14     6     1    1
    15     1     2    2
    16     1    19    1
    17    19    20    1
    18    20    21    1
    19    21    22    1
    20    22    23    1
    21    23    24   am
    22    24    25    2
    23    24    28    1
    24    28    29   ar
    25    29    30   ar
    26    30    31   ar
    27    31    32   ar
    28    32    33   ar
    29    23    26    1
    30    26    27    1
    31     6     7   ar
    32     7     8   ar
    33    18    14    1
    34     8     3   ar
    35    27    20    1
    36    33    28   ar
@<TRIPOS>MOLECULE
*****
 33 36 0 0 0
SMALL
GASTEIGER

@<TRIPOS>ATOM
      1 C           0.6375    1.2622   20.2435 C.2     1  UNL1        0.1892
      2 O          -0.2023    0.0423   20.4818 O.2     1  UNL1       -0.2899
      3 C           4.4646    0.9359   17.8990 C.ar    1  UNL1        0.1386
      4 C           3.3179    0.0183   17.5942 C.ar    1  UNL1        0.0370
      5 C           2.0422    0.1270   18.3757 C.ar    1  UNL1        0.0060
      6 C           1.9133    1.1534   19.4620 C.ar    1  UNL1        0.0363
      7 C           3.0600    2.0711   19.7667 C.ar    1  UNL1        0.0060
      8 C           4.3357    1.9623   18.9852 C.ar    1  UNL1        0.0370
      9 O           5.7404    0.8272   17.1175 O.3     1  UNL1       -0.4754
     10 C           6.8014   -0.1430   17.5450 C.3     1  UNL1        0.2068
     11 C           6.4250   -1.5406   17.9391 C.3     1  UNL1        0.0646
     12 C           6.5010   -1.9605   19.3771 C.3     1  UNL1        0.0759
     13 C           3.5926   -3.4383   19.4577 C.3     1  UNL1        0.0173
     14 C           4.0371   -2.3176   20.3500 C.3     1  UNL1        0.0576
     15 C           3.2228   -1.6794   21.4361 C.3     1  UNL1        0.0174
     16 C           4.0564   -0.6056   22.0704 C.3     1  UNL1        0.0187
     17 C           5.3859   -0.5803   21.3763 C.3     1  UNL1        0.0721
     18 N           5.3740   -1.6383   20.3130 N.3     1  UNL1       -0.2738
     19 C           0.2016    2.5906   20.7866 C.3     1  UNL1        0.1424
     20 N          -0.2508    2.7062   22.2121 N.3     1  UNL1       -0.2632
     21 C           0.5457    2.0599   23.3065 C.3     1  UNL1        0.0942
     22 C           0.0933    2.1755   24.7320 C.3     1  UNL1        0.1111
     23 N          -1.1556    2.9375   25.0630 N.am    1  UNL1       -0.2732
     24 C          -1.6080    3.0531   26.4885 C.2     1  UNL1        0.2491
     25 O          -2.8569    3.8151   26.8196 O.2     1  UNL1       -0.2699
     26 C          -1.9521    3.5838   23.9686 C.3     1  UNL1        0.1111
     27 C          -1.4997    3.4682   22.5432 C.3     1  UNL1        0.0942
     28 C          -0.8115    2.4067   27.5829 C.ar    1  UNL1        0.0536
     29 C           0.2564    3.1846   28.2931 C.ar    1  UNL1        0.0045
     30 C           1.0529    2.5383   29.3875 C.ar    1  UNL1        0.0001
     31 C           0.7815    1.1139   29.7718 C.ar    1  UNL1        0.0000
     32 C          -0.2864    0.3360   29.0616 C.ar    1  UNL1        0.0001
     33 C          -1.0830    0.9824   27.9672 C.ar    1  UNL1        0.0045
@<TRIPOS>BOND
     1    14    13    1
     2    14    15    1
     3    15    16    1
     4    16    17    1
     5    17    18    1
     6    18    12    1
     7    12    11    1
     8    11    10    1
     9    10     9    1
    10     9     3    1
    11     3     4   ar
    12     4     5   ar
    13     5     6   ar
    14     6     1    1
    15     1     2    2
    16     1    19    1
    17    19    20    1
    18    20    21    1
    19    21    22    1
    20    22    23    1
    21    23    24   am
    22    24    25    2
    23    24    28    1
    24    28    29   ar
    25    29    30   ar
    26    30    31   ar
    27    31    32   ar
    28    32    33   ar
    29    23    26    1
    30    26    27    1
    31     6     7   ar
    32     7     8   ar
    33    18    14    1
    34     8     3   ar
    35    27    20    1
    36    33    28   ar
@<TRIPOS>MOLECULE
*****
 33 36 0 0 0
SMALL
GASTEIGER

@<TRIPOS>ATOM
      1 C           1.0508    0.6175   20.5736 C.2     1  UNL1        0.1892
      2 O          -0.3045   -0.0249   20.5565 O.2     1  UNL1       -0.2899
      3 C           4.4710   -1.2857   18.3532 C.ar    1  UNL1        0.1386
      4 C           4.2729    0.1999   18.2946 C.ar    1  UNL1        0.0370
      5 C           3.1329    0.8343   19.0347 C.ar    1  UNL1        0.0060
      6 C           2.1909   -0.0170   19.8334 C.ar    1  UNL1        0.0363
      7 C           2.3890   -1.5026   19.8920 C.ar    1  UNL1        0.0060
      8 C           3.5290   -2.1370   19.1519 C.ar    1  UNL1        0.0370
      9 O           5.6110   -1.9202   17.6130 O.3     1  UNL1       -0.4754
     10 C           6.9150   -2.1663   18.3124 C.3     1  UNL1        0.2068
     11 C           6.9386   -2.9079   19.6161 C.3     1  UNL1        0.0646
     12 C           7.2360   -2.1751   20.8906 C.3     1  UNL1        0.0759
     13 C           4.8910   -3.5220   22.7171 C.3     1  UNL1        0.0173
     14 C           5.0642   -2.0572   22.4443 C.3     1  UNL1        0.0576
     15 C           4.1899   -0.9544   22.9632 C.3     1  UNL1        0.0174
     16 C           4.7274    0.3464   22.4443 C.3     1  UNL1        0.0187
     17 C           5.9339    0.0474   21.6048 C.3     1  UNL1        0.0721
     18 N           6.1421   -1.4381   21.6047 N.3     1  UNL1       -0.2738
     19 C           1.2661    1.8943   21.3307 C.3     1  UNL1        0.1424
     20 N           0.5913    2.1047   22.6538 N.3     1  UNL1       -0.2632
     21 C          -0.3100    3.2865   22.8565 C.3     1  UNL1        0.0942
     22 C          -0.9848    3.4968   24.1795 C.3     1  UNL1        0.1111
     23 N          -0.7583    2.5253   25.2998 N.am    1  UNL1       -0.2732
     24 C          -1.4332    2.7357   26.6228 C.2     1  UNL1        0.2491
     25 O          -1.2067    1.7642   27.7431 O.2     1  UNL1       -0.2699
     26 C           0.1429    1.3436   25.0970 C.3     1  UNL1        0.1111
     27 C           0.8177    1.1332   23.7740 C.3     1  UNL1        0.0942
     28 C          -2.3344    3.9174   26.8255 C.ar    1  UNL1        0.0536
     29 C          -3.8090    3.7863   26.5838 C.ar    1  UNL1        0.0045
     30 C          -4.7103    4.9681   26.7865 C.ar    1  UNL1        0.0001
     31 C          -4.1369    6.2811   27.2310 C.ar    1  UNL1        0.0000
     32 C          -2.6624    6.4122   27.4727 C.ar    1  UNL1        0.0001
     33 C          -1.7611    5.2303   27.2700 C.ar    1  UNL1        0.0045
@<TRIPOS>BOND
     1    14    13    1
     2    14    15    1
     3    15    16    1
     4    16    17    1
     5    17    18    1
     6    18    12    1
     7    12    11    1
     8    11    10    1
     9    10     9    1
    10     9     3    1
    11     3     4   ar
    12     4     5   ar
    13     5     6   ar
    14     6     1    1
    15     1     2    2
    16     1    19    1
    17    19    20    1
    18    20    21    1
    19    21    22    1
    20    22    23    1
    21    23    24   am
    22    24    25    2
    23    24    28    1
    24    28    29   ar
    25    29    30   ar
    26    30    31   ar
    27    31    32   ar
    28    32    33   ar
    29    23    26    1
    30    26    27    1
    31     6     7   ar
    32     7     8   ar
    33    18    14    1
    34     8     3   ar
    35    27    20    1
    36    33    28   ar
@<TRIPOS>MOLECULE
*****
 33 36 0 0 0
SMALL
GASTEIGER

@<TRIPOS>ATOM
      1 C           6.6529   -1.2008   24.6817 C.2     1  UNL1        0.1892
      2 O           7.9968   -0.5484   24.8159 O.2     1  UNL1       -0.2899
      3 C           5.7767   -3.8413   21.1448 C.ar    1  UNL1        0.1386
      4 C           4.7565   -3.6820   22.2327 C.ar    1  UNL1        0.0370
      5 C           5.0486   -2.8019   23.4117 C.ar    1  UNL1        0.0060
      6 C           6.3608   -2.0810   23.5027 C.ar    1  UNL1        0.0363
      7 C           7.3811   -2.2403   22.4147 C.ar    1  UNL1        0.0060
      8 C           7.0890   -3.1205   21.2358 C.ar    1  UNL1        0.0370
      9 O           5.4847   -4.7215   19.9657 O.3     1  UNL1       -0.4754
     10 C           4.7300   -4.1749   18.7904 C.3     1  UNL1        0.2068
     11 C           5.2329   -2.9544   18.0779 C.3     1  UNL1        0.0646
     12 C           4.4412   -1.6811   18.1213 C.3     1  UNL1        0.0759
     13 C           6.0331    0.3350   20.1338 C.3     1  UNL1        0.0173
     14 C           4.6628   -0.2328   20.3569 C.3     1  UNL1        0.0576
     15 C           3.7835    0.0265   21.5442 C.3     1  UNL1        0.0174
     16 C           2.5083   -0.7399   21.3529 C.3     1  UNL1        0.0187
     17 C           2.5995   -1.4729   20.0474 C.3     1  UNL1        0.0721
     18 N           3.9310   -1.1594   19.4318 N.3     1  UNL1       -0.2738
     19 C           5.6009   -0.9732   25.7265 C.3     1  UNL1        0.1424
     20 N           5.7878   -1.5203   27.1106 N.3     1  UNL1       -0.2632
     21 C           5.4422   -0.6782   28.3029 C.3     1  UNL1        0.0942
     22 C           5.6290   -1.2253   29.6870 C.3     1  UNL1        0.1111
     23 N           6.1614   -2.6145   29.8788 N.am    1  UNL1       -0.2732
     24 C           6.3483   -3.1616   31.2630 C.2     1  UNL1        0.2491
     25 O           6.8807   -4.5508   31.4548 O.2     1  UNL1       -0.2699
     26 C           6.5070   -3.4565   28.6865 C.3     1  UNL1        0.1111
     27 C           6.3202   -2.9094   27.3025 C.3     1  UNL1        0.0942
     28 C           6.0027   -2.3196   32.4552 C.ar    1  UNL1        0.0536
     29 C           7.0167   -1.3711   33.0228 C.ar    1  UNL1        0.0045
     30 C           6.6711   -0.5290   34.2151 C.ar    1  UNL1        0.0001
     31 C           5.3115   -0.6355   34.8398 C.ar    1  UNL1        0.0000
     32 C           4.2975   -1.5840   34.2722 C.ar    1  UNL1        0.0001
     33 C           4.6431   -2.4260   33.0798 C.ar    1  UNL1        0.0045
@<TRIPOS>BOND
     1    14    13    1
     2    14    15    1
     3    15    16    1
     4    16    17    1
     5    17    18    1
     6    18    12    1
     7    12    11    1
     8    11    10    1
     9    10     9    1
    10     9     3    1
    11     3     4   ar
    12     4     5   ar
    13     5     6   ar
    14     6     1    1
    15     1     2    2
    16     1    19    1
    17    19    20    1
    18    20    21    1
    19    21    22    1
    20    22    23    1
    21    23    24   am
    22    24    25    2
    23    24    28    1
    24    28    29   ar
    25    29    30   ar
    26    30    31   ar
    27    31    32   ar
    28    32    33   ar
    29    23    26    1
    30    26    27    1
    31     6     7   ar
    32     7     8   ar
    33    18    14    1
    34     8     3   ar
    35    27    20    1
    36    33    28   ar
@<TRIPOS>MOLECULE
*****
 33 36 0 0 0
SMALL
GASTEIGER

@<TRIPOS>ATOM
      1 C           5.6221   -2.9958   23.9526 C.2     1  UNL1        0.1892
      2 O           4.6363   -2.2935   24.8387 O.2     1  UNL1       -0.2899
      3 C           5.2934   -2.6200   19.4804 C.ar    1  UNL1        0.1386
      4 C           4.2866   -3.4311   20.2409 C.ar    1  UNL1        0.0370
      5 C           4.3961   -3.5564   21.7316 C.ar    1  UNL1        0.0060
      6 C           5.5125   -2.8705   22.4618 C.ar    1  UNL1        0.0363
      7 C           6.5193   -2.0594   21.7014 C.ar    1  UNL1        0.0060
      8 C           6.4098   -1.9341   20.2107 C.ar    1  UNL1        0.0370
      9 O           5.1838   -2.4947   17.9896 O.3     1  UNL1       -0.4754
     10 C           4.3511   -1.4018   17.3880 C.3     1  UNL1        0.2068
     11 C           4.6633    0.0334   17.6930 C.3     1  UNL1        0.0646
     12 C           3.7245    0.8418   18.5387 C.3     1  UNL1        0.0759
     13 C           1.4860   -0.9182   20.1326 C.3     1  UNL1        0.0173
     14 C           2.6409   -0.1899   20.7537 C.3     1  UNL1        0.0576
     15 C           2.9695   -0.1426   22.2164 C.3     1  UNL1        0.0174
     16 C           4.2017    0.6956   22.3879 C.3     1  UNL1        0.0187
     17 C           4.6344    1.1664   21.0310 C.3     1  UNL1        0.0721
     18 N           3.6698    0.6191   20.0210 N.3     1  UNL1       -0.2738
     19 C           6.7173   -3.8233   24.5573 C.3     1  UNL1        0.1424
     20 N           6.7587   -4.0443   26.0404 N.3     1  UNL1       -0.2632
     21 C           6.9073   -2.8757   26.9689 C.3     1  UNL1        0.0942
     22 C           6.9487   -3.0967   28.4519 C.3     1  UNL1        0.1111
     23 N           6.8416   -4.4864   29.0064 N.am    1  UNL1       -0.2732
     24 C           6.8831   -4.7074   30.4895 C.2     1  UNL1        0.2491
     25 O           6.7760   -6.0970   31.0440 O.2     1  UNL1       -0.2699
     26 C           6.6931   -5.6550   28.0778 C.3     1  UNL1        0.1111
     27 C           6.6516   -5.4339   26.5948 C.3     1  UNL1        0.0942
     28 C           7.0316   -3.5388   31.4180 C.ar    1  UNL1        0.0536
     29 C           8.3965   -3.1003   31.8594 C.ar    1  UNL1        0.0045
     30 C           8.5451   -1.9317   32.7879 C.ar    1  UNL1        0.0001
     31 C           7.3287   -1.2015   33.2752 C.ar    1  UNL1        0.0000
     32 C           5.9638   -1.6400   32.8339 C.ar    1  UNL1        0.0001
     33 C           5.8153   -2.8087   31.9053 C.ar    1  UNL1        0.0045
@<TRIPOS>BOND
     1    14    13    1
     2    14    15    1
     3    15    16    1
     4    16    17    1
     5    17    18    1
     6    18    12    1
     7    12    11    1
     8    11    10    1
     9    10     9    1
    10     9     3    1
    11     3     4   ar
    12     4     5   ar
    13     5     6   ar
    14     6     1    1
    15     1     2    2
    16     1    19    1
    17    19    20    1
    18    20    21    1
    19    21    22    1
    20    22    23    1
    21    23    24   am
    22    24    25    2
    23    24    28    1
    24    28    29   ar
    25    29    30   ar
    26    30    31   ar
    27    31    32   ar
    28    32    33   ar
    29    23    26    1
    30    26    27    1
    31     6     7   ar
    32     7     8   ar
    33    18    14    1
    34     8     3   ar
    35    27    20    1
    36    33    28   ar
