@<TRIPOS>MOLECULE
*****
 27 31 0 0 0
SMALL
GASTEIGER

@<TRIPOS>ATOM
      1 C         -11.9334   -2.0463   17.8896 C.3     1  UNL1        0.1258
      2 C         -13.3598   -2.2606   18.3014 C.3     1  UNL1        0.0160
      3 C         -13.8871   -3.6531   18.4821 C.3     1  UNL1        0.0227
      4 C         -15.3134   -3.8675   18.8938 C.3     1  UNL1        0.0978
      5 C         -15.8407   -5.2601   19.0745 C.2     1  UNL1        0.0692
      6 N         -15.1959   -6.6055   18.9196 N.2     1  UNL1       -0.2490
      7 C         -16.2237   -7.6514   19.2356 C.2     1  UNL1        0.0770
      8 C         -16.1593   -9.1499   19.2496 C.2     1  UNL1        0.0184
      9 C         -17.3750   -9.9494   19.6140 C.2     1  UNL1       -0.0027
     10 C         -18.6551   -9.2504   19.9642 C.2     1  UNL1       -0.0213
     11 C         -18.7195   -7.7519   19.9502 C.3     1  UNL1        0.0535
     12 C         -17.5038   -6.9524   19.5858 C.2     1  UNL1       -0.0029
     13 C         -17.2671   -5.4745   19.4863 C.2     1  UNL1       -0.0081
     14 C         -18.1661   -4.2963   19.7174 C.3     1  UNL1        0.0447
     15 C         -17.6388   -2.9036   19.5367 C.3     1  UNL1        0.0771
     16 N         -16.2125   -2.6893   19.1249 N.3     1  UNL1       -0.2688
     17 C         -15.6852   -1.2967   18.9443 C.3     1  UNL1        0.0724
     18 C         -14.2589   -1.0824   18.5325 C.3     1  UNL1        0.0167
     19 C         -13.7316    0.3102   18.3519 C.3     1  UNL1        0.0039
     20 C         -12.3052    0.5246   17.9401 C.3     1  UNL1        0.0299
     21 C         -11.4061   -0.6537   17.7089 C.3     1  UNL1        0.1210
     22 O          -9.9798   -0.4393   17.2972 O.3     1  UNL1       -0.3839
     23 H          -9.8032    0.5118   17.2262 H       1  UNL1        0.2104
     24 C         -11.0344   -3.2245   17.6585 C.2     1  UNL1        0.3189
     25 O         -10.9807   -3.8733   16.3071 O.2     1  UNL1       -0.2500
     26 C         -10.1592   -5.2261   19.0648 C.3     1  UNL1        0.2556
     27 O         -10.1890   -3.7539   18.7788 O.3     1  UNL1       -0.4443
@<TRIPOS>BOND
     1    26    27    1
     2    27    24    1
     3    24    25    2
     4     1    24    1
     5     1     2    1
     6     2     3    1
     7     4     3    1
     8     4     5    1
     9     5     6    2
    10     6     7    1
    11     7     8    2
    12     8     9    1
    13     9    10    2
    14    10    11    1
    15    11    12    1
    16    12    13    2
    17    13    14    1
    18    14    15    1
    19    15    16    1
    20    16    17    1
    21    18    17    1
    22    18    19    1
    23    19    20    1
    24    20    21    1
    25    21    22    1
    26    21     1    1
    27    18     2    1
    28    16     4    1
    29    13     5    1
    30    12     7    1
    31    22    23    1
@<TRIPOS>MOLECULE
*****
 27 31 0 0 0
SMALL
GASTEIGER

@<TRIPOS>ATOM
      1 C         -11.9350   -5.3749   18.7999 C.3     1  UNL1        0.1258
      2 C         -11.8242   -3.9403   18.3757 C.3     1  UNL1        0.0160
      3 C         -12.9166   -2.9709   18.7172 C.3     1  UNL1        0.0227
      4 C         -12.8059   -1.5363   18.2931 C.3     1  UNL1        0.0978
      5 C         -13.8983   -0.5668   18.6345 C.2     1  UNL1        0.0692
      6 N         -15.1931   -0.7330   19.3734 N.2     1  UNL1       -0.2490
      7 C         -15.8825    0.5988   19.4060 C.2     1  UNL1        0.0770
      8 C         -17.1891    1.0384   19.9973 C.2     1  UNL1        0.0184
      9 C         -17.6269    2.4673   19.8698 C.2     1  UNL1       -0.0027
     10 C         -16.7583    3.4567   19.1510 C.2     1  UNL1       -0.0213
     11 C         -15.4517    3.0170   18.5597 C.3     1  UNL1        0.0535
     12 C         -15.0139    1.5881   18.6872 C.2     1  UNL1       -0.0029
     13 C         -13.7876    0.8677   18.2104 C.2     1  UNL1       -0.0081
     14 C         -12.5844    1.3327   17.4449 C.3     1  UNL1        0.0447
     15 C         -11.4920    0.3631   17.1034 C.3     1  UNL1        0.0771
     16 N         -11.6027   -1.0714   17.5275 N.3     1  UNL1       -0.2688
     17 C         -10.5102   -2.0409   17.1860 C.3     1  UNL1        0.0724
     18 C         -10.6211   -3.4754   17.6102 C.3     1  UNL1        0.0167
     19 C          -9.5286   -4.4449   17.2687 C.3     1  UNL1        0.0039
     20 C          -9.6394   -5.8795   17.6929 C.3     1  UNL1        0.0299
     21 C         -10.8426   -6.3445   18.4584 C.3     1  UNL1        0.1210
     22 O         -10.9533   -7.7790   18.8825 O.3     1  UNL1       -0.3839
     23 H         -10.1691   -8.2658   18.5843 H       1  UNL1        0.2104
     24 C         -13.1382   -5.8399   19.5655 C.2     1  UNL1        0.3189
     25 O         -13.5211   -5.1596   20.8463 O.2     1  UNL1       -0.2500
     26 C         -15.4460   -6.9888   19.2430 C.3     1  UNL1        0.2556
     27 O         -13.9585   -6.9852   19.0501 O.3     1  UNL1       -0.4443
@<TRIPOS>BOND
     1    26    27    1
     2    27    24    1
     3    24    25    2
     4     1    24    1
     5     1     2    1
     6     2     3    1
     7     4     3    1
     8     4     5    1
     9     5     6    2
    10     6     7    1
    11     7     8    2
    12     8     9    1
    13     9    10    2
    14    10    11    1
    15    11    12    1
    16    12    13    2
    17    13    14    1
    18    14    15    1
    19    15    16    1
    20    16    17    1
    21    18    17    1
    22    18    19    1
    23    19    20    1
    24    20    21    1
    25    21    22    1
    26    21     1    1
    27    18     2    1
    28    16     4    1
    29    13     5    1
    30    12     7    1
    31    22    23    1
@<TRIPOS>MOLECULE
*****
 27 31 0 0 0
SMALL
GASTEIGER

@<TRIPOS>ATOM
      1 C         -18.1307   -8.2300   19.7304 C.3     1  UNL1        0.1258
      2 C         -17.5638   -6.8822   19.3956 C.3     1  UNL1        0.0160
      3 C         -16.1137   -6.7467   19.0367 C.3     1  UNL1        0.0227
      4 C         -15.5467   -5.3990   18.7018 C.3     1  UNL1        0.0978
      5 C         -14.0966   -5.2635   18.3428 C.2     1  UNL1        0.0692
      6 N         -12.9906   -6.2712   18.2360 N.2     1  UNL1       -0.2490
      7 C         -11.7401   -5.5463   17.8351 C.2     1  UNL1        0.0770
      8 C         -10.3412   -6.0236   17.5802 C.2     1  UNL1        0.0184
      9 C          -9.2753   -5.0453   17.1844 C.2     1  UNL1       -0.0027
     10 C          -9.6084   -3.5895   17.0434 C.2     1  UNL1       -0.0213
     11 C         -11.0074   -3.1122   17.2983 C.3     1  UNL1        0.0535
     12 C         -12.0732   -4.0905   17.6942 C.2     1  UNL1       -0.0029
     13 C         -13.5296   -3.9158   18.0080 C.2     1  UNL1       -0.0081
     14 C         -14.4127   -2.7036   18.0320 C.3     1  UNL1        0.0447
     15 C         -15.8628   -2.8391   18.3910 C.3     1  UNL1        0.0771
     16 N         -16.4298   -4.1868   18.7258 N.3     1  UNL1       -0.2688
     17 C         -17.8800   -4.3223   19.0848 C.3     1  UNL1        0.0724
     18 C         -18.4469   -5.6700   19.4196 C.3     1  UNL1        0.0167
     19 C         -19.8970   -5.8055   19.7786 C.3     1  UNL1        0.0039
     20 C         -20.4640   -7.1533   20.1134 C.3     1  UNL1        0.0299
     21 C         -19.5809   -8.3655   20.0894 C.3     1  UNL1        0.1210
     22 O         -20.1479   -9.7132   20.4242 O.3     1  UNL1       -0.3839
     23 H         -21.0914   -9.6247   20.6312 H       1  UNL1        0.2104
     24 C         -17.2476   -9.4422   19.7064 C.2     1  UNL1        0.3189
     25 O         -16.1034   -9.5558   20.6697 O.2     1  UNL1       -0.2500
     26 C         -18.3707  -10.2816   17.5191 C.3     1  UNL1        0.2556
     27 O         -17.5087  -10.5409   18.7190 O.3     1  UNL1       -0.4443
@<TRIPOS>BOND
     1    26    27    1
     2    27    24    1
     3    24    25    2
     4     1    24    1
     5     1     2    1
     6     2     3    1
     7     4     3    1
     8     4     5    1
     9     5     6    2
    10     6     7    1
    11     7     8    2
    12     8     9    1
    13     9    10    2
    14    10    11    1
    15    11    12    1
    16    12    13    2
    17    13    14    1
    18    14    15    1
    19    15    16    1
    20    16    17    1
    21    18    17    1
    22    18    19    1
    23    19    20    1
    24    20    21    1
    25    21    22    1
    26    21     1    1
    27    18     2    1
    28    16     4    1
    29    13     5    1
    30    12     7    1
    31    22    23    1
@<TRIPOS>MOLECULE
*****
 27 31 0 0 0
SMALL
GASTEIGER

@<TRIPOS>ATOM
      1 C           3.1393   -1.4220   20.4056 C.3     1  UNL1        0.1258
      2 C           3.7027   -1.5916   21.7854 C.3     1  UNL1        0.0160
      3 C           4.6982   -2.6793   22.0605 C.3     1  UNL1        0.0227
      4 C           5.2616   -2.8490   23.4403 C.3     1  UNL1        0.0978
      5 C           6.2571   -3.9367   23.7155 C.2     1  UNL1        0.0692
      6 N           6.8670   -4.9857   22.8336 N.2     1  UNL1       -0.2490
      7 C           7.8073   -5.8037   23.6684 C.2     1  UNL1        0.0770
      8 C           8.6859   -6.9731   23.3363 C.2     1  UNL1        0.0184
      9 C           9.5358   -7.5991   24.4020 C.2     1  UNL1       -0.0027
     10 C           9.5071   -7.0557   25.7997 C.2     1  UNL1       -0.0213
     11 C           8.6285   -5.8862   26.1318 C.3     1  UNL1        0.0535
     12 C           7.7786   -5.2602   25.0661 C.2     1  UNL1       -0.0029
     13 C           6.8205   -4.1064   25.0952 C.2     1  UNL1       -0.0081
     14 C           6.3883   -3.1883   26.1999 C.3     1  UNL1        0.0447
     15 C           5.3928   -2.1005   25.9248 C.3     1  UNL1        0.0771
     16 N           4.8294   -1.9309   24.5450 N.3     1  UNL1       -0.2688
     17 C           3.8339   -0.8431   24.2699 C.3     1  UNL1        0.0724
     18 C           3.2705   -0.6735   22.8901 C.3     1  UNL1        0.0167
     19 C           2.2750    0.4143   22.6150 C.3     1  UNL1        0.0039
     20 C           1.7116    0.5839   21.2351 C.3     1  UNL1        0.0299
     21 C           2.1438   -0.3342   20.1304 C.3     1  UNL1        0.1210
     22 O           1.5804   -0.1645   18.7507 O.3     1  UNL1       -0.3839
     23 H           0.9564    0.5781   18.7453 H       1  UNL1        0.2104
     24 C           3.5715   -2.3401   19.3009 C.2     1  UNL1        0.3189
     25 O           4.3360   -1.7970   18.1302 O.2     1  UNL1       -0.2500
     26 C           4.2712   -4.8229   18.9915 C.3     1  UNL1        0.2556
     27 O           3.2391   -3.8013   19.3670 O.3     1  UNL1       -0.4443
@<TRIPOS>BOND
     1    26    27    1
     2    27    24    1
     3    24    25    2
     4     1    24    1
     5     1     2    1
     6     2     3    1
     7     4     3    1
     8     4     5    1
     9     5     6    2
    10     6     7    1
    11     7     8    2
    12     8     9    1
    13     9    10    2
    14    10    11    1
    15    11    12    1
    16    12    13    2
    17    13    14    1
    18    14    15    1
    19    15    16    1
    20    16    17    1
    21    18    17    1
    22    18    19    1
    23    19    20    1
    24    20    21    1
    25    21    22    1
    26    21     1    1
    27    18     2    1
    28    16     4    1
    29    13     5    1
    30    12     7    1
    31    22    23    1
@<TRIPOS>MOLECULE
*****
 27 31 0 0 0
SMALL
GASTEIGER

@<TRIPOS>ATOM
      1 C           4.3651   -1.7003   18.6523 C.3     1  UNL1        0.1258
      2 C           4.1712   -1.3874   20.1065 C.3     1  UNL1        0.0160
      3 C           4.9342   -2.1528   21.1465 C.3     1  UNL1        0.0227
      4 C           4.7403   -1.8400   22.6006 C.3     1  UNL1        0.0978
      5 C           5.5034   -2.6054   23.6408 C.2     1  UNL1        0.0692
      6 N           6.5077   -3.7145   23.5352 N.2     1  UNL1       -0.2490
      7 C           6.9346   -4.0871   24.9241 C.2     1  UNL1        0.0770
      8 C           7.9019   -5.1131   25.4356 C.2     1  UNL1        0.0184
      9 C           8.1287   -5.2602   26.9110 C.2     1  UNL1       -0.0027
     10 C           7.3881   -4.3813   27.8749 C.2     1  UNL1       -0.0213
     11 C           6.4208   -3.3554   27.3635 C.3     1  UNL1        0.0535
     12 C           6.1941   -3.2083   25.8880 C.2     1  UNL1       -0.0029
     13 C           5.3095   -2.2925   25.0949 C.2     1  UNL1       -0.0081
     14 C           4.3526   -1.2142   25.5089 C.3     1  UNL1        0.0447
     15 C           3.5895   -0.4487   24.4688 C.3     1  UNL1        0.0771
     16 N           3.7834   -0.7616   23.0147 N.3     1  UNL1       -0.2688
     17 C           3.0203    0.0038   21.9745 C.3     1  UNL1        0.0724
     18 C           3.2142   -0.3091   20.5205 C.3     1  UNL1        0.0167
     19 C           2.4512    0.4564   19.4804 C.3     1  UNL1        0.0039
     20 C           2.6451    0.1435   18.0262 C.3     1  UNL1        0.0299
     21 C           3.6020   -0.9349   17.6121 C.3     1  UNL1        0.1210
     22 O           3.7959   -1.2478   16.1580 O.3     1  UNL1       -0.3839
     23 H           3.2322   -0.6662   15.6242 H       1  UNL1        0.2104
     24 C           5.3220   -2.7787   18.2382 C.2     1  UNL1        0.3189
     25 O           6.5578   -2.4279   17.4638 O.2     1  UNL1       -0.2500
     26 C           3.6446   -4.6391   18.9275 C.3     1  UNL1        0.2556
     27 O           5.0431   -4.2078   18.5987 O.3     1  UNL1       -0.4443
@<TRIPOS>BOND
     1    26    27    1
     2    27    24    1
     3    24    25    2
     4     1    24    1
     5     1     2    1
     6     2     3    1
     7     4     3    1
     8     4     5    1
     9     5     6    2
    10     6     7    1
    11     7     8    2
    12     8     9    1
    13     9    10    2
    14    10    11    1
    15    11    12    1
    16    12    13    2
    17    13    14    1
    18    14    15    1
    19    15    16    1
    20    16    17    1
    21    18    17    1
    22    18    19    1
    23    19    20    1
    24    20    21    1
    25    21    22    1
    26    21     1    1
    27    18     2    1
    28    16     4    1
    29    13     5    1
    30    12     7    1
    31    22    23    1
@<TRIPOS>MOLECULE
*****
 27 31 0 0 0
SMALL
GASTEIGER

@<TRIPOS>ATOM
      1 C         -11.2512  -18.1180   21.7130 C.3     1  UNL1        0.1258
      2 C         -10.0581  -17.4620   22.3425 C.3     1  UNL1        0.0160
      3 C          -8.6797  -17.9798   22.0568 C.3     1  UNL1        0.0227
      4 C          -7.4866  -17.3238   22.6863 C.3     1  UNL1        0.0978
      5 C          -6.1081  -17.8417   22.4005 C.2     1  UNL1        0.0692
      6 N          -5.6180  -18.9733   21.5466 N.2     1  UNL1       -0.2490
      7 C          -4.1221  -19.0167   21.6483 C.2     1  UNL1        0.0770
      8 C          -3.0995  -19.9195   21.0245 C.2     1  UNL1        0.0184
      9 C          -1.6424  -19.7175   21.3175 C.2     1  UNL1       -0.0027
     10 C          -1.2079  -18.6126   22.2344 C.2     1  UNL1       -0.0213
     11 C          -2.2305  -17.7099   22.8582 C.3     1  UNL1        0.0535
     12 C          -3.6876  -17.9119   22.5651 C.2     1  UNL1       -0.0029
     13 C          -4.9150  -17.1857   23.0300 C.2     1  UNL1       -0.0081
     14 C          -5.1005  -16.0119   23.9452 C.3     1  UNL1        0.0447
     15 C          -6.4789  -15.4940   24.2310 C.3     1  UNL1        0.0771
     16 N          -7.6720  -16.1500   23.6015 N.3     1  UNL1       -0.2688
     17 C          -9.0505  -15.6321   23.8873 C.3     1  UNL1        0.0724
     18 C         -10.2435  -16.2881   23.2578 C.3     1  UNL1        0.0167
     19 C         -11.6219  -15.7702   23.5435 C.3     1  UNL1        0.0039
     20 C         -12.8150  -16.4263   22.9140 C.3     1  UNL1        0.0299
     21 C         -12.6296  -17.6001   21.9987 C.3     1  UNL1        0.1210
     22 O         -13.8227  -18.2561   21.3692 O.3     1  UNL1       -0.3839
     23 H         -14.6304  -17.8020   21.6563 H       1  UNL1        0.2104
     24 C         -11.0657  -19.2919   20.7977 C.2     1  UNL1        0.3189
     25 O         -11.3282  -20.6815   21.2977 O.2     1  UNL1       -0.2500
     26 C          -9.3436  -19.7000   18.8958 C.3     1  UNL1        0.2556
     27 O         -10.6179  -19.0760   19.3825 O.3     1  UNL1       -0.4443
@<TRIPOS>BOND
     1    26    27    1
     2    27    24    1
     3    24    25    2
     4     1    24    1
     5     1     2    1
     6     2     3    1
     7     4     3    1
     8     4     5    1
     9     5     6    2
    10     6     7    1
    11     7     8    2
    12     8     9    1
    13     9    10    2
    14    10    11    1
    15    11    12    1
    16    12    13    2
    17    13    14    1
    18    14    15    1
    19    15    16    1
    20    16    17    1
    21    18    17    1
    22    18    19    1
    23    19    20    1
    24    20    21    1
    25    21    22    1
    26    21     1    1
    27    18     2    1
    28    16     4    1
    29    13     5    1
    30    12     7    1
    31    22    23    1
@<TRIPOS>MOLECULE
*****
 27 31 0 0 0
SMALL
GASTEIGER

@<TRIPOS>ATOM
      1 C           3.3925   -0.7239   18.7942 C.3     1  UNL1        0.1258
      2 C           3.6680   -1.0479   20.2327 C.3     1  UNL1        0.0160
      3 C           3.0239   -0.2401   21.3200 C.3     1  UNL1        0.0227
      4 C           3.2994   -0.5641   22.7585 C.3     1  UNL1        0.0978
      5 C           2.6553    0.2438   23.8459 C.2     1  UNL1        0.0692
      6 N           1.7115    1.4090   23.8057 N.2     1  UNL1       -0.2490
      7 C           1.4037    1.8052   25.2194 C.2     1  UNL1        0.0770
      8 C           0.5346    2.8850   25.7925 C.2     1  UNL1        0.0184
      9 C           0.4190    3.0445   27.2795 C.2     1  UNL1       -0.0027
     10 C           1.1726    2.1242   28.1933 C.2     1  UNL1       -0.0213
     11 C           2.0417    1.0443   27.6202 C.3     1  UNL1        0.0535
     12 C           2.1572    0.8848   26.1332 C.2     1  UNL1       -0.0029
     13 C           2.9307   -0.0801   25.2843 C.2     1  UNL1       -0.0081
     14 C           3.8503   -1.2120   25.6354 C.3     1  UNL1        0.0447
     15 C           4.4945   -2.0198   24.5480 C.3     1  UNL1        0.0771
     16 N           4.2190   -1.6959   23.1095 N.3     1  UNL1       -0.2688
     17 C           4.8632   -2.5038   22.0221 C.3     1  UNL1        0.0724
     18 C           4.5877   -2.1798   20.5837 C.3     1  UNL1        0.0167
     19 C           5.2318   -2.9876   19.4963 C.3     1  UNL1        0.0039
     20 C           4.9563   -2.6636   18.0578 C.3     1  UNL1        0.0299
     21 C           4.0367   -1.5318   17.7067 C.3     1  UNL1        0.1210
     22 O           3.7612   -1.2078   16.2683 O.3     1  UNL1       -0.3839
     23 H           4.2523   -1.8208   15.6990 H       1  UNL1        0.2104
     24 C           2.4729    0.4079   18.4431 C.2     1  UNL1        0.3189
     25 O           0.9890    0.1895   18.4214 O.2     1  UNL1       -0.2500
     26 C           4.4970    2.0322   18.3227 C.3     1  UNL1        0.2556
     27 O           3.0372    1.7581   18.1138 O.3     1  UNL1       -0.4443
@<TRIPOS>BOND
     1    26    27    1
     2    27    24    1
     3    24    25    2
     4     1    24    1
     5     1     2    1
     6     2     3    1
     7     4     3    1
     8     4     5    1
     9     5     6    2
    10     6     7    1
    11     7     8    2
    12     8     9    1
    13     9    10    2
    14    10    11    1
    15    11    12    1
    16    12    13    2
    17    13    14    1
    18    14    15    1
    19    15    16    1
    20    16    17    1
    21    18    17    1
    22    18    19    1
    23    19    20    1
    24    20    21    1
    25    21    22    1
    26    21     1    1
    27    18     2    1
    28    16     4    1
    29    13     5    1
    30    12     7    1
    31    22    23    1
@<TRIPOS>MOLECULE
*****
 27 31 0 0 0
SMALL
GASTEIGER

@<TRIPOS>ATOM
      1 C           3.3752   -1.8024   20.4514 C.3     1  UNL1        0.1258
      2 C           3.5775   -1.6709   21.9319 C.3     1  UNL1        0.0160
      3 C           2.8343   -0.6185   22.6999 C.3     1  UNL1        0.0227
      4 C           3.0366   -0.4870   24.1803 C.3     1  UNL1        0.0978
      5 C           2.2934    0.5655   24.9484 C.2     1  UNL1        0.0692
      6 N           1.3035    1.6085   24.5214 N.2     1  UNL1       -0.2490
      7 C           0.8940    2.3846   25.7380 C.2     1  UNL1        0.0770
      8 C          -0.0545    3.5315   25.9246 C.2     1  UNL1        0.0184
      9 C          -0.2662    4.1150   27.2901 C.2     1  UNL1       -0.0027
     10 C           0.4706    3.5516   28.4690 C.2     1  UNL1       -0.0213
     11 C           1.4191    2.4047   28.2823 C.3     1  UNL1        0.0535
     12 C           1.6309    1.8212   26.9168 C.2     1  UNL1       -0.0029
     13 C           2.4957    0.6970   26.4288 C.2     1  UNL1       -0.0081
     14 C           3.4412   -0.2240   27.1412 C.3     1  UNL1        0.0447
     15 C           4.1845   -1.2765   26.3732 C.3     1  UNL1        0.0771
     16 N           3.9822   -1.4080   24.8928 N.3     1  UNL1       -0.2688
     17 C           4.7255   -2.4605   24.1247 C.3     1  UNL1        0.0724
     18 C           4.5231   -2.5919   22.6443 C.3     1  UNL1        0.0167
     19 C           5.2664   -3.6444   21.8763 C.3     1  UNL1        0.0039
     20 C           5.0640   -3.7759   20.3958 C.3     1  UNL1        0.0299
     21 C           4.1185   -2.8549   19.6833 C.3     1  UNL1        0.1210
     22 O           3.9161   -2.9863   18.2029 O.3     1  UNL1       -0.3839
     23 H           4.4670   -3.7094   17.8642 H       1  UNL1        0.2104
     24 C           2.4296   -0.8814   19.7389 C.2     1  UNL1        0.3189
     25 O           2.9359    0.0178   18.6503 O.2     1  UNL1       -0.2500
     26 C           0.2626    0.4499   20.2696 C.3     1  UNL1        0.2556
     27 O           0.9777   -0.8596   20.1151 O.3     1  UNL1       -0.4443
@<TRIPOS>BOND
     1    26    27    1
     2    27    24    1
     3    24    25    2
     4     1    24    1
     5     1     2    1
     6     2     3    1
     7     4     3    1
     8     4     5    1
     9     5     6    2
    10     6     7    1
    11     7     8    2
    12     8     9    1
    13     9    10    2
    14    10    11    1
    15    11    12    1
    16    12    13    2
    17    13    14    1
    18    14    15    1
    19    15    16    1
    20    16    17    1
    21    18    17    1
    22    18    19    1
    23    19    20    1
    24    20    21    1
    25    21    22    1
    26    21     1    1
    27    18     2    1
    28    16     4    1
    29    13     5    1
    30    12     7    1
    31    22    23    1
@<TRIPOS>MOLECULE
*****
 27 31 0 0 0
SMALL
GASTEIGER

@<TRIPOS>ATOM
      1 C           4.0213   -1.7125   19.9200 C.3     1  UNL1        0.1258
      2 C           3.0147   -0.6071   20.0435 C.3     1  UNL1        0.0160
      3 C           2.4349   -0.2672   21.3844 C.3     1  UNL1        0.0227
      4 C           1.4284    0.8381   21.5080 C.3     1  UNL1        0.0978
      5 C           0.8485    1.1779   22.8490 C.2     1  UNL1        0.0692
      6 N           1.0753    0.6027   24.2156 N.2     1  UNL1       -0.2490
      7 C           0.2090    1.3524   25.1838 C.2     1  UNL1        0.0770
      8 C           0.0158    1.2236   26.6657 C.2     1  UNL1        0.0184
      9 C          -0.9397    2.1334   27.3793 C.2     1  UNL1       -0.0027
     10 C          -1.7019    3.1721   26.6111 C.2     1  UNL1       -0.0213
     11 C          -1.5086    3.3009   25.1292 C.3     1  UNL1        0.0535
     12 C          -0.5532    2.3911   24.4156 C.2     1  UNL1       -0.0029
     13 C          -0.1580    2.2832   22.9726 C.2     1  UNL1       -0.0081
     14 C          -0.5845    3.0487   21.7552 C.3     1  UNL1        0.0447
     15 C          -0.0046    2.7089   20.4142 C.3     1  UNL1        0.0771
     16 N           1.0019    1.6035   20.2906 N.3     1  UNL1       -0.2688
     17 C           1.5818    1.2637   18.9496 C.3     1  UNL1        0.0724
     18 C           2.5882    0.1584   18.8261 C.3     1  UNL1        0.0167
     19 C           3.1681   -0.1815   17.4851 C.3     1  UNL1        0.0039
     20 C           4.1746   -1.2868   17.3616 C.3     1  UNL1        0.0299
     21 C           4.6012   -2.0523   18.5790 C.3     1  UNL1        0.1210
     22 O           5.6076   -3.1576   18.4554 O.3     1  UNL1       -0.3839
     23 H           5.8785   -3.2460   17.5282 H       1  UNL1        0.2104
     24 C           4.4478   -2.4779   21.1374 C.2     1  UNL1        0.3189
     25 O           4.2856   -3.9685   21.1811 O.2     1  UNL1       -0.2500
     26 C           4.6479   -2.1439   23.7061 C.3     1  UNL1        0.2556
     27 O           5.0365   -1.7528   22.3111 O.3     1  UNL1       -0.4443
@<TRIPOS>BOND
     1    26    27    1
     2    27    24    1
     3    24    25    2
     4     1    24    1
     5     1     2    1
     6     2     3    1
     7     4     3    1
     8     4     5    1
     9     5     6    2
    10     6     7    1
    11     7     8    2
    12     8     9    1
    13     9    10    2
    14    10    11    1
    15    11    12    1
    16    12    13    2
    17    13    14    1
    18    14    15    1
    19    15    16    1
    20    16    17    1
    21    18    17    1
    22    18    19    1
    23    19    20    1
    24    20    21    1
    25    21    22    1
    26    21     1    1
    27    18     2    1
    28    16     4    1
    29    13     5    1
    30    12     7    1
    31    22    23    1
