@<TRIPOS>MOLECULE
*****
 39 43 0 0 0
SMALL
GASTEIGER

@<TRIPOS>ATOM
      1 C          -0.0067    2.5604   21.0188 C.3     1  UNL1        0.1631
      2 N          -0.7885    2.8752   22.2597 N.ar    1  UNL1       -0.3047
      3 C          -2.1050    3.5921   22.3141 C.ar    1  UNL1        0.1441
      4 N          -2.5213    3.6883   23.7520 N.ar    1  UNL1       -0.2267
      5 C          -1.4621    3.0308   24.5861 C.ar    1  UNL1        0.1010
      6 C          -1.3344    2.8248   26.0664 C.ar    1  UNL1        0.0526
      7 C          -0.1358    2.1163   26.6244 C.ar    1  UNL1        0.1690
      8 F          -0.0081    1.9103   28.1048 F       1  UNL1       -0.2017
      9 C           0.9351    1.6138   25.7022 C.ar    1  UNL1        0.1689
     10 F           2.1337    0.9052   26.2602 F       1  UNL1       -0.2017
     11 C           0.8074    1.8197   24.2219 C.ar    1  UNL1        0.0507
     12 C          -0.3912    2.5283   23.6639 C.ar    1  UNL1        0.0816
     13 C          -2.8707    4.1200   21.1373 C.ar    1  UNL1        0.0342
     14 C          -2.7268    5.5572   20.7325 C.ar    1  UNL1        0.0039
     15 C          -3.4925    6.0852   19.5557 C.ar    1  UNL1        0.0115
     16 C          -4.4021    5.1761   18.7837 C.ar    1  UNL1        0.0577
     17 CL         -5.1678    5.7041   17.6068 Cl      1  UNL1       -0.0822
     18 C          -4.5460    3.7389   19.1885 C.ar    1  UNL1        0.0115
     19 C          -3.7804    3.2109   20.3653 C.ar    1  UNL1        0.0039
     20 C           0.1313    3.5909   19.9377 C.3     1  UNL1        0.0297
     21 C           0.8264    4.8891   20.2233 C.3     1  UNL1        0.0024
     22 C           0.9644    5.9196   19.1420 C.3     1  UNL1        0.0001
     23 C           0.4074    5.6519   17.7753 C.3     1  UNL1        0.0000
     24 C          -0.2876    4.3537   17.4896 C.3     1  UNL1        0.0001
     25 C          -0.4256    3.3232   18.5709 C.3     1  UNL1        0.0024
     26 N           2.1322    1.0982   20.8256 N.am    1  UNL1       -0.2806
     27 C           0.6372    1.2149   20.8592 C.2     1  UNL1        0.2469
     28 O          -0.2141   -0.0136   20.7330 O.2     1  UNL1       -0.2727
     29 H           2.6910    1.9046   20.9084 H       1  UNL1        0.1550
     30 C           4.0635   -2.9380   20.3467 C.ar    1  UNL1        0.0163
     31 C           3.9169   -2.3340   21.7118 C.ar    1  UNL1        0.0025
     32 C           3.2731   -0.9885   21.8715 C.ar    1  UNL1        0.0170
     33 C           2.7760   -0.2472   20.6659 C.ar    1  UNL1        0.0782
     34 C           2.9226   -0.8512   19.3008 C.ar    1  UNL1        0.1535
     35 F           2.4255   -0.1099   18.0952 F       1  UNL1       -0.2029
     36 C           3.5664   -2.1966   19.1412 C.ar    1  UNL1        0.0320
     37 O           3.8906   -5.4564   19.7319 O.co2   1  UNL1       -0.5446
     38 C           4.7073   -4.2834   20.1870 C.2     1  UNL1        0.0729
     39 O           6.1678   -4.4557   20.4825 O.co2   1  UNL1       -0.5446
@<TRIPOS>UNITY_ATOM_ATTR
37 1
charge -1
@<TRIPOS>BOND
     1    37    38   ar
     2    38    39   ar
     3    38    30    1
     4    30    31   ar
     5    31    32   ar
     6    32    33   ar
     7    33    26    1
     8    26    27   am
     9    27    28    2
    10    27     1    1
    11     1    20    1
    12    20    21    1
    13    21    22    1
    14    22    23    1
    15    23    24    1
    16    24    25    1
    17     1     2    1
    18     2     3   ar
    19     3    13    1
    20    13    14   ar
    21    14    15   ar
    22    15    16   ar
    23    16    17    1
    24    16    18   ar
    25    18    19   ar
    26     3     4   ar
    27     4     5   ar
    28     5     6   ar
    29     6     7   ar
    30     7     8    1
    31     7     9   ar
    32     9    10    1
    33     9    11   ar
    34    11    12   ar
    35    33    34   ar
    36    34    35    1
    37    34    36   ar
    38    36    30   ar
    39    25    20    1
    40    12     2   ar
    41    19    13   ar
    42    12     5   ar
    43    26    29    1
@<TRIPOS>MOLECULE
*****
 39 43 0 0 0
SMALL
GASTEIGER

@<TRIPOS>ATOM
      1 C          -0.1709    2.7773   20.3897 C.3     1  UNL1        0.1631
      2 N          -1.0598    3.1511   21.5387 N.ar    1  UNL1       -0.3047
      3 C          -0.6152    3.4221   22.9454 C.ar    1  UNL1        0.1441
      4 N          -1.8300    3.7580   23.7588 N.ar    1  UNL1       -0.2267
      5 C          -3.0253    3.6944   22.8548 C.ar    1  UNL1        0.1010
      6 C          -4.4856    3.9297   23.1038 C.ar    1  UNL1        0.0526
      7 C          -5.4700    3.7898   21.9806 C.ar    1  UNL1        0.1690
      8 F          -6.9304    4.0251   22.2296 F       1  UNL1       -0.2017
      9 C          -4.9940    3.4147   20.6085 C.ar    1  UNL1        0.1689
     10 F          -5.9784    3.2749   19.4853 F       1  UNL1       -0.2017
     11 C          -3.5337    3.1795   20.3595 C.ar    1  UNL1        0.0507
     12 C          -2.5493    3.3193   21.4827 C.ar    1  UNL1        0.0816
     13 C           0.7962    3.3670   23.4501 C.ar    1  UNL1        0.0342
     14 C           1.6453    4.6035   23.4393 C.ar    1  UNL1        0.0039
     15 C           3.0568    4.5484   23.9440 C.ar    1  UNL1        0.0115
     16 C           3.6191    3.2569   24.4594 C.ar    1  UNL1        0.0577
     17 CL          5.0307    3.2019   24.9641 Cl      1  UNL1       -0.0822
     18 C           2.7700    2.0205   24.4702 C.ar    1  UNL1        0.0115
     19 C           1.3586    2.0755   23.9656 C.ar    1  UNL1        0.0039
     20 C           0.0280    3.7352   19.2528 C.3     1  UNL1        0.0297
     21 C          -0.6143    3.4663   17.9242 C.3     1  UNL1        0.0024
     22 C          -0.4154    4.4243   16.7873 C.3     1  UNL1        0.0001
     23 C           0.4258    5.6513   16.9789 C.3     1  UNL1        0.0000
     24 C           1.0682    5.9204   18.3074 C.3     1  UNL1        0.0001
     25 C           0.8692    4.9623   19.4443 C.3     1  UNL1        0.0024
     26 N           2.0033    1.3716   20.1732 N.am    1  UNL1       -0.2806
     27 C           0.5192    1.4454   20.3777 C.2     1  UNL1        0.2469
     28 O          -0.2749    0.1875   20.5700 O.2     1  UNL1       -0.2727
     29 H           2.5246    2.1972   20.0469 H       1  UNL1        0.1550
     30 C           4.0733   -2.6240   20.1373 C.ar    1  UNL1        0.0163
     31 C           3.7109   -1.9788   21.4420 C.ar    1  UNL1        0.0025
     32 C           3.0208   -0.6468   21.4540 C.ar    1  UNL1        0.0170
     33 C           2.6933    0.0398   20.1612 C.ar    1  UNL1        0.0782
     34 C           3.0557   -0.6054   18.8565 C.ar    1  UNL1        0.1535
     35 F           2.7282    0.0812   17.5637 F       1  UNL1       -0.2029
     36 C           3.7457   -1.9373   18.8445 C.ar    1  UNL1        0.0320
     37 O           4.5154   -4.9188   19.0023 O.co2   1  UNL1       -0.5446
     38 C           4.7633   -3.9558   20.1252 C.2     1  UNL1        0.0729
     39 O           5.7012   -4.3245   21.2363 O.co2   1  UNL1       -0.5446
@<TRIPOS>UNITY_ATOM_ATTR
37 1
charge -1
@<TRIPOS>BOND
     1    37    38   ar
     2    38    39   ar
     3    38    30    1
     4    30    31   ar
     5    31    32   ar
     6    32    33   ar
     7    33    26    1
     8    26    27   am
     9    27    28    2
    10    27     1    1
    11     1    20    1
    12    20    21    1
    13    21    22    1
    14    22    23    1
    15    23    24    1
    16    24    25    1
    17     1     2    1
    18     2     3   ar
    19     3    13    1
    20    13    14   ar
    21    14    15   ar
    22    15    16   ar
    23    16    17    1
    24    16    18   ar
    25    18    19   ar
    26     3     4   ar
    27     4     5   ar
    28     5     6   ar
    29     6     7   ar
    30     7     8    1
    31     7     9   ar
    32     9    10    1
    33     9    11   ar
    34    11    12   ar
    35    33    34   ar
    36    34    35    1
    37    34    36   ar
    38    36    30   ar
    39    25    20    1
    40    12     2   ar
    41    19    13   ar
    42    12     5   ar
    43    26    29    1
@<TRIPOS>MOLECULE
*****
 39 43 0 0 0
SMALL
GASTEIGER

@<TRIPOS>ATOM
      1 C           1.7787    2.0708   21.2534 C.3     1  UNL1        0.1631
      2 N           2.3919    0.7195   21.4722 N.ar    1  UNL1       -0.3047
      3 C           2.5164    0.0104   22.7881 C.ar    1  UNL1        0.1441
      4 N           3.1897   -1.3074   22.5427 N.ar    1  UNL1       -0.2267
      5 C           3.4813   -1.4126   21.0750 C.ar    1  UNL1        0.1010
      6 C           4.1321   -2.4873   20.2556 C.ar    1  UNL1        0.0526
      7 C           4.2898   -2.3093   18.7746 C.ar    1  UNL1        0.1690
      8 F           4.9407   -3.3841   17.9551 F       1  UNL1       -0.2017
      9 C           3.7968   -1.0567   18.1129 C.ar    1  UNL1        0.1689
     10 F           3.9545   -0.8787   16.6319 F       1  UNL1       -0.2017
     11 C           3.1460    0.0180   18.9324 C.ar    1  UNL1        0.0507
     12 C           2.9882   -0.1600   20.4134 C.ar    1  UNL1        0.0816
     13 C           2.0496    0.5281   24.1163 C.ar    1  UNL1        0.0342
     14 C           3.0219    0.6700   25.2497 C.ar    1  UNL1        0.0039
     15 C           2.5551    1.1878   26.5778 C.ar    1  UNL1        0.0115
     16 C           1.1161    1.5636   26.7726 C.ar    1  UNL1        0.0577
     17 CL          0.6493    2.0814   28.1008 Cl      1  UNL1       -0.0822
     18 C           0.1439    1.4217   25.6392 C.ar    1  UNL1        0.0115
     19 C           0.6106    0.9040   24.3110 C.ar    1  UNL1        0.0039
     20 C           2.5625    3.3101   21.5691 C.3     1  UNL1        0.0297
     21 C           3.4920    3.8909   20.5451 C.3     1  UNL1        0.0024
     22 C           4.2758    5.1303   20.8608 C.3     1  UNL1        0.0001
     23 C           4.1301    5.7889   22.2006 C.3     1  UNL1        0.0000
     24 C           3.2005    5.2081   23.2247 C.3     1  UNL1        0.0001
     25 C           2.4168    3.9688   22.9089 C.3     1  UNL1        0.0024
     26 N          -0.1857    3.5292   20.3791 N.am    1  UNL1       -0.2806
     27 C           0.3816    2.1829   20.7189 C.2     1  UNL1        0.2469
     28 O          -0.4482    0.9485   20.5242 O.2     1  UNL1       -0.2727
     29 H           0.3589    4.3394   20.5069 H       1  UNL1        0.1550
     30 C          -4.3769    3.8651   18.7756 C.ar    1  UNL1        0.0163
     31 C          -3.2054    4.0607   17.8594 C.ar    1  UNL1        0.0025
     32 C          -1.8083    3.9487   18.3940 C.ar    1  UNL1        0.0170
     33 C          -1.5828    3.6412   19.8447 C.ar    1  UNL1        0.0782
     34 C          -2.7542    3.4456   20.7609 C.ar    1  UNL1        0.1535
     35 F          -2.5287    3.1380   22.2116 F       1  UNL1       -0.2029
     36 C          -4.1513    3.5575   20.2263 C.ar    1  UNL1        0.0320
     37 O          -6.8270    3.0056   18.6853 O.co2   1  UNL1       -0.5446
     38 C          -5.7740    3.9771   18.2411 C.2     1  UNL1        0.0729
     39 O          -6.1179    5.0606   17.2625 O.co2   1  UNL1       -0.5446
@<TRIPOS>UNITY_ATOM_ATTR
37 1
charge -1
@<TRIPOS>BOND
     1    37    38   ar
     2    38    39   ar
     3    38    30    1
     4    30    31   ar
     5    31    32   ar
     6    32    33   ar
     7    33    26    1
     8    26    27   am
     9    27    28    2
    10    27     1    1
    11     1    20    1
    12    20    21    1
    13    21    22    1
    14    22    23    1
    15    23    24    1
    16    24    25    1
    17     1     2    1
    18     2     3   ar
    19     3    13    1
    20    13    14   ar
    21    14    15   ar
    22    15    16   ar
    23    16    17    1
    24    16    18   ar
    25    18    19   ar
    26     3     4   ar
    27     4     5   ar
    28     5     6   ar
    29     6     7   ar
    30     7     8    1
    31     7     9   ar
    32     9    10    1
    33     9    11   ar
    34    11    12   ar
    35    33    34   ar
    36    34    35    1
    37    34    36   ar
    38    36    30   ar
    39    25    20    1
    40    12     2   ar
    41    19    13   ar
    42    12     5   ar
    43    26    29    1
@<TRIPOS>MOLECULE
*****
 39 43 0 0 0
SMALL
GASTEIGER

@<TRIPOS>ATOM
      1 C           0.6213    3.1093   21.3658 C.3     1  UNL1        0.1631
      2 N           0.7976    2.2012   22.5466 N.ar    1  UNL1       -0.3047
      3 C           1.6956    1.0013   22.6098 C.ar    1  UNL1        0.1441
      4 N           1.5597    0.3921   23.9738 N.ar    1  UNL1       -0.2267
      5 C           0.5778    1.2155   24.7535 C.ar    1  UNL1        0.1010
      6 C           0.0517    1.0915   26.1527 C.ar    1  UNL1        0.0526
      7 C          -0.9454    2.0857   26.6699 C.ar    1  UNL1        0.1690
      8 F          -1.4715    1.9617   28.0692 F       1  UNL1       -0.2017
      9 C          -1.4164    3.2037   25.7878 C.ar    1  UNL1        0.1689
     10 F          -2.4136    4.1979   26.3050 F       1  UNL1       -0.2017
     11 C          -0.8904    3.3277   24.3886 C.ar    1  UNL1        0.0507
     12 C           0.1067    2.3335   23.8714 C.ar    1  UNL1        0.0816
     13 C           2.5750    0.4990   21.5033 C.ar    1  UNL1        0.0342
     14 C           2.0099   -0.4047   20.4479 C.ar    1  UNL1        0.0039
     15 C           2.8893   -0.9071   19.3414 C.ar    1  UNL1        0.0115
     16 C           4.3336   -0.5058   19.2904 C.ar    1  UNL1        0.0577
     17 CL          5.2130   -1.0083   18.1839 Cl      1  UNL1       -0.0822
     18 C           4.8987    0.3978   20.3459 C.ar    1  UNL1        0.0115
     19 C           4.0194    0.9002   21.4524 C.ar    1  UNL1        0.0039
     20 C           1.7974    3.4496   20.4992 C.3     1  UNL1        0.0297
     21 C           1.8550    2.9543   19.0846 C.3     1  UNL1        0.0024
     22 C           3.0312    3.2947   18.2180 C.3     1  UNL1        0.0001
     23 C           4.1496    4.1304   18.7661 C.3     1  UNL1        0.0000
     24 C           4.0921    4.6259   20.1808 C.3     1  UNL1        0.0001
     25 C           2.9159    4.2855   21.0473 C.3     1  UNL1        0.0024
     26 N          -1.8925    2.7588   20.8108 N.am    1  UNL1       -0.2806
     27 C          -0.7311    3.6770   21.0514 C.2     1  UNL1        0.2469
     28 O          -0.9220    5.1630   20.9778 O.2     1  UNL1       -0.2727
     29 H          -1.7672    1.7835   20.8591 H       1  UNL1        0.1550
     30 C          -5.9495    4.4623   19.8677 C.ar    1  UNL1        0.0163
     31 C          -4.9327    4.2989   18.7772 C.ar    1  UNL1        0.0025
     32 C          -3.5803    3.7311   19.0915 C.ar    1  UNL1        0.0170
     33 C          -3.2448    3.3266   20.4965 C.ar    1  UNL1        0.0782
     34 C          -4.2617    3.4899   21.5871 C.ar    1  UNL1        0.1535
     35 F          -3.9262    3.0855   22.9920 F       1  UNL1       -0.2029
     36 C          -5.6140    4.0578   21.2727 C.ar    1  UNL1        0.0320
     37 O          -7.9471    4.7423   18.2303 O.co2   1  UNL1       -0.5446
     38 C          -7.3018    5.0301   19.5534 C.2     1  UNL1        0.0729
     39 O          -8.0089    5.8857   20.5624 O.co2   1  UNL1       -0.5446
@<TRIPOS>UNITY_ATOM_ATTR
37 1
charge -1
@<TRIPOS>BOND
     1    37    38   ar
     2    38    39   ar
     3    38    30    1
     4    30    31   ar
     5    31    32   ar
     6    32    33   ar
     7    33    26    1
     8    26    27   am
     9    27    28    2
    10    27     1    1
    11     1    20    1
    12    20    21    1
    13    21    22    1
    14    22    23    1
    15    23    24    1
    16    24    25    1
    17     1     2    1
    18     2     3   ar
    19     3    13    1
    20    13    14   ar
    21    14    15   ar
    22    15    16   ar
    23    16    17    1
    24    16    18   ar
    25    18    19   ar
    26     3     4   ar
    27     4     5   ar
    28     5     6   ar
    29     6     7   ar
    30     7     8    1
    31     7     9   ar
    32     9    10    1
    33     9    11   ar
    34    11    12   ar
    35    33    34   ar
    36    34    35    1
    37    34    36   ar
    38    36    30   ar
    39    25    20    1
    40    12     2   ar
    41    19    13   ar
    42    12     5   ar
    43    26    29    1
@<TRIPOS>MOLECULE
*****
 39 43 0 0 0
SMALL
GASTEIGER

@<TRIPOS>ATOM
      1 C           5.7754   -1.5807   28.8601 C.3     1  UNL1        0.1631
      2 N           6.2541   -2.9166   29.3464 N.ar    1  UNL1       -0.3047
      3 C           6.3913   -3.3355   30.7801 C.ar    1  UNL1        0.1441
      4 N           6.9016   -4.7458   30.8041 N.ar    1  UNL1       -0.2267
      5 C           7.0798   -5.1985   29.3852 C.ar    1  UNL1        0.1010
      6 C           7.5548   -6.4940   28.7971 C.ar    1  UNL1        0.0526
      7 C           7.6296   -6.6590   27.3081 C.ar    1  UNL1        0.1690
      8 F           8.1046   -7.9547   26.7200 F       1  UNL1       -0.2017
      9 C           7.2295   -5.5285   26.4071 C.ar    1  UNL1        0.1689
     10 F           7.3043   -5.6935   24.9181 F       1  UNL1       -0.2017
     11 C           6.7545   -4.2329   26.9952 C.ar    1  UNL1        0.0507
     12 C           6.6797   -4.0679   28.4842 C.ar    1  UNL1        0.0816
     13 C           6.0738   -2.4922   31.9793 C.ar    1  UNL1        0.0342
     14 C           7.1612   -1.7117   32.6563 C.ar    1  UNL1        0.0039
     15 C           6.8438   -0.8683   33.8555 C.ar    1  UNL1        0.0115
     16 C           5.4391   -0.8056   34.3776 C.ar    1  UNL1        0.0577
     17 CL          5.1217    0.0378   35.5769 Cl      1  UNL1       -0.0822
     18 C           4.3517   -1.5862   33.7006 C.ar    1  UNL1        0.0115
     19 C           4.6690   -2.4295   32.5015 C.ar    1  UNL1        0.0039
     20 C           6.1244   -0.3364   29.6214 C.3     1  UNL1        0.0297
     21 C           7.5474    0.1345   29.6774 C.3     1  UNL1        0.0024
     22 C           7.8963    1.3789   30.4387 C.3     1  UNL1        0.0001
     23 C           6.8222    2.1525   31.1441 C.3     1  UNL1        0.0000
     24 C           5.3990    1.6818   31.0882 C.3     1  UNL1        0.0001
     25 C           5.0502    0.4373   30.3269 C.3     1  UNL1        0.0024
     26 N           5.5838   -1.0734   26.3192 N.am    1  UNL1       -0.2806
     27 C           4.9477   -1.4893   27.6124 C.2     1  UNL1        0.2469
     28 O           3.4839   -1.8138   27.6580 O.2     1  UNL1       -0.2727
     29 H           6.5445   -0.8604   26.2893 H       1  UNL1        0.1550
     30 C           3.1005   -0.7990   22.5765 C.ar    1  UNL1        0.0163
     31 C           3.0500    0.3033   23.5925 C.ar    1  UNL1        0.0025
     32 C           3.8778    0.2118   24.8402 C.ar    1  UNL1        0.0170
     33 C           4.7561   -0.9820   25.0716 C.ar    1  UNL1        0.0782
     34 C           4.8066   -2.0842   24.0556 C.ar    1  UNL1        0.1535
     35 F           5.6849   -3.2780   24.2870 F       1  UNL1       -0.2029
     36 C           3.9789   -1.9927   22.8080 C.ar    1  UNL1        0.0320
     37 O           2.5320   -1.6444   20.1865 O.co2   1  UNL1       -0.5446
     38 C           2.2728   -0.7076   21.3289 C.2     1  UNL1        0.0729
     39 O           1.1858    0.3207   21.2238 O.co2   1  UNL1       -0.5446
@<TRIPOS>UNITY_ATOM_ATTR
37 1
charge -1
@<TRIPOS>BOND
     1    37    38   ar
     2    38    39   ar
     3    38    30    1
     4    30    31   ar
     5    31    32   ar
     6    32    33   ar
     7    33    26    1
     8    26    27   am
     9    27    28    2
    10    27     1    1
    11     1    20    1
    12    20    21    1
    13    21    22    1
    14    22    23    1
    15    23    24    1
    16    24    25    1
    17     1     2    1
    18     2     3   ar
    19     3    13    1
    20    13    14   ar
    21    14    15   ar
    22    15    16   ar
    23    16    17    1
    24    16    18   ar
    25    18    19   ar
    26     3     4   ar
    27     4     5   ar
    28     5     6   ar
    29     6     7   ar
    30     7     8    1
    31     7     9   ar
    32     9    10    1
    33     9    11   ar
    34    11    12   ar
    35    33    34   ar
    36    34    35    1
    37    34    36   ar
    38    36    30   ar
    39    25    20    1
    40    12     2   ar
    41    19    13   ar
    42    12     5   ar
    43    26    29    1
@<TRIPOS>MOLECULE
*****
 39 43 0 0 0
SMALL
GASTEIGER

@<TRIPOS>ATOM
      1 C           5.7028   -1.5685   28.8810 C.3     1  UNL1        0.1631
      2 N           6.2170   -2.8944   29.3583 N.ar    1  UNL1       -0.3047
      3 C           6.3823   -3.3125   30.7893 C.ar    1  UNL1        0.1441
      4 N           6.9235   -4.7114   30.8039 N.ar    1  UNL1       -0.2267
      5 C           7.0927   -5.1577   29.3819 C.ar    1  UNL1        0.1010
      6 C           7.5880   -6.4417   28.7851 C.ar    1  UNL1        0.0526
      7 C           7.6466   -6.6027   27.2949 C.ar    1  UNL1        0.1690
      8 F           8.1419   -7.8867   26.6981 F       1  UNL1       -0.2017
      9 C           7.2099   -5.4797   26.4014 C.ar    1  UNL1        0.1689
     10 F           7.2685   -5.6407   24.9112 F       1  UNL1       -0.2017
     11 C           6.7146   -4.1957   26.9982 C.ar    1  UNL1        0.0507
     12 C           6.6560   -4.0348   28.4884 C.ar    1  UNL1        0.0816
     13 C           6.0625   -2.4783   31.9942 C.ar    1  UNL1        0.0342
     14 C           4.6651   -2.4518   32.5387 C.ar    1  UNL1        0.0039
     15 C           4.3453   -1.6176   33.7436 C.ar    1  UNL1        0.0115
     16 C           5.4229   -0.8098   34.4039 C.ar    1  UNL1        0.0577
     17 CL          5.1030    0.0244   35.6089 Cl      1  UNL1       -0.0822
     18 C           6.8203   -0.8363   33.8595 C.ar    1  UNL1        0.0115
     19 C           7.1402   -1.6705   32.6547 C.ar    1  UNL1        0.0039
     20 C           5.9981   -0.3236   29.6638 C.3     1  UNL1        0.0297
     21 C           7.4000    0.2057   29.7303 C.3     1  UNL1        0.0024
     22 C           7.6953    1.4507   30.5132 C.3     1  UNL1        0.0001
     23 C           6.5887    2.1664   31.2295 C.3     1  UNL1        0.0000
     24 C           5.1867    1.6371   31.1631 C.3     1  UNL1        0.0001
     25 C           4.8915    0.3921   30.3802 C.3     1  UNL1        0.0024
     26 N           5.5557   -1.1200   26.3261 N.am    1  UNL1       -0.2806
     27 C           4.8933   -1.4876   27.6207 C.2     1  UNL1        0.2469
     28 O           3.4213   -1.7744   27.6551 O.2     1  UNL1       -0.2727
     29 H           6.5218   -0.9317   26.3035 H       1  UNL1        0.1550
     30 C           3.1270   -0.8775   22.5455 C.ar    1  UNL1        0.0163
     31 C           4.0043   -2.0676   22.7983 C.ar    1  UNL1        0.0025
     32 C           4.8139   -2.1484   24.0586 C.ar    1  UNL1        0.0170
     33 C           4.7461   -1.0391   25.0659 C.ar    1  UNL1        0.0782
     34 C           3.8689    0.1511   24.8131 C.ar    1  UNL1        0.1535
     35 F           3.8011    1.2604   25.8205 F       1  UNL1       -0.2029
     36 C           3.0593    0.2318   23.5529 C.ar    1  UNL1        0.0320
     37 O           1.1819    0.1783   21.1846 O.co2   1  UNL1       -0.5446
     38 C           2.3175   -0.7966   21.2853 C.2     1  UNL1        0.0729
     39 O           2.6435   -1.6906   20.1258 O.co2   1  UNL1       -0.5446
@<TRIPOS>UNITY_ATOM_ATTR
37 1
charge -1
@<TRIPOS>BOND
     1    37    38   ar
     2    38    39   ar
     3    38    30    1
     4    30    31   ar
     5    31    32   ar
     6    32    33   ar
     7    33    26    1
     8    26    27   am
     9    27    28    2
    10    27     1    1
    11     1    20    1
    12    20    21    1
    13    21    22    1
    14    22    23    1
    15    23    24    1
    16    24    25    1
    17     1     2    1
    18     2     3   ar
    19     3    13    1
    20    13    14   ar
    21    14    15   ar
    22    15    16   ar
    23    16    17    1
    24    16    18   ar
    25    18    19   ar
    26     3     4   ar
    27     4     5   ar
    28     5     6   ar
    29     6     7   ar
    30     7     8    1
    31     7     9   ar
    32     9    10    1
    33     9    11   ar
    34    11    12   ar
    35    33    34   ar
    36    34    35    1
    37    34    36   ar
    38    36    30   ar
    39    25    20    1
    40    12     2   ar
    41    19    13   ar
    42    12     5   ar
    43    26    29    1
@<TRIPOS>MOLECULE
*****
 39 43 0 0 0
SMALL
GASTEIGER

@<TRIPOS>ATOM
      1 C           4.2191    0.1550   28.4960 C.3     1  UNL1        0.1631
      2 N           3.6475    0.2821   29.8770 N.ar    1  UNL1       -0.3047
      3 C           2.2925    0.8242   30.2238 C.ar    1  UNL1        0.1441
      4 N           2.1380    0.7666   31.7147 N.ar    1  UNL1       -0.2267
      5 C           3.3974    0.1889   32.2892 C.ar    1  UNL1        0.1010
      6 C           3.8153   -0.1032   33.6999 C.ar    1  UNL1        0.0526
      7 C           5.1660   -0.6948   33.9748 C.ar    1  UNL1        0.1690
      8 F           5.5839   -0.9869   35.3856 F       1  UNL1       -0.2017
      9 C           6.0990   -0.9942   32.8390 C.ar    1  UNL1        0.1689
     10 F           7.4497   -1.5858   33.1139 F       1  UNL1       -0.2017
     11 C           5.6811   -0.7021   31.4284 C.ar    1  UNL1        0.0507
     12 C           4.3303   -0.1106   31.1535 C.ar    1  UNL1        0.0816
     13 C           1.2715    1.3344   29.2506 C.ar    1  UNL1        0.0342
     14 C           1.2170    2.7960   28.9180 C.ar    1  UNL1        0.0039
     15 C           0.1960    3.3062   27.9448 C.ar    1  UNL1        0.0115
     16 C          -0.7706    2.3548   27.3043 C.ar    1  UNL1        0.0577
     17 CL         -1.7917    2.8650   26.3310 Cl      1  UNL1       -0.0822
     18 C          -0.7162    0.8931   27.6369 C.ar    1  UNL1        0.0115
     19 C           0.3048    0.3829   28.6100 C.ar    1  UNL1        0.0039
     20 C           4.4390    1.3804   27.6595 C.3     1  UNL1        0.0297
     21 C           5.4126    2.4298   28.1078 C.3     1  UNL1        0.0024
     22 C           5.6324    3.6553   27.2713 C.3     1  UNL1        0.0001
     23 C           4.8788    3.8315   25.9864 C.3     1  UNL1        0.0000
     24 C           3.9052    2.7821   25.5380 C.3     1  UNL1        0.0001
     25 C           3.6853    1.5566   26.3746 C.3     1  UNL1        0.0024
     26 N           5.9841   -1.6942   28.0317 N.am    1  UNL1       -0.2806
     27 C           4.5709   -1.1978   27.9515 C.2     1  UNL1        0.2469
     28 O           3.5095   -2.0541   27.3268 O.2     1  UNL1       -0.2727
     29 H           6.6808   -1.1322   28.4417 H       1  UNL1        0.1550
     30 C           7.0393   -5.7523   26.3980 C.ar    1  UNL1        0.0163
     31 C           6.8655   -4.5903   25.4654 C.ar    1  UNL1        0.0025
     32 C           6.5138   -3.2376   26.0100 C.ar    1  UNL1        0.0170
     33 C           6.3359   -3.0469   27.4872 C.ar    1  UNL1        0.0782
     34 C           6.5096   -4.2088   28.4197 C.ar    1  UNL1        0.1535
     35 F           6.3317   -4.0181   29.8969 F       1  UNL1       -0.2029
     36 C           6.8613   -5.5615   27.8751 C.ar    1  UNL1        0.0320
     37 O           6.6274   -8.3157   26.3017 O.co2   1  UNL1       -0.5446
     38 C           7.3910   -7.1050   25.8535 C.2     1  UNL1        0.0729
     39 O           8.5064   -7.2469   24.8606 O.co2   1  UNL1       -0.5446
@<TRIPOS>UNITY_ATOM_ATTR
37 1
charge -1
@<TRIPOS>BOND
     1    37    38   ar
     2    38    39   ar
     3    38    30    1
     4    30    31   ar
     5    31    32   ar
     6    32    33   ar
     7    33    26    1
     8    26    27   am
     9    27    28    2
    10    27     1    1
    11     1    20    1
    12    20    21    1
    13    21    22    1
    14    22    23    1
    15    23    24    1
    16    24    25    1
    17     1     2    1
    18     2     3   ar
    19     3    13    1
    20    13    14   ar
    21    14    15   ar
    22    15    16   ar
    23    16    17    1
    24    16    18   ar
    25    18    19   ar
    26     3     4   ar
    27     4     5   ar
    28     5     6   ar
    29     6     7   ar
    30     7     8    1
    31     7     9   ar
    32     9    10    1
    33     9    11   ar
    34    11    12   ar
    35    33    34   ar
    36    34    35    1
    37    34    36   ar
    38    36    30   ar
    39    25    20    1
    40    12     2   ar
    41    19    13   ar
    42    12     5   ar
    43    26    29    1
@<TRIPOS>MOLECULE
*****
 39 43 0 0 0
SMALL
GASTEIGER

@<TRIPOS>ATOM
      1 C           5.8278   -2.0939   22.8308 C.3     1  UNL1        0.1631
      2 N           6.8523   -3.0998   22.3966 N.ar    1  UNL1       -0.3047
      3 C           7.6246   -3.0730   21.1109 C.ar    1  UNL1        0.1441
      4 N           8.5340   -4.2657   21.0915 N.ar    1  UNL1       -0.2267
      5 C           8.3238   -5.0296   22.3652 C.ar    1  UNL1        0.1010
      6 C           8.9445   -6.2883   22.8948 C.ar    1  UNL1        0.0526
      7 C           8.5259   -6.8264   24.2309 C.ar    1  UNL1        0.1690
      8 F           9.1466   -8.0851   24.7605 F       1  UNL1       -0.2017
      9 C           7.4865   -6.1058   25.0375 C.ar    1  UNL1        0.1689
     10 F           7.0679   -6.6439   26.3736 F       1  UNL1       -0.2017
     11 C           6.8658   -4.8472   24.5079 C.ar    1  UNL1        0.0507
     12 C           7.2845   -4.3091   23.1718 C.ar    1  UNL1        0.0816
     13 C           7.5079   -2.0356   20.0338 C.ar    1  UNL1        0.0342
     14 C           8.2375   -0.7317   20.1661 C.ar    1  UNL1        0.0039
     15 C           8.1208    0.3056   19.0890 C.ar    1  UNL1        0.0115
     16 C           7.2745    0.0391   17.8796 C.ar    1  UNL1        0.0577
     17 CL          7.1578    1.0766   16.8024 Cl      1  UNL1       -0.0822
     18 C           6.5449   -1.2648   17.7473 C.ar    1  UNL1        0.0115
     19 C           6.6616   -2.3022   18.8243 C.ar    1  UNL1        0.0039
     20 C           4.8813   -1.5060   21.8266 C.3     1  UNL1        0.0297
     21 C           3.9149   -2.3924   21.0983 C.3     1  UNL1        0.0024
     22 C           2.9684   -1.8044   20.0941 C.3     1  UNL1        0.0001
     23 C           2.9882   -0.3302   19.8182 C.3     1  UNL1        0.0000
     24 C           3.9545    0.5562   20.5466 C.3     1  UNL1        0.0001
     25 C           4.9011   -0.0317   21.5508 C.3     1  UNL1        0.0024
     26 N           4.5899   -2.1111   25.1150 N.am    1  UNL1       -0.2806
     27 C           5.7498   -1.6758   24.2693 C.2     1  UNL1        0.2469
     28 O           6.8317   -0.8225   24.8621 O.2     1  UNL1       -0.2727
     29 H           3.8798   -2.6711   24.7260 H       1  UNL1        0.1550
     30 C           4.3561   -0.8567   29.4304 C.ar    1  UNL1        0.0163
     31 C           3.3756   -0.3091   28.4359 C.ar    1  UNL1        0.0025
     32 C           3.4536   -0.7273   26.9974 C.ar    1  UNL1        0.0170
     33 C           4.5120   -1.6930   26.5534 C.ar    1  UNL1        0.0782
     34 C           5.4925   -2.2406   27.5478 C.ar    1  UNL1        0.1535
     35 F           6.5509   -3.2063   27.1038 F       1  UNL1       -0.2029
     36 C           5.4145   -1.8224   28.9863 C.ar    1  UNL1        0.0320
     37 O           3.3609   -1.1602   31.8110 O.co2   1  UNL1       -0.5446
     38 C           4.2782   -0.4386   30.8688 C.2     1  UNL1        0.0729
     39 O           5.1177    0.7012   31.3650 O.co2   1  UNL1       -0.5446
@<TRIPOS>UNITY_ATOM_ATTR
37 1
charge -1
@<TRIPOS>BOND
     1    37    38   ar
     2    38    39   ar
     3    38    30    1
     4    30    31   ar
     5    31    32   ar
     6    32    33   ar
     7    33    26    1
     8    26    27   am
     9    27    28    2
    10    27     1    1
    11     1    20    1
    12    20    21    1
    13    21    22    1
    14    22    23    1
    15    23    24    1
    16    24    25    1
    17     1     2    1
    18     2     3   ar
    19     3    13    1
    20    13    14   ar
    21    14    15   ar
    22    15    16   ar
    23    16    17    1
    24    16    18   ar
    25    18    19   ar
    26     3     4   ar
    27     4     5   ar
    28     5     6   ar
    29     6     7   ar
    30     7     8    1
    31     7     9   ar
    32     9    10    1
    33     9    11   ar
    34    11    12   ar
    35    33    34   ar
    36    34    35    1
    37    34    36   ar
    38    36    30   ar
    39    25    20    1
    40    12     2   ar
    41    19    13   ar
    42    12     5   ar
    43    26    29    1
@<TRIPOS>MOLECULE
*****
 39 43 0 0 0
SMALL
GASTEIGER

@<TRIPOS>ATOM
      1 C           1.7975    1.8029   20.7617 C.3     1  UNL1        0.1631
      2 N           2.3513    0.6604   21.5606 N.ar    1  UNL1       -0.3047
      3 C           2.2613    0.5003   23.0493 C.ar    1  UNL1        0.1441
      4 N           2.9467   -0.7815   23.4198 N.ar    1  UNL1       -0.2267
      5 C           3.4602   -1.4135   22.1601 C.ar    1  UNL1        0.1010
      6 C           4.2154   -2.6853   21.9109 C.ar    1  UNL1        0.0526
      7 C           4.6026   -3.0660   20.5126 C.ar    1  UNL1        0.1690
      8 F           5.3578   -4.3379   20.2634 F       1  UNL1       -0.2017
      9 C           4.2346   -2.1748   19.3635 C.ar    1  UNL1        0.1689
     10 F           4.6218   -2.5554   17.9652 F       1  UNL1       -0.2017
     11 C           3.4795   -0.9030   19.6127 C.ar    1  UNL1        0.0507
     12 C           3.0923   -0.5223   21.0110 C.ar    1  UNL1        0.0816
     13 C           1.6017    1.4543   24.0004 C.ar    1  UNL1        0.0342
     14 C           0.2715    1.1126   24.6035 C.ar    1  UNL1        0.0039
     15 C          -0.3880    2.0667   25.5547 C.ar    1  UNL1        0.0115
     16 C           0.2826    3.3624   25.9027 C.ar    1  UNL1        0.0577
     17 CL         -0.3770    4.3165   26.8539 Cl      1  UNL1       -0.0822
     18 C           1.6128    3.7041   25.2996 C.ar    1  UNL1        0.0115
     19 C           2.2724    2.7501   24.3485 C.ar    1  UNL1        0.0039
     20 C           2.7272    2.7880   20.1176 C.3     1  UNL1        0.0297
     21 C           2.9683    2.7351   18.6380 C.3     1  UNL1        0.0024
     22 C           3.8981    3.7203   17.9939 C.3     1  UNL1        0.0001
     23 C           4.5869    4.7584   18.8293 C.3     1  UNL1        0.0000
     24 C           4.3459    4.8113   20.3089 C.3     1  UNL1        0.0001
     25 C           3.4161    3.8261   20.9530 C.3     1  UNL1        0.0024
     26 N          -0.2872    3.3296   20.4905 N.am    1  UNL1       -0.2806
     27 C           0.3137    1.9602   20.6070 C.2     1  UNL1        0.2469
     28 O          -0.5691    0.7480   20.5687 O.2     1  UNL1       -0.2727
     29 H           0.2921    4.1252   20.5156 H       1  UNL1        0.1550
     30 C          -4.7383    3.8012   20.0264 C.ar    1  UNL1        0.0163
     31 C          -4.1525    3.5000   21.3740 C.ar    1  UNL1        0.0025
     32 C          -2.6687    3.3428   21.5287 C.ar    1  UNL1        0.0170
     33 C          -1.7709    3.4868   20.3357 C.ar    1  UNL1        0.0782
     34 C          -2.3567    3.7880   18.9881 C.ar    1  UNL1        0.1535
     35 F          -1.4589    3.9319   17.7952 F       1  UNL1       -0.2029
     36 C          -3.8404    3.9451   18.8335 C.ar    1  UNL1        0.0320
     37 O          -6.9382    3.2572   18.7557 O.co2   1  UNL1       -0.5446
     38 C          -6.2220    3.9584   19.8717 C.2     1  UNL1        0.0729
     39 O          -6.9895    4.8168   20.8330 O.co2   1  UNL1       -0.5446
@<TRIPOS>UNITY_ATOM_ATTR
37 1
charge -1
@<TRIPOS>BOND
     1    37    38   ar
     2    38    39   ar
     3    38    30    1
     4    30    31   ar
     5    31    32   ar
     6    32    33   ar
     7    33    26    1
     8    26    27   am
     9    27    28    2
    10    27     1    1
    11     1    20    1
    12    20    21    1
    13    21    22    1
    14    22    23    1
    15    23    24    1
    16    24    25    1
    17     1     2    1
    18     2     3   ar
    19     3    13    1
    20    13    14   ar
    21    14    15   ar
    22    15    16   ar
    23    16    17    1
    24    16    18   ar
    25    18    19   ar
    26     3     4   ar
    27     4     5   ar
    28     5     6   ar
    29     6     7   ar
    30     7     8    1
    31     7     9   ar
    32     9    10    1
    33     9    11   ar
    34    11    12   ar
    35    33    34   ar
    36    34    35    1
    37    34    36   ar
    38    36    30   ar
    39    25    20    1
    40    12     2   ar
    41    19    13   ar
    42    12     5   ar
    43    26    29    1
