@<TRIPOS>MOLECULE
*****
 29 32 0 0 0
SMALL
GASTEIGER

@<TRIPOS>ATOM
      1 C          -7.9905  -16.9049   21.8955 C.ar    1  UNL1        0.1361
      2 N          -6.8515  -17.7999   21.5064 N.ar    1  UNL1       -0.2131
      3 C          -7.1271  -19.1503   20.9143 C.ar    1  UNL1        0.1714
      4 N          -8.5418  -19.6056   20.7112 N.ar    1  UNL1       -0.2279
      5 C          -9.6809  -18.7105   21.1002 C.ar    1  UNL1        0.0854
      6 C         -11.0956  -19.1658   20.8971 C.ar    1  UNL1        0.0192
      7 C         -12.2347  -18.2708   21.2862 C.ar    1  UNL1        0.0015
      8 C         -11.9591  -16.9204   21.8783 C.ar    1  UNL1        0.0002
      9 C         -10.5444  -16.4651   22.0814 C.ar    1  UNL1        0.0043
     10 C          -9.4053  -17.3602   21.6924 C.ar    1  UNL1        0.0494
     11 C          -5.9879  -20.0453   20.5252 C.3     1  UNL1        0.1912
     12 O          -6.2542  -21.4644   20.1187 O.3     1  UNL1       -0.3730
     13 H          -7.2072  -21.6397   20.1619 H       1  UNL1        0.2113
     14 C          -4.5826  -19.5212   20.5427 C.ar    1  UNL1        0.0117
     15 C          -4.0256  -18.8280   19.3348 C.ar    1  UNL1        0.0008
     16 C          -2.6202  -18.3039   19.3522 C.ar    1  UNL1        0.0294
     17 C          -1.7718  -18.4731   20.5777 C.ar    1  UNL1        0.1401
     18 F          -0.3665  -17.9490   20.5952 F       1  UNL1       -0.2042
     19 C          -2.3289  -19.1663   21.7857 C.ar    1  UNL1        0.0294
     20 C          -3.7343  -19.6904   21.7682 C.ar    1  UNL1        0.0008
     21 N          -7.7149  -15.5546   22.4876 N.pl3   1  UNL1       -0.2819
     22 H          -7.7057  -14.7567   21.9109 H       1  UNL1        0.1551
     23 C          -8.2696  -15.8199   27.7319 C.3     1  UNL1        0.0515
     24 C          -7.7082  -15.5418   26.3690 C.ar    1  UNL1        0.0548
     25 C          -8.3634  -15.8735   25.0610 C.ar    1  UNL1        0.0502
     26 C          -7.4532  -15.4198   23.9584 C.ar    1  UNL1        0.1539
     27 N          -6.2355  -14.8078   24.5849 N.ar    1  UNL1       -0.1577
     28 N          -6.3930  -14.8831   26.0747 N.ar    1  UNL1       -0.2786
     29 H          -5.7467  -14.5575   26.7422 H       1  UNL1        0.1886
@<TRIPOS>BOND
     1    23    24    1
     2    24    25   ar
     3    25    26   ar
     4    26    21    1
     5    21     1    1
     6     1     2   ar
     7     2     3   ar
     8     3    11    1
     9    11    12    1
    10    11    14    1
    11    14    15   ar
    12    15    16   ar
    13    16    17   ar
    14    17    18    1
    15    17    19   ar
    16    19    20   ar
    17     3     4   ar
    18     4     5   ar
    19     5     6   ar
    20     6     7   ar
    21     7     8   ar
    22     8     9   ar
    23     9    10   ar
    24    26    27   ar
    25    27    28   ar
    26    28    24   ar
    27    10     1   ar
    28    20    14   ar
    29    10     5   ar
    30    21    22    1
    31    12    13    1
    32    28    29    1
@<TRIPOS>MOLECULE
*****
 29 32 0 0 0
SMALL
GASTEIGER

@<TRIPOS>ATOM
      1 C          -8.4749  -18.4276   22.7918 C.ar    1  UNL1        0.1361
      2 N          -7.5936  -19.2704   21.9182 N.ar    1  UNL1       -0.2131
      3 C          -6.1298  -18.9614   21.8091 C.ar    1  UNL1        0.1714
      4 N          -5.5473  -17.8098   22.5735 N.ar    1  UNL1       -0.2279
      5 C          -6.4286  -16.9670   23.4471 C.ar    1  UNL1        0.0854
      6 C          -5.8461  -15.8153   24.2115 C.ar    1  UNL1        0.0192
      7 C          -6.7274  -14.9726   25.0850 C.ar    1  UNL1        0.0015
      8 C          -8.1912  -15.2815   25.1942 C.ar    1  UNL1        0.0002
      9 C          -8.7737  -16.4332   24.4298 C.ar    1  UNL1        0.0043
     10 C          -7.8924  -17.2759   23.5562 C.ar    1  UNL1        0.0494
     11 C          -5.2485  -19.8042   20.9355 C.3     1  UNL1        0.1912
     12 O          -5.7506  -21.1145   20.4053 O.3     1  UNL1       -0.3730
     13 H          -6.6559  -21.2649   20.7195 H       1  UNL1        0.2113
     14 C          -3.8653  -19.3367   20.5921 C.ar    1  UNL1        0.0117
     15 C          -3.6162  -18.6160   19.3004 C.ar    1  UNL1        0.0008
     16 C          -2.2330  -18.1485   18.9570 C.ar    1  UNL1        0.0294
     17 C          -1.0987  -18.4017   19.9053 C.ar    1  UNL1        0.1401
     18 F           0.2846  -17.9342   19.5619 F       1  UNL1       -0.2042
     19 C          -1.3477  -19.1224   21.1971 C.ar    1  UNL1        0.0294
     20 C          -2.7311  -19.5899   21.5405 C.ar    1  UNL1        0.0008
     21 N          -9.9387  -18.7366   22.9009 N.pl3   1  UNL1       -0.2819
     22 H         -10.2538  -19.4028   23.5536 H       1  UNL1        0.1551
     23 C         -12.0020  -15.6292   19.1637 C.3     1  UNL1        0.0515
     24 C         -11.8707  -16.6021   20.2978 C.ar    1  UNL1        0.0548
     25 C         -10.5859  -17.0626   20.9201 C.ar    1  UNL1        0.0502
     26 C         -10.9223  -18.0304   22.0156 C.ar    1  UNL1        0.1539
     27 N         -12.4150  -18.1681   22.0703 N.ar    1  UNL1       -0.1577
     28 N         -13.0011  -17.2854   21.0087 N.ar    1  UNL1       -0.2786
     29 H         -13.9595  -17.1740   20.8128 H       1  UNL1        0.1886
@<TRIPOS>BOND
     1    23    24    1
     2    24    25   ar
     3    25    26   ar
     4    26    21    1
     5    21     1    1
     6     1     2   ar
     7     2     3   ar
     8     3    11    1
     9    11    12    1
    10    11    14    1
    11    14    15   ar
    12    15    16   ar
    13    16    17   ar
    14    17    18    1
    15    17    19   ar
    16    19    20   ar
    17     3     4   ar
    18     4     5   ar
    19     5     6   ar
    20     6     7   ar
    21     7     8   ar
    22     8     9   ar
    23     9    10   ar
    24    26    27   ar
    25    27    28   ar
    26    28    24   ar
    27    10     1   ar
    28    20    14   ar
    29    10     5   ar
    30    21    22    1
    31    12    13    1
    32    28    29    1
@<TRIPOS>MOLECULE
*****
 29 32 0 0 0
SMALL
GASTEIGER

@<TRIPOS>ATOM
      1 C          -8.5505  -17.7723   22.1180 C.ar    1  UNL1        0.1361
      2 N          -7.6884  -18.6956   21.3092 N.ar    1  UNL1       -0.2131
      3 C          -6.2042  -18.7179   21.5258 C.ar    1  UNL1        0.1714
      4 N          -5.5823  -17.8169   22.5511 N.ar    1  UNL1       -0.2279
      5 C          -6.4444  -16.8936   23.3599 C.ar    1  UNL1        0.0854
      6 C          -5.8225  -15.9926   24.3853 C.ar    1  UNL1        0.0192
      7 C          -6.6846  -15.0693   25.1940 C.ar    1  UNL1        0.0015
      8 C          -8.1687  -15.0469   24.9775 C.ar    1  UNL1        0.0002
      9 C          -8.7907  -15.9479   23.9521 C.ar    1  UNL1        0.0043
     10 C          -7.9285  -16.8712   23.1434 C.ar    1  UNL1        0.0494
     11 C          -5.3421  -19.6413   20.7169 C.3     1  UNL1        0.1912
     12 O          -5.9087  -20.9257   20.1884 O.3     1  UNL1       -0.3730
     13 H          -6.8371  -21.0045   20.4578 H       1  UNL1        0.2113
     14 C          -3.9134  -19.2803   20.4367 C.ar    1  UNL1        0.0117
     15 C          -2.8345  -19.6899   21.3949 C.ar    1  UNL1        0.0008
     16 C          -1.4059  -19.3289   21.1147 C.ar    1  UNL1        0.0294
     17 C          -1.0560  -18.5582   19.8762 C.ar    1  UNL1        0.1401
     18 F           0.3726  -18.1972   19.5960 F       1  UNL1       -0.2042
     19 C          -2.1349  -18.1486   18.9180 C.ar    1  UNL1        0.0294
     20 C          -3.5637  -18.5097   19.1983 C.ar    1  UNL1        0.0008
     21 N         -10.0346  -17.7499   21.9014 N.pl3   1  UNL1       -0.2819
     22 H         -10.4016  -17.4528   21.0376 H       1  UNL1        0.1551
     23 C         -14.3573  -18.3873   24.8660 C.3     1  UNL1        0.0515
     24 C         -12.9465  -18.4733   24.3637 C.ar    1  UNL1        0.0548
     25 C         -12.4150  -17.8357   23.1143 C.ar    1  UNL1        0.0502
     26 C         -10.9596  -18.1803   23.0010 C.ar    1  UNL1        0.1539
     27 N         -10.5915  -19.0309   24.1805 N.ar    1  UNL1       -0.1577
     28 N         -11.8194  -19.2120   25.0227 N.ar    1  UNL1       -0.2786
     29 H         -11.8758  -19.7254   25.8608 H       1  UNL1        0.1886
@<TRIPOS>BOND
     1    23    24    1
     2    24    25   ar
     3    25    26   ar
     4    26    21    1
     5    21     1    1
     6     1     2   ar
     7     2     3   ar
     8     3    11    1
     9    11    12    1
    10    11    14    1
    11    14    15   ar
    12    15    16   ar
    13    16    17   ar
    14    17    18    1
    15    17    19   ar
    16    19    20   ar
    17     3     4   ar
    18     4     5   ar
    19     5     6   ar
    20     6     7   ar
    21     7     8   ar
    22     8     9   ar
    23     9    10   ar
    24    26    27   ar
    25    27    28   ar
    26    28    24   ar
    27    10     1   ar
    28    20    14   ar
    29    10     5   ar
    30    21    22    1
    31    12    13    1
    32    28    29    1
@<TRIPOS>MOLECULE
*****
 29 32 0 0 0
SMALL
GASTEIGER

@<TRIPOS>ATOM
      1 C          -6.4124  -15.4872   23.5631 C.ar    1  UNL1        0.1361
      2 N          -7.3753  -15.8134   22.4602 N.ar    1  UNL1       -0.2131
      3 C          -8.7693  -16.2590   22.7890 C.ar    1  UNL1        0.1714
      4 N          -9.2005  -16.3785   24.2207 N.ar    1  UNL1       -0.2279
      5 C          -8.2375  -16.0524   25.3237 C.ar    1  UNL1        0.0854
      6 C          -8.6687  -16.1719   26.7554 C.ar    1  UNL1        0.0192
      7 C          -7.7057  -15.8458   27.8583 C.ar    1  UNL1        0.0015
      8 C          -6.3117  -15.4001   27.5294 C.ar    1  UNL1        0.0002
      9 C          -5.8806  -15.2806   26.0977 C.ar    1  UNL1        0.0043
     10 C          -6.8435  -15.6067   24.9949 C.ar    1  UNL1        0.0494
     11 C          -9.7323  -16.5851   21.6860 C.3     1  UNL1        0.1912
     12 O         -10.9304  -15.7129   21.4541 O.3     1  UNL1       -0.3730
     13 H         -10.9325  -14.9883   22.0990 H       1  UNL1        0.2113
     14 C          -9.4971  -17.7834   20.8150 C.ar    1  UNL1        0.0117
     15 C         -10.5970  -18.2982   19.9346 C.ar    1  UNL1        0.0008
     16 C         -10.3618  -19.4965   19.0636 C.ar    1  UNL1        0.0294
     17 C          -9.0266  -20.1801   19.0729 C.ar    1  UNL1        0.1401
     18 F          -8.7914  -21.3783   18.2019 F       1  UNL1       -0.2042
     19 C          -7.9266  -19.6652   19.9533 C.ar    1  UNL1        0.0294
     20 C          -8.1619  -18.4669   20.8243 C.ar    1  UNL1        0.0008
     21 N          -5.0184  -15.0416   23.2343 N.pl3   1  UNL1       -0.2819
     22 H          -4.7614  -14.0991   23.3558 H       1  UNL1        0.1551
     23 C          -2.6083  -19.5827   22.0300 C.3     1  UNL1        0.0515
     24 C          -2.9082  -18.1193   22.1667 C.ar    1  UNL1        0.0548
     25 C          -4.1302  -17.5254   22.8023 C.ar    1  UNL1        0.0502
     26 C          -4.0160  -16.0320   22.7202 C.ar    1  UNL1        0.1539
     27 N          -2.7234  -15.7030   22.0339 N.ar    1  UNL1       -0.1577
     28 N          -2.0387  -16.9930   21.6918 N.ar    1  UNL1       -0.2786
     29 H          -1.1711  -17.0844   21.2357 H       1  UNL1        0.1886
@<TRIPOS>BOND
     1    23    24    1
     2    24    25   ar
     3    25    26   ar
     4    26    21    1
     5    21     1    1
     6     1     2   ar
     7     2     3   ar
     8     3    11    1
     9    11    12    1
    10    11    14    1
    11    14    15   ar
    12    15    16   ar
    13    16    17   ar
    14    17    18    1
    15    17    19   ar
    16    19    20   ar
    17     3     4   ar
    18     4     5   ar
    19     5     6   ar
    20     6     7   ar
    21     7     8   ar
    22     8     9   ar
    23     9    10   ar
    24    26    27   ar
    25    27    28   ar
    26    28    24   ar
    27    10     1   ar
    28    20    14   ar
    29    10     5   ar
    30    21    22    1
    31    12    13    1
    32    28    29    1
@<TRIPOS>MOLECULE
*****
 29 32 0 0 0
SMALL
GASTEIGER

@<TRIPOS>ATOM
      1 C          -5.9700  -15.7489   23.6958 C.ar    1  UNL1        0.1361
      2 N          -6.8761  -16.4156   22.7036 N.ar    1  UNL1       -0.2131
      3 C          -8.2515  -16.8488   23.1168 C.ar    1  UNL1        0.1714
      4 N          -8.7208  -16.6151   24.5221 N.ar    1  UNL1       -0.2279
      5 C          -7.8148  -15.9484   25.5144 C.ar    1  UNL1        0.0854
      6 C          -8.2841  -15.7148   26.9198 C.ar    1  UNL1        0.0192
      7 C          -7.3781  -15.0480   27.9120 C.ar    1  UNL1        0.0015
      8 C          -6.0027  -14.6149   27.4988 C.ar    1  UNL1        0.0002
      9 C          -5.5333  -14.8485   26.0935 C.ar    1  UNL1        0.0043
     10 C          -6.4394  -15.5153   25.1013 C.ar    1  UNL1        0.0494
     11 C          -9.1575  -17.5155   22.1245 C.3     1  UNL1        0.1912
     12 O          -8.6209  -17.9503   20.7929 O.3     1  UNL1       -0.3730
     13 H          -7.6785  -17.7277   20.7358 H       1  UNL1        0.2113
     14 C         -10.6001  -17.7474   22.4637 C.ar    1  UNL1        0.0117
     15 C         -11.6695  -17.3969   21.4720 C.ar    1  UNL1        0.0008
     16 C         -13.1121  -17.6289   21.8113 C.ar    1  UNL1        0.0294
     17 C         -13.4853  -18.2113   23.1423 C.ar    1  UNL1        0.1401
     18 F         -14.9279  -18.4432   23.4816 F       1  UNL1       -0.2042
     19 C         -12.4159  -18.5618   24.1340 C.ar    1  UNL1        0.0294
     20 C         -10.9732  -18.3298   23.7947 C.ar    1  UNL1        0.0008
     21 N          -4.5946  -15.3158   23.2827 N.pl3   1  UNL1       -0.2819
     22 H          -4.3024  -14.3889   23.4399 H       1  UNL1        0.1551
     23 C          -2.3677  -19.8297   21.6870 C.3     1  UNL1        0.0515
     24 C          -2.6408  -18.3697   21.8965 C.ar    1  UNL1        0.0548
     25 C          -3.7775  -17.7896   22.6848 C.ar    1  UNL1        0.0502
     26 C          -3.6644  -16.2949   22.6299 C.ar    1  UNL1        0.1539
     27 N          -2.4578  -15.9512   21.8077 N.ar    1  UNL1       -0.1577
     28 N          -1.8252  -17.2334   21.3544 N.ar    1  UNL1       -0.2786
     29 H          -1.0166  -17.3150   20.7987 H       1  UNL1        0.1886
@<TRIPOS>BOND
     1    23    24    1
     2    24    25   ar
     3    25    26   ar
     4    26    21    1
     5    21     1    1
     6     1     2   ar
     7     2     3   ar
     8     3    11    1
     9    11    12    1
    10    11    14    1
    11    14    15   ar
    12    15    16   ar
    13    16    17   ar
    14    17    18    1
    15    17    19   ar
    16    19    20   ar
    17     3     4   ar
    18     4     5   ar
    19     5     6   ar
    20     6     7   ar
    21     7     8   ar
    22     8     9   ar
    23     9    10   ar
    24    26    27   ar
    25    27    28   ar
    26    28    24   ar
    27    10     1   ar
    28    20    14   ar
    29    10     5   ar
    30    21    22    1
    31    12    13    1
    32    28    29    1
@<TRIPOS>MOLECULE
*****
 29 32 0 0 0
SMALL
GASTEIGER

@<TRIPOS>ATOM
      1 C         -13.8175   -6.3796   18.3230 C.ar    1  UNL1        0.1361
      2 N         -14.3724   -5.1769   19.0270 N.ar    1  UNL1       -0.2131
      3 C         -13.4464   -4.2115   19.7057 C.ar    1  UNL1        0.1714
      4 N         -11.9656   -4.4488   19.6804 N.ar    1  UNL1       -0.2279
      5 C         -11.4106   -5.6515   18.9764 C.ar    1  UNL1        0.0854
      6 C          -9.9297   -5.8887   18.9511 C.ar    1  UNL1        0.0192
      7 C          -9.3748   -7.0914   18.2471 C.ar    1  UNL1        0.0015
      8 C         -10.3007   -8.0568   17.5684 C.ar    1  UNL1        0.0002
      9 C         -11.7816   -7.8195   17.5937 C.ar    1  UNL1        0.0043
     10 C         -12.3365   -6.6169   18.2977 C.ar    1  UNL1        0.0494
     11 C         -14.0014   -3.0088   20.4097 C.3     1  UNL1        0.1912
     12 O         -14.2046   -3.0369   21.8956 O.3     1  UNL1       -0.3730
     13 H         -13.9291   -3.8995   22.2433 H       1  UNL1        0.2113
     14 C         -14.3533   -1.7780   19.6277 C.ar    1  UNL1        0.0117
     15 C         -13.4046   -1.2504   18.5926 C.ar    1  UNL1        0.0008
     16 C         -13.7564   -0.0197   17.8107 C.ar    1  UNL1        0.0294
     17 C         -15.0570    0.6835   18.0639 C.ar    1  UNL1        0.1401
     18 F         -15.4089    1.9143   17.2820 F       1  UNL1       -0.2042
     19 C         -16.0057    0.1559   19.0991 C.ar    1  UNL1        0.0294
     20 C         -15.6538   -1.0750   19.8810 C.ar    1  UNL1        0.0008
     21 N         -14.7434   -7.3450   17.6443 N.pl3   1  UNL1       -0.2819
     22 H         -14.7203   -7.4435   16.6650 H       1  UNL1        0.1551
     23 C         -19.0764   -8.8901   20.2362 C.3     1  UNL1        0.0515
     24 C         -17.6963   -8.8704   19.6490 C.ar    1  UNL1        0.0548
     25 C         -17.0988   -7.7587   18.8382 C.ar    1  UNL1        0.0502
     26 C         -15.7046   -8.1602   18.4576 C.ar    1  UNL1        0.1539
     27 N         -15.4403   -9.5199   19.0331 N.ar    1  UNL1       -0.1577
     28 N         -16.6712   -9.9589   19.7694 N.ar    1  UNL1       -0.2786
     29 H         -16.7861  -10.8117   20.2478 H       1  UNL1        0.1886
@<TRIPOS>BOND
     1    23    24    1
     2    24    25   ar
     3    25    26   ar
     4    26    21    1
     5    21     1    1
     6     1     2   ar
     7     2     3   ar
     8     3    11    1
     9    11    12    1
    10    11    14    1
    11    14    15   ar
    12    15    16   ar
    13    16    17   ar
    14    17    18    1
    15    17    19   ar
    16    19    20   ar
    17     3     4   ar
    18     4     5   ar
    19     5     6   ar
    20     6     7   ar
    21     7     8   ar
    22     8     9   ar
    23     9    10   ar
    24    26    27   ar
    25    27    28   ar
    26    28    24   ar
    27    10     1   ar
    28    20    14   ar
    29    10     5   ar
    30    21    22    1
    31    12    13    1
    32    28    29    1
