@<TRIPOS>MOLECULE
*****
 34 38 0 0 0
SMALL
GASTEIGER

@<TRIPOS>ATOM
      1 N           3.5499   -0.2981   19.0624 N.ar    1  UNL1       -0.2815
      2 C           4.4324   -0.9303   18.0272 C.ar    1  UNL1        0.3316
      3 O           4.3567   -0.7033   16.5464 O.2     1  UNL1       -0.2463
      4 N           5.4040   -1.8292   18.7329 N.ar    1  UNL1       -0.2765
      5 C           6.4705   -2.6591   18.0816 C.3     1  UNL1        0.1352
      6 C           5.1219   -1.7526   20.2041 C.ar    1  UNL1        0.0989
      7 C           5.7605   -2.4223   21.3847 C.ar    1  UNL1        0.1175
      8 N           5.2531   -2.1457   22.7689 N.ar    1  UNL1       -0.2422
      9 C           4.1072   -1.1994   22.9726 C.ar    1  UNL1        0.0828
     10 C           3.5998   -0.9229   24.3568 C.ar    1  UNL1        0.0191
     11 C           2.4539    0.0234   24.5604 C.ar    1  UNL1        0.0016
     12 C           1.8154    0.6930   23.3798 C.ar    1  UNL1        0.0016
     13 C           2.3227    0.4165   21.9956 C.ar    1  UNL1        0.0030
     14 C           3.4686   -0.5298   21.7920 C.ar    1  UNL1        0.0350
     15 C           3.9760   -0.8064   20.4077 C.ar    1  UNL1        0.0826
     16 C           0.6694    1.6393   23.5835 C.ar    1  UNL1        0.0194
     17 C           0.0245    1.7569   24.9326 C.ar    1  UNL1        0.0063
     18 C          -1.1214    2.7032   25.1363 C.ar    1  UNL1        0.0577
     19 C          -1.6224    3.5318   23.9907 C.ar    1  UNL1        0.2249
     20 N          -0.9775    3.4142   22.6415 N.ar    1  UNL1       -0.2101
     21 C           0.1684    2.4680   22.4379 C.ar    1  UNL1        0.1020
     22 O          -2.7683    4.4781   24.1943 O.3     1  UNL1       -0.4602
     23 C          -4.1215    3.9482   24.5658 C.3     1  UNL1        0.2085
     24 C          -4.8687    3.0642   23.6117 C.3     1  UNL1        0.0647
     25 C          -5.8188    3.6659   22.6191 C.3     1  UNL1        0.0760
     26 N          -5.4280    3.7696   21.1746 N.3     1  UNL1       -0.2702
     27 C          -4.0833    3.2804   20.7245 C.3     1  UNL1        0.0897
     28 C          -6.3818    4.3625   20.1803 C.3     1  UNL1        0.0897
     29 C           0.8622    2.0437   18.4252 C.3     1  UNL1        0.1191
     30 C           2.3549    2.1459   18.5327 C.3     1  UNL1        0.0524
     31 C           2.4366    0.6719   18.7985 C.3     1  UNL1        0.0947
     32 C           0.9439    0.5697   18.6910 C.3     1  UNL1        0.0524
     33 C          -0.5065    4.1405   19.1179 C.3     1  UNL1        0.1740
     34 O          -0.2510    3.0138   18.1613 O.3     1  UNL1       -0.3534
@<TRIPOS>BOND
     1    33    34    1
     2    29    34    1
     3    29    30    1
     4    30    31    1
     5    31     1    1
     6     1     2   ar
     7     2     3    2
     8     2     4   ar
     9     4     5    1
    10     4     6   ar
    11     6     7   ar
    12     7     8   ar
    13     8     9   ar
    14     9    10   ar
    15    10    11   ar
    16    11    12   ar
    17    12    16    1
    18    16    17   ar
    19    17    18   ar
    20    18    19   ar
    21    19    22    1
    22    22    23    1
    23    23    24    1
    24    24    25    1
    25    25    26    1
    26    26    27    1
    27    26    28    1
    28    19    20   ar
    29    20    21   ar
    30    12    13   ar
    31    13    14   ar
    32    14    15   ar
    33    31    32    1
    34    32    29    1
    35    15     1   ar
    36    15     6   ar
    37    14     9   ar
    38    21    16   ar
@<TRIPOS>MOLECULE
*****
 34 38 0 0 0
SMALL
GASTEIGER

@<TRIPOS>ATOM
      1 N           1.8611    0.0861   20.4309 N.ar    1  UNL1       -0.2815
      2 C           0.8651    0.9402   19.7040 C.ar    1  UNL1        0.3316
      3 O           0.6079    0.9308   18.2261 O.2     1  UNL1       -0.2463
      4 N           0.1714    1.8052   20.7142 N.ar    1  UNL1       -0.2765
      5 C          -0.9013    2.8128   20.4240 C.3     1  UNL1        0.1352
      6 C           0.7388    1.4858   22.0655 C.ar    1  UNL1        0.0989
      7 C           0.4394    2.0251   23.4328 C.ar    1  UNL1        0.1175
      8 N           1.1843    1.5019   24.6250 N.ar    1  UNL1       -0.2422
      9 C           2.2286    0.4394   24.4500 C.ar    1  UNL1        0.0828
     10 C           2.9735   -0.0837   25.6422 C.ar    1  UNL1        0.0191
     11 C           4.0177   -1.1461   25.4671 C.ar    1  UNL1        0.0016
     12 C           4.3171   -1.6855   24.0998 C.ar    1  UNL1        0.0016
     13 C           3.5722   -1.1623   22.9076 C.ar    1  UNL1        0.0030
     14 C           2.5280   -0.0999   23.0827 C.ar    1  UNL1        0.0350
     15 C           1.7830    0.4233   21.8904 C.ar    1  UNL1        0.0826
     16 C           5.3614   -2.7480   23.9248 C.ar    1  UNL1        0.0194
     17 C           6.3709   -2.9929   25.0068 C.ar    1  UNL1        0.0063
     18 C           7.4152   -4.0554   24.8318 C.ar    1  UNL1        0.0577
     19 C           7.4500   -4.8729   23.5746 C.ar    1  UNL1        0.2249
     20 N           6.4404   -4.6280   22.4926 N.ar    1  UNL1       -0.2101
     21 C           5.3961   -3.5655   22.6676 C.ar    1  UNL1        0.1020
     22 O           8.4942   -5.9354   23.3996 O.3     1  UNL1       -0.4602
     23 C           8.2933   -7.2918   24.0075 C.3     1  UNL1        0.2085
     24 C           9.2004   -7.7636   25.1052 C.3     1  UNL1        0.0647
     25 C           9.2049   -7.0589   26.4293 C.3     1  UNL1        0.0760
     26 N           8.6312   -7.7337   27.6399 N.3     1  UNL1       -0.2702
     27 C           8.3172   -9.2001   27.6031 C.3     1  UNL1        0.0897
     28 C           8.3715   -6.9422   28.8873 C.3     1  UNL1        0.0897
     29 C           4.0669   -2.3604   18.9266 C.3     1  UNL1        0.1191
     30 C           3.9389   -0.8672   18.8638 C.3     1  UNL1        0.0524
     31 C           2.7748   -0.9273   19.8078 C.3     1  UNL1        0.0947
     32 C           2.9027   -2.4205   19.8706 C.3     1  UNL1        0.0524
     33 C           4.8775   -4.8179   18.6955 C.3     1  UNL1        0.1740
     34 O           4.9806   -3.3738   18.3035 O.3     1  UNL1       -0.3534
@<TRIPOS>BOND
     1    33    34    1
     2    29    34    1
     3    29    30    1
     4    30    31    1
     5    31     1    1
     6     1     2   ar
     7     2     3    2
     8     2     4   ar
     9     4     5    1
    10     4     6   ar
    11     6     7   ar
    12     7     8   ar
    13     8     9   ar
    14     9    10   ar
    15    10    11   ar
    16    11    12   ar
    17    12    16    1
    18    16    17   ar
    19    17    18   ar
    20    18    19   ar
    21    19    22    1
    22    22    23    1
    23    23    24    1
    24    24    25    1
    25    25    26    1
    26    26    27    1
    27    26    28    1
    28    19    20   ar
    29    20    21   ar
    30    12    13   ar
    31    13    14   ar
    32    14    15   ar
    33    31    32    1
    34    32    29    1
    35    15     1   ar
    36    15     6   ar
    37    14     9   ar
    38    21    16   ar
@<TRIPOS>MOLECULE
*****
 34 38 0 0 0
SMALL
GASTEIGER

@<TRIPOS>ATOM
      1 N           7.1897   -3.8974   28.0282 N.ar    1  UNL1       -0.2815
      2 C           7.8913   -4.2697   29.3007 C.ar    1  UNL1        0.3316
      3 O           8.9007   -5.3674   29.4624 O.2     1  UNL1       -0.2463
      4 N           7.4062   -3.3515   30.3831 N.ar    1  UNL1       -0.2765
      5 C           7.8453   -3.3699   31.8174 C.3     1  UNL1        0.1352
      6 C           6.4048   -2.4118   29.7796 C.ar    1  UNL1        0.0989
      7 C           5.5975   -1.2925   30.3673 C.ar    1  UNL1        0.1175
      8 N           4.6565   -0.5106   29.4996 N.ar    1  UNL1       -0.2422
      9 C           4.5227   -0.8480   28.0441 C.ar    1  UNL1        0.0828
     10 C           3.5817   -0.0660   27.1764 C.ar    1  UNL1        0.0191
     11 C           3.4479   -0.4034   25.7210 C.ar    1  UNL1        0.0016
     12 C           4.2552   -1.5228   25.1333 C.ar    1  UNL1        0.0016
     13 C           5.1963   -2.3047   26.0010 C.ar    1  UNL1        0.0030
     14 C           5.3300   -1.9673   27.4564 C.ar    1  UNL1        0.0350
     15 C           6.2711   -2.7492   28.3242 C.ar    1  UNL1        0.0826
     16 C           4.1214   -1.8601   23.6778 C.ar    1  UNL1        0.0194
     17 C           4.7971   -3.0801   23.1255 C.ar    1  UNL1        0.0063
     18 C           4.6634   -3.4175   21.6700 C.ar    1  UNL1        0.0577
     19 C           3.8539   -2.5348   20.7669 C.ar    1  UNL1        0.2249
     20 N           3.1781   -1.3148   21.3193 N.ar    1  UNL1       -0.2101
     21 C           3.3119   -0.9775   22.7747 C.ar    1  UNL1        0.1020
     22 O           3.7201   -2.8722   19.3115 O.3     1  UNL1       -0.4602
     23 C           4.8120   -2.5013   18.3523 C.3     1  UNL1        0.2085
     24 C           4.7989   -1.1586   17.6836 C.3     1  UNL1        0.0647
     25 C           3.4935   -0.5042   17.3406 C.3     1  UNL1        0.0760
     26 N           2.9037    0.5215   18.2625 N.3     1  UNL1       -0.2702
     27 C           3.8019    1.4544   19.0195 C.3     1  UNL1        0.0897
     28 C           1.4157    0.6144   18.4275 C.3     1  UNL1        0.0897
     29 C           7.6357   -5.4909   24.8070 C.3     1  UNL1        0.1191
     30 C           6.8962   -5.8332   26.0664 C.3     1  UNL1        0.0524
     31 C           7.3744   -4.5575   26.6940 C.3     1  UNL1        0.0947
     32 C           8.1140   -4.2152   25.4346 C.3     1  UNL1        0.0524
     33 C           8.8067   -7.2708   23.3202 C.3     1  UNL1        0.1740
     34 O           7.8204   -6.1510   23.4728 O.3     1  UNL1       -0.3534
@<TRIPOS>BOND
     1    33    34    1
     2    29    34    1
     3    29    30    1
     4    30    31    1
     5    31     1    1
     6     1     2   ar
     7     2     3    2
     8     2     4   ar
     9     4     5    1
    10     4     6   ar
    11     6     7   ar
    12     7     8   ar
    13     8     9   ar
    14     9    10   ar
    15    10    11   ar
    16    11    12   ar
    17    12    16    1
    18    16    17   ar
    19    17    18   ar
    20    18    19   ar
    21    19    22    1
    22    22    23    1
    23    23    24    1
    24    24    25    1
    25    25    26    1
    26    26    27    1
    27    26    28    1
    28    19    20   ar
    29    20    21   ar
    30    12    13   ar
    31    13    14   ar
    32    14    15   ar
    33    31    32    1
    34    32    29    1
    35    15     1   ar
    36    15     6   ar
    37    14     9   ar
    38    21    16   ar
@<TRIPOS>MOLECULE
*****
 34 38 0 0 0
SMALL
GASTEIGER

@<TRIPOS>ATOM
      1 N           4.1755   -1.7295   20.6043 N.ar    1  UNL1       -0.2815
      2 C           5.1623   -2.6495   19.9486 C.ar    1  UNL1        0.3316
      3 O           5.2715   -2.9213   18.4774 O.2     1  UNL1       -0.2463
      4 N           6.0205   -3.2500   21.0223 N.ar    1  UNL1       -0.2765
      5 C           7.1388   -4.2278   20.8133 C.3     1  UNL1        0.1352
      6 C           5.5642   -2.7012   22.3416 C.ar    1  UNL1        0.0989
      7 C           6.0397   -2.9356   23.7447 C.ar    1  UNL1        0.1175
      8 N           5.3750   -2.2304   24.8896 N.ar    1  UNL1       -0.2422
      9 C           4.2346   -1.2907   24.6313 C.ar    1  UNL1        0.0828
     10 C           3.5699   -0.5855   25.7761 C.ar    1  UNL1        0.0191
     11 C           2.4296    0.3542   25.5178 C.ar    1  UNL1        0.0016
     12 C           1.9541    0.5887   24.1146 C.ar    1  UNL1        0.0016
     13 C           2.6189   -0.1165   22.9698 C.ar    1  UNL1        0.0030
     14 C           3.7591   -1.0562   23.2281 C.ar    1  UNL1        0.0350
     15 C           4.4240   -1.7615   22.0832 C.ar    1  UNL1        0.0826
     16 C           0.8138    1.5284   23.8563 C.ar    1  UNL1        0.0194
     17 C          -0.0313    2.0136   24.9967 C.ar    1  UNL1        0.0063
     18 C          -1.1716    2.9533   24.7384 C.ar    1  UNL1        0.0577
     19 C          -1.4668    3.4078   23.3397 C.ar    1  UNL1        0.2249
     20 N          -0.6216    2.9226   22.1993 N.ar    1  UNL1       -0.2101
     21 C           0.5186    1.9829   22.4577 C.ar    1  UNL1        0.1020
     22 O          -2.6070    4.3475   23.0814 O.3     1  UNL1       -0.4602
     23 C          -3.8866    3.8304   22.4938 C.3     1  UNL1        0.2085
     24 C          -4.8514    3.0670   23.3520 C.3     1  UNL1        0.0647
     25 C          -5.1304    3.5220   24.7538 C.3     1  UNL1        0.0760
     26 N          -6.0531    4.6793   24.9971 N.3     1  UNL1       -0.2702
     27 C          -7.3197    4.8083   24.2038 C.3     1  UNL1        0.0897
     28 C          -5.7093    5.7076   26.0336 C.3     1  UNL1        0.0897
     29 C           1.6388    0.2253   18.9138 C.3     1  UNL1        0.1191
     30 C           3.1386    0.1998   18.9059 C.3     1  UNL1        0.0524
     31 C           3.1248   -0.9198   19.9041 C.3     1  UNL1        0.0947
     32 C           1.6250   -0.8944   19.9119 C.3     1  UNL1        0.0524
     33 C           0.3794    2.4735   18.5836 C.3     1  UNL1        0.1740
     34 O           0.5881    1.0350   18.2135 O.3     1  UNL1       -0.3534
@<TRIPOS>BOND
     1    33    34    1
     2    29    34    1
     3    29    30    1
     4    30    31    1
     5    31     1    1
     6     1     2   ar
     7     2     3    2
     8     2     4   ar
     9     4     5    1
    10     4     6   ar
    11     6     7   ar
    12     7     8   ar
    13     8     9   ar
    14     9    10   ar
    15    10    11   ar
    16    11    12   ar
    17    12    16    1
    18    16    17   ar
    19    17    18   ar
    20    18    19   ar
    21    19    22    1
    22    22    23    1
    23    23    24    1
    24    24    25    1
    25    25    26    1
    26    26    27    1
    27    26    28    1
    28    19    20   ar
    29    20    21   ar
    30    12    13   ar
    31    13    14   ar
    32    14    15   ar
    33    31    32    1
    34    32    29    1
    35    15     1   ar
    36    15     6   ar
    37    14     9   ar
    38    21    16   ar
@<TRIPOS>MOLECULE
*****
 34 38 0 0 0
SMALL
GASTEIGER

@<TRIPOS>ATOM
      1 N           6.1783   -2.7327   28.3948 N.ar    1  UNL1       -0.2815
      2 C           6.0479   -2.4784   29.8673 C.ar    1  UNL1        0.3316
      3 O           5.4938   -1.2372   30.5020 O.2     1  UNL1       -0.2463
      4 N           6.5687   -3.6830   30.5937 N.ar    1  UNL1       -0.2765
      5 C           6.6270   -3.8580   32.0824 C.3     1  UNL1        0.1352
      6 C           7.0210   -4.6818   29.5701 C.ar    1  UNL1        0.0989
      7 C           7.6214   -6.0502   29.7000 C.ar    1  UNL1        0.1175
      8 N           7.9806   -6.8314   28.4708 N.ar    1  UNL1       -0.2422
      9 C           7.7393   -6.2441   27.1118 C.ar    1  UNL1        0.0828
     10 C           8.0984   -7.0252   25.8827 C.ar    1  UNL1        0.0191
     11 C           7.8571   -6.4379   24.5237 C.ar    1  UNL1        0.0016
     12 C           7.2567   -5.0695   24.3939 C.ar    1  UNL1        0.0016
     13 C           6.8976   -4.2883   25.6230 C.ar    1  UNL1        0.0030
     14 C           7.1389   -4.8756   26.9820 C.ar    1  UNL1        0.0350
     15 C           6.7797   -4.0945   28.2112 C.ar    1  UNL1        0.0826
     16 C           7.0154   -4.4822   23.0348 C.ar    1  UNL1        0.0194
     17 C           5.7042   -3.8231   22.7246 C.ar    1  UNL1        0.0063
     18 C           5.4629   -3.2358   21.3656 C.ar    1  UNL1        0.0577
     19 C           6.5329   -3.3077   20.3168 C.ar    1  UNL1        0.2249
     20 N           7.8442   -3.9668   20.6270 N.ar    1  UNL1       -0.2101
     21 C           8.0854   -4.5540   21.9860 C.ar    1  UNL1        0.1020
     22 O           6.2917   -2.7204   18.9578 O.3     1  UNL1       -0.4602
     23 C           4.8975   -2.6464   18.4095 C.3     1  UNL1        0.2085
     24 C           4.3343   -1.3282   17.9675 C.3     1  UNL1        0.0647
     25 C           3.8785   -0.3275   18.9876 C.3     1  UNL1        0.0760
     26 N           2.4184   -0.1890   19.3020 N.3     1  UNL1       -0.2702
     27 C           1.8500   -0.8405   20.5278 C.3     1  UNL1        0.0897
     28 C           1.5266    0.6010   18.3906 C.3     1  UNL1        0.0897
     29 C           5.2109   -0.4584   25.7480 C.3     1  UNL1        0.1191
     30 C           6.4820   -0.7390   26.4935 C.3     1  UNL1        0.0524
     31 C           5.7776   -1.7907   27.2984 C.3     1  UNL1        0.0947
     32 C           4.5065   -1.5101   26.5529 C.3     1  UNL1        0.0524
     33 C           4.8240    0.0226   23.2243 C.3     1  UNL1        0.1740
     34 O           4.8103    0.4836   24.6516 O.3     1  UNL1       -0.3534
@<TRIPOS>BOND
     1    33    34    1
     2    29    34    1
     3    29    30    1
     4    30    31    1
     5    31     1    1
     6     1     2   ar
     7     2     3    2
     8     2     4   ar
     9     4     5    1
    10     4     6   ar
    11     6     7   ar
    12     7     8   ar
    13     8     9   ar
    14     9    10   ar
    15    10    11   ar
    16    11    12   ar
    17    12    16    1
    18    16    17   ar
    19    17    18   ar
    20    18    19   ar
    21    19    22    1
    22    22    23    1
    23    23    24    1
    24    24    25    1
    25    25    26    1
    26    26    27    1
    27    26    28    1
    28    19    20   ar
    29    20    21   ar
    30    12    13   ar
    31    13    14   ar
    32    14    15   ar
    33    31    32    1
    34    32    29    1
    35    15     1   ar
    36    15     6   ar
    37    14     9   ar
    38    21    16   ar
@<TRIPOS>MOLECULE
*****
 34 38 0 0 0
SMALL
GASTEIGER

@<TRIPOS>ATOM
      1 N           5.8006   -2.4004   25.8800 N.ar    1  UNL1       -0.2815
      2 C           6.7747   -2.9730   26.8664 C.ar    1  UNL1        0.3316
      3 O           6.8887   -2.5956   28.3137 O.2     1  UNL1       -0.2463
      4 N           7.6149   -3.9894   26.1515 N.ar    1  UNL1       -0.2765
      5 C           8.7167   -4.8068   26.7583 C.3     1  UNL1        0.1352
      6 C           7.1600   -4.0449   24.7232 C.ar    1  UNL1        0.0989
      7 C           7.6220   -4.8627   23.5538 C.ar    1  UNL1        0.1175
      8 N           6.9626   -4.6986   22.2165 N.ar    1  UNL1       -0.2422
      9 C           5.8412   -3.7165   22.0487 C.ar    1  UNL1        0.0828
     10 C           5.1819   -3.5523   20.7115 C.ar    1  UNL1        0.0191
     11 C           4.0606   -2.5703   20.5437 C.ar    1  UNL1        0.0016
     12 C           3.5986   -1.7524   21.7132 C.ar    1  UNL1        0.0016
     13 C           4.2580   -1.9166   23.0504 C.ar    1  UNL1        0.0030
     14 C           5.3793   -2.8986   23.2182 C.ar    1  UNL1        0.0350
     15 C           6.0387   -3.0628   24.5555 C.ar    1  UNL1        0.0826
     16 C           2.4772   -0.7703   21.5454 C.ar    1  UNL1        0.0194
     17 C           1.6036   -0.8305   20.3276 C.ar    1  UNL1        0.0063
     18 C           0.4822    0.1516   20.1597 C.ar    1  UNL1        0.0577
     19 C           0.2345    1.1938   21.2098 C.ar    1  UNL1        0.2249
     20 N           1.1082    1.2539   22.4276 N.ar    1  UNL1       -0.2101
     21 C           2.2295    0.2718   22.5954 C.ar    1  UNL1        0.1020
     22 O          -0.8868    2.1758   21.0420 O.3     1  UNL1       -0.4602
     23 C          -0.8042    3.2347   19.9828 C.3     1  UNL1        0.2085
     24 C          -2.0576    3.8694   19.4574 C.3     1  UNL1        0.0647
     25 C          -3.3802    3.5544   20.0909 C.3     1  UNL1        0.0760
     26 N          -4.6536    3.8511   19.3558 N.3     1  UNL1       -0.2702
     27 C          -4.7009    3.7359   17.8609 C.3     1  UNL1        0.0897
     28 C          -5.8797    4.2631   20.1154 C.3     1  UNL1        0.0897
     29 C           3.3109    0.1360   26.5745 C.3     1  UNL1        0.1191
     30 C           4.5272    0.0548   25.7003 C.3     1  UNL1        0.0524
     31 C           4.7693   -1.3498   26.1676 C.3     1  UNL1        0.0947
     32 C           3.5530   -1.2687   27.0418 C.3     1  UNL1        0.0524
     33 C           1.0892    1.3354   25.9617 C.3     1  UNL1        0.1740
     34 O           2.2796    1.1866   26.8621 O.3     1  UNL1       -0.3534
@<TRIPOS>BOND
     1    33    34    1
     2    29    34    1
     3    29    30    1
     4    30    31    1
     5    31     1    1
     6     1     2   ar
     7     2     3    2
     8     2     4   ar
     9     4     5    1
    10     4     6   ar
    11     6     7   ar
    12     7     8   ar
    13     8     9   ar
    14     9    10   ar
    15    10    11   ar
    16    11    12   ar
    17    12    16    1
    18    16    17   ar
    19    17    18   ar
    20    18    19   ar
    21    19    22    1
    22    22    23    1
    23    23    24    1
    24    24    25    1
    25    25    26    1
    26    26    27    1
    27    26    28    1
    28    19    20   ar
    29    20    21   ar
    30    12    13   ar
    31    13    14   ar
    32    14    15   ar
    33    31    32    1
    34    32    29    1
    35    15     1   ar
    36    15     6   ar
    37    14     9   ar
    38    21    16   ar
@<TRIPOS>MOLECULE
*****
 34 38 0 0 0
SMALL
GASTEIGER

@<TRIPOS>ATOM
      1 N           3.5056   -0.2559   19.0404 N.ar    1  UNL1       -0.2815
      2 C           4.3923   -0.9276   18.0340 C.ar    1  UNL1        0.3316
      3 O           4.3598   -0.7150   16.5495 O.2     1  UNL1       -0.2463
      4 N           5.3170   -1.8490   18.7728 N.ar    1  UNL1       -0.2765
      5 C           6.3717   -2.7198   18.1567 C.3     1  UNL1        0.1352
      6 C           5.0019   -1.7469   20.2357 C.ar    1  UNL1        0.0989
      7 C           5.5897   -2.4232   21.4387 C.ar    1  UNL1        0.1175
      8 N           5.0581   -2.1150   22.8070 N.ar    1  UNL1       -0.2422
      9 C           3.9386   -1.1304   22.9724 C.ar    1  UNL1        0.0828
     10 C           3.4069   -0.8222   24.3407 C.ar    1  UNL1        0.0191
     11 C           2.2875    0.1624   24.5061 C.ar    1  UNL1        0.0016
     12 C           1.6996    0.8387   23.3032 C.ar    1  UNL1        0.0016
     13 C           2.2313    0.5305   21.9349 C.ar    1  UNL1        0.0030
     14 C           3.3507   -0.4541   21.7695 C.ar    1  UNL1        0.0350
     15 C           3.8824   -0.7623   20.4011 C.ar    1  UNL1        0.0826
     16 C           0.5801    1.8233   23.4686 C.ar    1  UNL1        0.0194
     17 C           0.0787    2.5949   22.2841 C.ar    1  UNL1        0.0063
     18 C          -1.0408    3.5795   22.4495 C.ar    1  UNL1        0.0577
     19 C          -1.6589    3.7924   23.7995 C.ar    1  UNL1        0.2249
     20 N          -1.1575    3.0208   24.9841 N.ar    1  UNL1       -0.2101
     21 C          -0.0380    2.0363   24.8187 C.ar    1  UNL1        0.1020
     22 O          -2.7784    4.7770   23.9650 O.3     1  UNL1       -0.4602
     23 C          -3.9898    4.6901   23.0847 C.3     1  UNL1        0.2085
     24 C          -5.3381    5.0639   23.6253 C.3     1  UNL1        0.0647
     25 C          -5.8806    4.3651   24.8366 C.3     1  UNL1        0.0760
     26 N          -5.5797    4.8965   26.2067 N.3     1  UNL1       -0.2702
     27 C          -4.4020    4.3711   26.9729 C.3     1  UNL1        0.0897
     28 C          -6.4564    5.9532   26.8105 C.3     1  UNL1        0.0897
     29 C           0.9111    2.1633   18.3128 C.3     1  UNL1        0.1191
     30 C           0.9577    0.6719   18.4667 C.3     1  UNL1        0.0524
     31 C           2.4309    0.7461   18.7390 C.3     1  UNL1        0.0947
     32 C           2.3843    2.2375   18.5850 C.3     1  UNL1        0.0524
     33 C           0.2012    4.5185   17.4768 C.3     1  UNL1        0.1740
     34 O          -0.1637    3.1653   18.0113 O.3     1  UNL1       -0.3534
@<TRIPOS>BOND
     1    33    34    1
     2    29    34    1
     3    29    30    1
     4    30    31    1
     5    31     1    1
     6     1     2   ar
     7     2     3    2
     8     2     4   ar
     9     4     5    1
    10     4     6   ar
    11     6     7   ar
    12     7     8   ar
    13     8     9   ar
    14     9    10   ar
    15    10    11   ar
    16    11    12   ar
    17    12    16    1
    18    16    17   ar
    19    17    18   ar
    20    18    19   ar
    21    19    22    1
    22    22    23    1
    23    23    24    1
    24    24    25    1
    25    25    26    1
    26    26    27    1
    27    26    28    1
    28    19    20   ar
    29    20    21   ar
    30    12    13   ar
    31    13    14   ar
    32    14    15   ar
    33    31    32    1
    34    32    29    1
    35    15     1   ar
    36    15     6   ar
    37    14     9   ar
    38    21    16   ar
@<TRIPOS>MOLECULE
*****
 34 38 0 0 0
SMALL
GASTEIGER

@<TRIPOS>ATOM
      1 N           6.5003   -3.6285   21.7335 N.ar    1  UNL1       -0.2815
      2 C           7.5833   -4.6458   21.9392 C.ar    1  UNL1        0.3316
      3 O           8.3247   -5.3752   20.8583 O.2     1  UNL1       -0.2463
      4 N           7.7947   -4.8056   23.4156 N.ar    1  UNL1       -0.2765
      5 C           8.7848   -5.7229   24.0704 C.3     1  UNL1        0.1352
      6 C           6.8424   -3.8871   24.1224 C.ar    1  UNL1        0.0989
      7 C           6.6004   -3.6192   25.5782 C.ar    1  UNL1        0.1175
      8 N           5.5583   -2.6238   25.9945 N.ar    1  UNL1       -0.2422
      9 C           4.7583   -1.8963   24.9549 C.ar    1  UNL1        0.0828
     10 C           3.7162   -0.9010   25.3712 C.ar    1  UNL1        0.0191
     11 C           2.9162   -0.1735   24.3316 C.ar    1  UNL1        0.0016
     12 C           3.1583   -0.4415   22.8757 C.ar    1  UNL1        0.0016
     13 C           4.2004   -1.4368   22.4594 C.ar    1  UNL1        0.0030
     14 C           5.0003   -2.1643   23.4990 C.ar    1  UNL1        0.0350
     15 C           6.0425   -3.1597   23.0827 C.ar    1  UNL1        0.0826
     16 C           2.3583    0.2860   21.8361 C.ar    1  UNL1        0.0194
     17 C           1.7214   -0.4751   20.7113 C.ar    1  UNL1        0.0063
     18 C           0.9214    0.2523   19.6717 C.ar    1  UNL1        0.0577
     19 C           0.7582    1.7410   19.7569 C.ar    1  UNL1        0.2249
     20 N           1.3951    2.5022   20.8817 N.ar    1  UNL1       -0.2101
     21 C           2.1951    1.7747   21.9212 C.ar    1  UNL1        0.1020
     22 O          -0.0418    2.4685   18.7173 O.3     1  UNL1       -0.4602
     23 C          -0.9637    3.5801   19.1226 C.3     1  UNL1        0.2085
     24 C          -2.0310    3.3334   20.1474 C.3     1  UNL1        0.0647
     25 C          -3.4720    3.5618   19.7994 C.3     1  UNL1        0.0760
     26 N          -4.2967    4.5178   20.6093 N.3     1  UNL1       -0.2702
     27 C          -5.6956    4.1507   21.0073 C.3     1  UNL1        0.0897
     28 C          -3.7225    5.8410   21.0211 C.3     1  UNL1        0.0897
     29 C           5.2166   -2.5023   18.5401 C.3     1  UNL1        0.1191
     30 C           4.8302   -3.5681   19.5225 C.3     1  UNL1        0.0524
     31 C           5.9685   -3.1621   20.4108 C.3     1  UNL1        0.0947
     32 C           6.3550   -2.0963   19.4285 C.3     1  UNL1        0.0524
     33 C           3.7726   -0.8469   17.1529 C.3     1  UNL1        0.1740
     34 O           4.6848   -2.0359   17.2174 O.3     1  UNL1       -0.3534
@<TRIPOS>BOND
     1    33    34    1
     2    29    34    1
     3    29    30    1
     4    30    31    1
     5    31     1    1
     6     1     2   ar
     7     2     3    2
     8     2     4   ar
     9     4     5    1
    10     4     6   ar
    11     6     7   ar
    12     7     8   ar
    13     8     9   ar
    14     9    10   ar
    15    10    11   ar
    16    11    12   ar
    17    12    16    1
    18    16    17   ar
    19    17    18   ar
    20    18    19   ar
    21    19    22    1
    22    22    23    1
    23    23    24    1
    24    24    25    1
    25    25    26    1
    26    26    27    1
    27    26    28    1
    28    19    20   ar
    29    20    21   ar
    30    12    13   ar
    31    13    14   ar
    32    14    15   ar
    33    31    32    1
    34    32    29    1
    35    15     1   ar
    36    15     6   ar
    37    14     9   ar
    38    21    16   ar
@<TRIPOS>MOLECULE
*****
 34 38 0 0 0
SMALL
GASTEIGER

@<TRIPOS>ATOM
      1 N           4.8529   -1.8459   20.2394 N.ar    1  UNL1       -0.2815
      2 C           4.9407   -1.9755   18.7476 C.ar    1  UNL1        0.3316
      3 O           5.9570   -2.7780   17.9906 O.2     1  UNL1       -0.2463
      4 N           3.8338   -1.1616   18.1457 N.ar    1  UNL1       -0.2765
      5 C           3.5488   -1.0073   16.6811 C.3     1  UNL1        0.1352
      6 C           3.0618   -0.5290   19.2655 C.ar    1  UNL1        0.0989
      7 C           1.8668    0.3775   19.2742 C.ar    1  UNL1        0.1175
      8 N           1.3016    0.8610   20.5767 N.ar    1  UNL1       -0.2422
      9 C           1.9314    0.4380   21.8707 C.ar    1  UNL1        0.0828
     10 C           1.3662    0.9216   23.1733 C.ar    1  UNL1        0.0191
     11 C           1.9961    0.4986   24.4672 C.ar    1  UNL1        0.0016
     12 C           3.1911   -0.4079   24.4586 C.ar    1  UNL1        0.0016
     13 C           3.7563   -0.8914   23.1561 C.ar    1  UNL1        0.0030
     14 C           3.1265   -0.4685   21.8621 C.ar    1  UNL1        0.0350
     15 C           3.6917   -0.9520   20.5595 C.ar    1  UNL1        0.0826
     16 C           3.8210   -0.8309   25.7527 C.ar    1  UNL1        0.0194
     17 C           5.0812   -1.6443   25.7428 C.ar    1  UNL1        0.0063
     18 C           5.7111   -2.0673   27.0368 C.ar    1  UNL1        0.0577
     19 C           5.0806   -1.6768   28.3407 C.ar    1  UNL1        0.2249
     20 N           3.8203   -0.8634   28.3505 N.ar    1  UNL1       -0.2101
     21 C           3.1905   -0.4404   27.0565 C.ar    1  UNL1        0.1020
     22 O           5.7104   -2.0997   29.6347 O.3     1  UNL1       -0.4602
     23 C           6.9133   -2.9958   29.6257 C.3     1  UNL1        0.2085
     24 C           6.8228   -4.3785   30.2003 C.3     1  UNL1        0.0647
     25 C           6.8544   -5.5717   29.2920 C.3     1  UNL1        0.0760
     26 N           8.0468   -6.4817   29.2904 N.3     1  UNL1       -0.2702
     27 C           8.2502   -7.4496   28.1626 C.3     1  UNL1        0.0897
     28 C           9.0359   -6.4239   30.4167 C.3     1  UNL1        0.0897
     29 C           7.0573   -3.4158   22.6457 C.3     1  UNL1        0.1191
     30 C           5.7693   -3.7992   21.9791 C.3     1  UNL1        0.0524
     31 C           5.7659   -2.4962   21.2361 C.3     1  UNL1        0.0947
     32 C           7.0539   -2.1127   21.9027 C.3     1  UNL1        0.0524
     33 C           8.4710   -3.2857   24.8216 C.3     1  UNL1        0.1740
     34 O           7.9703   -4.0660   23.6424 O.3     1  UNL1       -0.3534
@<TRIPOS>BOND
     1    33    34    1
     2    29    34    1
     3    29    30    1
     4    30    31    1
     5    31     1    1
     6     1     2   ar
     7     2     3    2
     8     2     4   ar
     9     4     5    1
    10     4     6   ar
    11     6     7   ar
    12     7     8   ar
    13     8     9   ar
    14     9    10   ar
    15    10    11   ar
    16    11    12   ar
    17    12    16    1
    18    16    17   ar
    19    17    18   ar
    20    18    19   ar
    21    19    22    1
    22    22    23    1
    23    23    24    1
    24    24    25    1
    25    25    26    1
    26    26    27    1
    27    26    28    1
    28    19    20   ar
    29    20    21   ar
    30    12    13   ar
    31    13    14   ar
    32    14    15   ar
    33    31    32    1
    34    32    29    1
    35    15     1   ar
    36    15     6   ar
    37    14     9   ar
    38    21    16   ar
