@<TRIPOS>MOLECULE
*****
 33 37 0 0 0
SMALL
GASTEIGER

@<TRIPOS>ATOM
      1 N          -7.6639  -18.4372   22.3413 N.3     1  UNL1       -0.2679
      2 C          -9.0652  -18.7362   22.7849 C.3     1  UNL1        0.0978
      3 C          -9.3098  -19.7412   23.8712 C.3     1  UNL1        0.0224
      4 C         -10.7111  -20.0402   24.3148 C.3     1  UNL1        0.0065
      5 C         -11.8680  -19.3342   23.6720 C.3     1  UNL1        0.0277
      6 C         -11.6235  -18.3292   22.5857 C.ar    1  UNL1       -0.0073
      7 C         -12.7804  -17.6232   21.9428 C.ar    1  UNL1       -0.0015
      8 C         -12.5358  -16.6182   20.8565 C.ar    1  UNL1        0.0203
      9 C         -11.1345  -16.3192   20.4129 C.ar    1  UNL1        0.0985
     10 N          -9.9776  -17.0252   21.0557 N.ar    1  UNL1       -0.2471
     11 C         -10.2221  -18.0302   22.1421 C.ar    1  UNL1        0.0695
     12 C          -7.1271  -17.0403   22.4426 C.3     1  UNL1        0.0724
     13 N          -6.5892  -14.4148   27.8108 N.3     1  UNL1       -0.3222
     14 C          -6.7237  -15.0712   26.4688 C.3     1  UNL1        0.0508
     15 C          -5.5144  -15.2597   25.6015 C.3     1  UNL1        0.0155
     16 C          -5.6489  -15.9161   24.2595 C.3     1  UNL1        0.0027
     17 C          -6.9926  -16.3839   23.7846 C.3     1  UNL1        0.0161
     18 C          -8.2020  -16.1954   24.6519 C.3     1  UNL1        0.0027
     19 C          -8.0675  -15.5390   25.9939 C.3     1  UNL1        0.0155
     20 H          -5.6138  -14.1627   27.9698 H       1  UNL1        0.1188
     21 H          -6.8961  -15.0612   28.5377 H       1  UNL1        0.1188
     22 C          -6.7993  -19.5352   21.7965 C.3     1  UNL1        0.0886
     23 C          -5.3421  -19.2861   21.5418 C.3     1  UNL1        0.0748
     24 C          -4.8897  -18.7867   20.2017 C.3     1  UNL1        0.0432
     25 C          -3.4325  -18.5375   19.9471 C.ar    1  UNL1       -0.0234
     26 C          -2.9800  -18.0381   18.6070 C.ar    1  UNL1       -0.0045
     27 C          -1.5230  -17.7890   18.3524 C.ar    1  UNL1       -0.0003
     28 C          -0.5184  -18.0393   19.4378 C.ar    1  UNL1       -0.0003
     29 C          -0.9709  -18.5387   20.7779 C.ar    1  UNL1       -0.0032
     30 C          -2.4280  -18.7878   21.0325 C.ar    1  UNL1       -0.0103
     31 C          -2.8805  -19.2873   22.3726 C.3     1  UNL1        0.0953
     32 N          -4.3376  -19.5364   22.6272 N.3     1  UNL1       -0.2934
     33 H          -4.6036  -18.9471   23.4162 H       1  UNL1        0.1236
@<TRIPOS>BOND
     1    14    13    1
     2    14    15    1
     3    15    16    1
     4    16    17    1
     5    17    12    1
     6    12     1    1
     7     1    22    1
     8    23    22    1
     9    23    24    1
    10    24    25    1
    11    25    26   ar
    12    26    27   ar
    13    27    28   ar
    14    28    29   ar
    15    29    30   ar
    16    30    31    1
    17    31    32    1
    18     2     1    1
    19     2     3    1
    20     3     4    1
    21     4     5    1
    22     5     6    1
    23     6     7   ar
    24     7     8   ar
    25     8     9   ar
    26     9    10   ar
    27    10    11   ar
    28    17    18    1
    29    18    19    1
    30    19    14    1
    31    32    23    1
    32    11     2    1
    33    30    25   ar
    34    11     6   ar
    35    13    20    1
    36    13    21    1
    37    32    33    1
@<TRIPOS>MOLECULE
*****
 33 37 0 0 0
SMALL
GASTEIGER

@<TRIPOS>ATOM
      1 N          -7.5208  -18.6073   21.6253 N.3     1  UNL1       -0.2679
      2 C          -8.8234  -19.0089   22.2513 C.3     1  UNL1        0.0978
      3 C          -8.8557  -20.0972   23.2829 C.3     1  UNL1        0.0224
      4 C         -10.1584  -20.4988   23.9089 C.3     1  UNL1        0.0065
      5 C         -11.4287  -19.8120   23.5032 C.3     1  UNL1        0.0277
      6 C         -11.3964  -18.7237   22.4716 C.ar    1  UNL1       -0.0073
      7 C         -12.6667  -18.0369   22.0658 C.ar    1  UNL1       -0.0015
      8 C         -12.6344  -16.9485   21.0342 C.ar    1  UNL1        0.0203
      9 C         -11.3317  -16.5469   20.4082 C.ar    1  UNL1        0.0985
     10 N         -10.0614  -17.2337   20.8139 N.ar    1  UNL1       -0.2471
     11 C         -10.0937  -18.3221   21.8456 C.ar    1  UNL1        0.0695
     12 C          -6.6925  -19.6251   20.8988 C.3     1  UNL1        0.0724
     13 N          -0.7549  -18.8904   20.4449 N.3     1  UNL1       -0.3222
     14 C          -2.2393  -19.0740   20.5584 C.3     1  UNL1        0.0508
     15 C          -3.1145  -18.8683   19.3577 C.3     1  UNL1        0.0155
     16 C          -4.5988  -19.0519   19.4712 C.3     1  UNL1        0.0027
     17 C          -5.2081  -19.4414   20.7853 C.3     1  UNL1        0.0161
     18 C          -4.3329  -19.6472   21.9861 C.3     1  UNL1        0.0027
     19 C          -2.8485  -19.4636   21.8727 C.3     1  UNL1        0.0155
     20 H          -0.5169  -18.6284   19.4883 H       1  UNL1        0.1188
     21 H          -0.2850  -19.7631   20.6854 H       1  UNL1        0.1188
     22 C          -7.0464  -17.1878   21.7258 C.3     1  UNL1        0.0886
     23 C          -6.7771  -16.5804   23.0707 C.3     1  UNL1        0.0748
     24 C          -7.9042  -16.3696   24.0377 C.3     1  UNL1        0.0432
     25 C          -7.6349  -15.7622   25.3826 C.ar    1  UNL1       -0.0234
     26 C          -8.7620  -15.5514   26.3496 C.ar    1  UNL1       -0.0045
     27 C          -8.4926  -14.9440   27.6944 C.ar    1  UNL1       -0.0003
     28 C          -7.0962  -14.5475   28.0722 C.ar    1  UNL1       -0.0003
     29 C          -5.9691  -14.7584   27.1051 C.ar    1  UNL1       -0.0032
     30 C          -6.2385  -15.3657   25.7603 C.ar    1  UNL1       -0.0103
     31 C          -5.1113  -15.5766   24.7932 C.3     1  UNL1        0.0953
     32 N          -5.3807  -16.1839   23.4485 N.3     1  UNL1       -0.2934
     33 H          -4.8083  -17.0259   23.3856 H       1  UNL1        0.1236
@<TRIPOS>BOND
     1    14    13    1
     2    14    15    1
     3    15    16    1
     4    16    17    1
     5    17    12    1
     6    12     1    1
     7     1    22    1
     8    23    22    1
     9    23    24    1
    10    24    25    1
    11    25    26   ar
    12    26    27   ar
    13    27    28   ar
    14    28    29   ar
    15    29    30   ar
    16    30    31    1
    17    31    32    1
    18     2     1    1
    19     2     3    1
    20     3     4    1
    21     4     5    1
    22     5     6    1
    23     6     7   ar
    24     7     8   ar
    25     8     9   ar
    26     9    10   ar
    27    10    11   ar
    28    17    18    1
    29    18    19    1
    30    19    14    1
    31    32    23    1
    32    11     2    1
    33    30    25   ar
    34    11     6   ar
    35    13    20    1
    36    13    21    1
    37    32    33    1
@<TRIPOS>MOLECULE
*****
 33 37 0 0 0
SMALL
GASTEIGER

@<TRIPOS>ATOM
      1 N          -8.6897  -17.3726   21.5394 N.3     1  UNL1       -0.2679
      2 C         -10.1776  -17.2023   21.4547 C.3     1  UNL1        0.0978
      3 C         -10.7871  -16.5105   20.2715 C.3     1  UNL1        0.0224
      4 C         -12.2750  -16.3403   20.1867 C.3     1  UNL1        0.0065
      5 C         -13.1533  -16.8618   21.2851 C.3     1  UNL1        0.0277
      6 C         -12.5438  -17.5536   22.4682 C.ar    1  UNL1       -0.0073
      7 C         -13.4222  -18.0752   23.5667 C.ar    1  UNL1       -0.0015
      8 C         -12.8127  -18.7669   24.7498 C.ar    1  UNL1        0.0203
      9 C         -11.3248  -18.9372   24.8346 C.ar    1  UNL1        0.0985
     10 N         -10.4464  -18.4157   23.7362 N.ar    1  UNL1       -0.2471
     11 C         -11.0559  -17.7239   22.5530 C.ar    1  UNL1        0.0695
     12 C          -7.8216  -16.2079   21.9133 C.3     1  UNL1        0.0724
     13 N          -6.6926  -15.0400   27.6893 N.3     1  UNL1       -0.3222
     14 C          -6.9749  -15.3320   26.2453 C.3     1  UNL1        0.0508
     15 C          -5.8435  -15.6185   25.3030 C.3     1  UNL1        0.0155
     16 C          -6.1258  -15.9105   23.8590 C.3     1  UNL1        0.0027
     17 C          -7.5393  -15.9159   23.3573 C.3     1  UNL1        0.0161
     18 C          -8.6708  -15.6294   24.2996 C.3     1  UNL1        0.0027
     19 C          -8.3885  -15.3374   25.7436 C.3     1  UNL1        0.0155
     20 H          -5.6866  -15.0779   27.8535 H       1  UNL1        0.1188
     21 H          -7.1589  -15.7337   28.2739 H       1  UNL1        0.1188
     22 C          -8.0699  -18.7076   21.2503 C.3     1  UNL1        0.0886
     23 C          -6.5784  -18.8648   21.2824 C.3     1  UNL1        0.0748
     24 C          -5.7570  -18.4717   20.0906 C.3     1  UNL1        0.0432
     25 C          -4.2655  -18.6290   20.1227 C.ar    1  UNL1       -0.0234
     26 C          -3.4441  -18.2359   18.9308 C.ar    1  UNL1       -0.0045
     27 C          -1.9527  -18.3931   18.9630 C.ar    1  UNL1       -0.0003
     28 C          -1.2828  -18.9435   20.1871 C.ar    1  UNL1       -0.0003
     29 C          -2.1043  -19.3366   21.3790 C.ar    1  UNL1       -0.0032
     30 C          -3.5956  -19.1793   21.3468 C.ar    1  UNL1       -0.0103
     31 C          -4.4172  -19.5724   22.5387 C.3     1  UNL1        0.0953
     32 N          -5.9085  -19.4152   22.5065 N.3     1  UNL1       -0.2934
     33 H          -6.1563  -18.7985   23.2802 H       1  UNL1        0.1236
@<TRIPOS>BOND
     1    14    13    1
     2    14    15    1
     3    15    16    1
     4    16    17    1
     5    17    12    1
     6    12     1    1
     7     1    22    1
     8    23    22    1
     9    23    24    1
    10    24    25    1
    11    25    26   ar
    12    26    27   ar
    13    27    28   ar
    14    28    29   ar
    15    29    30   ar
    16    30    31    1
    17    31    32    1
    18     2     1    1
    19     2     3    1
    20     3     4    1
    21     4     5    1
    22     5     6    1
    23     6     7   ar
    24     7     8   ar
    25     8     9   ar
    26     9    10   ar
    27    10    11   ar
    28    17    18    1
    29    18    19    1
    30    19    14    1
    31    32    23    1
    32    11     2    1
    33    30    25   ar
    34    11     6   ar
    35    13    20    1
    36    13    21    1
    37    32    33    1
@<TRIPOS>MOLECULE
*****
 33 37 0 0 0
SMALL
GASTEIGER

@<TRIPOS>ATOM
      1 N          -9.3224  -17.8154   21.1471 N.3     1  UNL1       -0.2679
      2 C          -8.2281  -18.8243   20.9606 C.3     1  UNL1        0.0978
      3 C          -7.0407  -18.8210   21.8771 C.3     1  UNL1        0.0224
      4 C          -5.9465  -19.8299   21.6906 C.3     1  UNL1        0.0065
      5 C          -6.0396  -20.8420   20.5876 C.3     1  UNL1        0.0277
      6 C          -7.2270  -20.8454   19.6711 C.ar    1  UNL1       -0.0073
      7 C          -7.3202  -21.8576   18.5679 C.ar    1  UNL1       -0.0015
      8 C          -8.5075  -21.8609   17.6514 C.ar    1  UNL1        0.0203
      9 C          -9.6018  -20.8520   17.8379 C.ar    1  UNL1        0.0985
     10 N          -9.5087  -19.8398   18.9409 N.ar    1  UNL1       -0.2471
     11 C          -8.3212  -19.8365   19.8576 C.ar    1  UNL1        0.0695
     12 C         -10.7579  -18.2394   21.0502 C.3     1  UNL1        0.0724
     13 N         -14.1127  -18.6279   26.0094 N.3     1  UNL1       -0.3222
     14 C         -13.2740  -18.5308   24.7696 C.3     1  UNL1        0.0508
     15 C         -11.9019  -19.1362   24.7430 C.3     1  UNL1        0.0155
     16 C         -11.0632  -19.0390   23.5032 C.3     1  UNL1        0.0027
     17 C         -11.5966  -18.3365   22.2900 C.3     1  UNL1        0.0161
     18 C         -12.9688  -17.7311   22.3165 C.3     1  UNL1        0.0027
     19 C         -13.8075  -17.8282   23.5564 C.3     1  UNL1        0.0155
     20 H         -13.5975  -19.1341   26.7297 H       1  UNL1        0.1188
     21 H         -14.9774  -19.1255   25.7969 H       1  UNL1        0.1188
     22 C          -8.9811  -16.3825   21.4305 C.3     1  UNL1        0.0886
     23 C          -8.2507  -16.0204   22.6897 C.3     1  UNL1        0.0748
     24 C          -8.8387  -16.3695   24.0247 C.3     1  UNL1        0.0432
     25 C          -8.1083  -16.0074   25.2839 C.ar    1  UNL1       -0.0234
     26 C          -8.6964  -16.3565   26.6189 C.ar    1  UNL1       -0.0045
     27 C          -7.9659  -15.9944   27.8779 C.ar    1  UNL1       -0.0003
     28 C          -6.6475  -15.2832   27.8020 C.ar    1  UNL1       -0.0003
     29 C          -6.0594  -14.9341   26.4670 C.ar    1  UNL1       -0.0032
     30 C          -6.7898  -15.2962   25.2079 C.ar    1  UNL1       -0.0103
     31 C          -6.2017  -14.9471   23.8728 C.3     1  UNL1        0.0953
     32 N          -6.9322  -15.3092   22.6138 N.3     1  UNL1       -0.2934
     33 H          -6.3068  -15.9054   22.0717 H       1  UNL1        0.1236
@<TRIPOS>BOND
     1    14    13    1
     2    14    15    1
     3    15    16    1
     4    16    17    1
     5    17    12    1
     6    12     1    1
     7     1    22    1
     8    23    22    1
     9    23    24    1
    10    24    25    1
    11    25    26   ar
    12    26    27   ar
    13    27    28   ar
    14    28    29   ar
    15    29    30   ar
    16    30    31    1
    17    31    32    1
    18     2     1    1
    19     2     3    1
    20     3     4    1
    21     4     5    1
    22     5     6    1
    23     6     7   ar
    24     7     8   ar
    25     8     9   ar
    26     9    10   ar
    27    10    11   ar
    28    17    18    1
    29    18    19    1
    30    19    14    1
    31    32    23    1
    32    11     2    1
    33    30    25   ar
    34    11     6   ar
    35    13    20    1
    36    13    21    1
    37    32    33    1
@<TRIPOS>MOLECULE
*****
 33 37 0 0 0
SMALL
GASTEIGER

@<TRIPOS>ATOM
      1 N          -5.9793  -19.4000   21.4275 N.3     1  UNL1       -0.2679
      2 C          -5.4262  -18.4655   22.4623 C.3     1  UNL1        0.0978
      3 C          -4.1003  -18.7542   23.1015 C.3     1  UNL1        0.0224
      4 C          -3.5471  -17.8197   24.1362 C.3     1  UNL1        0.0065
      5 C          -4.3198  -16.5965   24.5318 C.3     1  UNL1        0.0277
      6 C          -5.6457  -16.3077   23.8926 C.ar    1  UNL1       -0.0073
      7 C          -6.4184  -15.0844   24.2881 C.ar    1  UNL1       -0.0015
      8 C          -7.7443  -14.7956   23.6489 C.ar    1  UNL1        0.0203
      9 C          -8.2975  -15.7301   22.6142 C.ar    1  UNL1        0.0985
     10 N          -7.5248  -16.9534   22.2186 N.ar    1  UNL1       -0.2471
     11 C          -6.1989  -17.2422   22.8578 C.ar    1  UNL1        0.0695
     12 C          -5.3549  -19.4651   20.0653 C.3     1  UNL1        0.0724
     13 N           0.3212  -17.6865   19.2789 N.3     1  UNL1       -0.3222
     14 C          -1.0978  -18.1312   19.4755 C.3     1  UNL1        0.0508
     15 C          -2.2152  -17.3951   18.7976 C.3     1  UNL1        0.0155
     16 C          -3.6342  -17.8398   18.9942 C.3     1  UNL1        0.0027
     17 C          -3.9358  -19.0205   19.8687 C.3     1  UNL1        0.0161
     18 C          -2.8184  -19.7566   20.5467 C.3     1  UNL1        0.0027
     19 C          -1.3994  -19.3120   20.3501 C.3     1  UNL1        0.0155
     20 H           0.3409  -16.8762   18.6597 H       1  UNL1        0.1188
     21 H           0.8609  -18.4455   18.8629 H       1  UNL1        0.1188
     22 C          -7.1570  -20.2693   21.7550 C.3     1  UNL1        0.0886
     23 C          -8.5321  -19.6740   21.8257 C.3     1  UNL1        0.0748
     24 C          -9.2840  -19.6751   23.1236 C.3     1  UNL1        0.0432
     25 C         -10.6590  -19.0798   23.1943 C.ar    1  UNL1       -0.0234
     26 C         -11.4109  -19.0809   24.4922 C.ar    1  UNL1       -0.0045
     27 C         -12.7859  -18.4856   24.5628 C.ar    1  UNL1       -0.0003
     28 C         -13.4090  -17.8893   23.3356 C.ar    1  UNL1       -0.0003
     29 C         -12.6571  -17.8883   22.0377 C.ar    1  UNL1       -0.0032
     30 C         -11.2821  -18.4835   21.9670 C.ar    1  UNL1       -0.0103
     31 C         -10.5302  -18.4825   20.6691 C.3     1  UNL1        0.0953
     32 N          -9.1552  -19.0778   20.5984 N.3     1  UNL1       -0.2934
     33 H          -8.5297  -18.3373   20.2808 H       1  UNL1        0.1236
@<TRIPOS>BOND
     1    14    13    1
     2    14    15    1
     3    15    16    1
     4    16    17    1
     5    17    12    1
     6    12     1    1
     7     1    22    1
     8    23    22    1
     9    23    24    1
    10    24    25    1
    11    25    26   ar
    12    26    27   ar
    13    27    28   ar
    14    28    29   ar
    15    29    30   ar
    16    30    31    1
    17    31    32    1
    18     2     1    1
    19     2     3    1
    20     3     4    1
    21     4     5    1
    22     5     6    1
    23     6     7   ar
    24     7     8   ar
    25     8     9   ar
    26     9    10   ar
    27    10    11   ar
    28    17    18    1
    29    18    19    1
    30    19    14    1
    31    32    23    1
    32    11     2    1
    33    30    25   ar
    34    11     6   ar
    35    13    20    1
    36    13    21    1
    37    32    33    1
@<TRIPOS>MOLECULE
*****
 33 37 0 0 0
SMALL
GASTEIGER

@<TRIPOS>ATOM
      1 N          -8.0216  -19.6692   21.7950 N.3     1  UNL1       -0.2679
      2 C          -8.6056  -19.1824   23.0880 C.3     1  UNL1        0.0978
      3 C          -9.4266  -20.1081   23.9358 C.3     1  UNL1        0.0224
      4 C         -10.0105  -19.6213   25.2289 C.3     1  UNL1        0.0065
      5 C          -9.7735  -18.2087   25.6741 C.3     1  UNL1        0.0277
      6 C          -8.9524  -17.2829   24.8264 C.ar    1  UNL1       -0.0073
      7 C          -8.7153  -15.8702   25.2716 C.ar    1  UNL1       -0.0015
      8 C          -7.8943  -14.9445   24.4238 C.ar    1  UNL1        0.0203
      9 C          -7.3103  -15.4313   23.1307 C.ar    1  UNL1        0.0985
     10 N          -7.5474  -16.8439   22.6855 N.ar    1  UNL1       -0.2471
     11 C          -8.3685  -17.7698   23.5333 C.ar    1  UNL1        0.0695
     12 C          -8.7798  -19.4864   20.5137 C.3     1  UNL1        0.0724
     13 N         -13.5274  -15.8220   20.3338 N.3     1  UNL1       -0.3222
     14 C         -12.3405  -16.7381   20.3788 C.3     1  UNL1        0.0508
     15 C         -11.0600  -16.3400   19.7068 C.3     1  UNL1        0.0155
     16 C          -9.8731  -17.2561   19.7518 C.3     1  UNL1        0.0027
     17 C          -9.9667  -18.5703   20.4687 C.3     1  UNL1        0.0161
     18 C         -11.2473  -18.9684   21.1408 C.3     1  UNL1        0.0027
     19 C         -12.4342  -18.0524   21.0958 C.3     1  UNL1        0.0155
     20 H         -13.2878  -14.9806   19.8095 H       1  UNL1        0.1188
     21 H         -13.7953  -15.5658   21.2840 H       1  UNL1        0.1188
     22 C          -6.6795  -20.3388   21.7832 C.3     1  UNL1        0.0886
     23 C          -5.4301  -19.5133   21.6945 C.3     1  UNL1        0.0748
     24 C          -4.6072  -19.5307   20.4406 C.3     1  UNL1        0.0432
     25 C          -3.3578  -18.7051   20.3519 C.ar    1  UNL1       -0.0234
     26 C          -2.5349  -18.7225   19.0979 C.ar    1  UNL1       -0.0045
     27 C          -1.2856  -17.8970   19.0093 C.ar    1  UNL1       -0.0003
     28 C          -0.8593  -17.0542   20.1746 C.ar    1  UNL1       -0.0003
     29 C          -1.6823  -17.0368   21.4286 C.ar    1  UNL1       -0.0032
     30 C          -2.9316  -17.8623   21.5172 C.ar    1  UNL1       -0.0103
     31 C          -3.7546  -17.8450   22.7712 C.3     1  UNL1        0.0953
     32 N          -5.0038  -18.6705   22.8598 N.3     1  UNL1       -0.2934
     33 H          -5.7700  -18.0253   23.0525 H       1  UNL1        0.1236
@<TRIPOS>BOND
     1    14    13    1
     2    14    15    1
     3    15    16    1
     4    16    17    1
     5    17    12    1
     6    12     1    1
     7     1    22    1
     8    23    22    1
     9    23    24    1
    10    24    25    1
    11    25    26   ar
    12    26    27   ar
    13    27    28   ar
    14    28    29   ar
    15    29    30   ar
    16    30    31    1
    17    31    32    1
    18     2     1    1
    19     2     3    1
    20     3     4    1
    21     4     5    1
    22     5     6    1
    23     6     7   ar
    24     7     8   ar
    25     8     9   ar
    26     9    10   ar
    27    10    11   ar
    28    17    18    1
    29    18    19    1
    30    19    14    1
    31    32    23    1
    32    11     2    1
    33    30    25   ar
    34    11     6   ar
    35    13    20    1
    36    13    21    1
    37    32    33    1
@<TRIPOS>MOLECULE
*****
 33 37 0 0 0
SMALL
GASTEIGER

@<TRIPOS>ATOM
      1 N          -9.5695  -19.3609   23.5085 N.3     1  UNL1       -0.2679
      2 C          -9.2125  -18.3068   24.5142 C.3     1  UNL1        0.0978
      3 C          -9.5229  -18.5196   25.9662 C.3     1  UNL1        0.0224
      4 C          -9.1660  -17.4655   26.9718 C.3     1  UNL1        0.0065
      5 C          -8.4986  -16.1985   26.5255 C.3     1  UNL1        0.0277
      6 C          -8.1882  -15.9856   25.0735 C.ar    1  UNL1       -0.0073
      7 C          -7.5208  -14.7186   24.6271 C.ar    1  UNL1       -0.0015
      8 C          -7.2103  -14.5057   23.1751 C.ar    1  UNL1        0.0203
      9 C          -7.5673  -15.5599   22.1695 C.ar    1  UNL1        0.0985
     10 N          -8.2347  -16.8269   22.6158 N.ar    1  UNL1       -0.2471
     11 C          -8.5451  -17.0398   24.0679 C.ar    1  UNL1        0.0695
     12 C         -10.9472  -19.3968   22.9165 C.3     1  UNL1        0.0724
     13 N         -12.5943  -15.2570   18.8978 N.3     1  UNL1       -0.3222
     14 C         -12.1825  -16.2920   19.9025 C.3     1  UNL1        0.0508
     15 C         -11.3510  -17.4644   19.4737 C.3     1  UNL1        0.0155
     16 C         -10.9392  -18.4993   20.4784 C.3     1  UNL1        0.0027
     17 C         -11.3590  -18.3618   21.9118 C.3     1  UNL1        0.0161
     18 C         -12.1905  -17.1894   22.3407 C.3     1  UNL1        0.0027
     19 C         -12.6023  -16.1544   21.3360 C.3     1  UNL1        0.0155
     20 H         -12.2244  -15.5073   17.9808 H       1  UNL1        0.1188
     21 H         -12.2261  -14.3475   19.1763 H       1  UNL1        0.1188
     22 C          -8.5487  -20.3792   23.0949 C.3     1  UNL1        0.0886
     23 C          -7.4420  -19.9942   22.1585 C.3     1  UNL1        0.0748
     24 C          -6.0154  -20.0558   22.6178 C.3     1  UNL1        0.0432
     25 C          -4.9086  -19.6708   21.6813 C.ar    1  UNL1       -0.0234
     26 C          -3.4820  -19.7324   22.1407 C.ar    1  UNL1       -0.0045
     27 C          -2.3754  -19.3474   21.2042 C.ar    1  UNL1       -0.0003
     28 C          -2.6953  -18.9009   19.8084 C.ar    1  UNL1       -0.0003
     29 C          -4.1218  -18.8393   19.3491 C.ar    1  UNL1       -0.0032
     30 C          -5.2285  -19.2243   20.2855 C.ar    1  UNL1       -0.0103
     31 C          -6.6552  -19.1627   19.8262 C.3     1  UNL1        0.0953
     32 N          -7.7619  -19.5477   20.7627 N.3     1  UNL1       -0.2934
     33 H          -8.2710  -20.3118   20.3185 H       1  UNL1        0.1236
@<TRIPOS>BOND
     1    14    13    1
     2    14    15    1
     3    15    16    1
     4    16    17    1
     5    17    12    1
     6    12     1    1
     7     1    22    1
     8    23    22    1
     9    23    24    1
    10    24    25    1
    11    25    26   ar
    12    26    27   ar
    13    27    28   ar
    14    28    29   ar
    15    29    30   ar
    16    30    31    1
    17    31    32    1
    18     2     1    1
    19     2     3    1
    20     3     4    1
    21     4     5    1
    22     5     6    1
    23     6     7   ar
    24     7     8   ar
    25     8     9   ar
    26     9    10   ar
    27    10    11   ar
    28    17    18    1
    29    18    19    1
    30    19    14    1
    31    32    23    1
    32    11     2    1
    33    30    25   ar
    34    11     6   ar
    35    13    20    1
    36    13    21    1
    37    32    33    1
@<TRIPOS>MOLECULE
*****
 33 37 0 0 0
SMALL
GASTEIGER

@<TRIPOS>ATOM
      1 N          -7.3584  -17.8586   22.0999 N.3     1  UNL1       -0.2679
      2 C          -8.4535  -18.4294   21.2483 C.3     1  UNL1        0.0978
      3 C          -8.1132  -19.2414   20.0339 C.3     1  UNL1        0.0224
      4 C          -9.2082  -19.8122   19.1824 C.3     1  UNL1        0.0065
      5 C         -10.6435  -19.5710   19.5453 C.3     1  UNL1        0.0277
      6 C         -10.9838  -18.7590   20.7597 C.ar    1  UNL1       -0.0073
      7 C         -12.4191  -18.5178   21.1226 C.ar    1  UNL1       -0.0015
      8 C         -12.7594  -17.7058   22.3370 C.ar    1  UNL1        0.0203
      9 C         -11.6644  -17.1350   23.1885 C.ar    1  UNL1        0.0985
     10 N         -10.2291  -17.3762   22.8257 N.ar    1  UNL1       -0.2471
     11 C          -9.8888  -18.1882   21.6112 C.ar    1  UNL1        0.0695
     12 C          -7.3544  -16.3968   22.4359 C.3     1  UNL1        0.0724
     13 N          -6.7271  -14.6303   28.1356 N.3     1  UNL1       -0.3222
     14 C          -6.8840  -15.0719   26.7106 C.3     1  UNL1        0.0508
     15 C          -8.2350  -15.4664   26.1921 C.3     1  UNL1        0.0155
     16 C          -8.3918  -15.9080   24.7671 C.3     1  UNL1        0.0027
     17 C          -7.1976  -15.9552   23.8608 C.3     1  UNL1        0.0161
     18 C          -5.8464  -15.5607   24.3794 C.3     1  UNL1        0.0027
     19 C          -5.6896  -15.1191   25.8043 C.3     1  UNL1        0.0155
     20 H          -7.6338  -14.6588   28.6021 H       1  UNL1        0.1188
     21 H          -6.3629  -13.6779   28.1582 H       1  UNL1        0.1188
     22 C          -6.2675  -18.7496   22.6154 C.3     1  UNL1        0.0886
     23 C          -4.9363  -18.7820   21.9246 C.3     1  UNL1        0.0748
     24 C          -4.0227  -17.5949   22.0009 C.3     1  UNL1        0.0432
     25 C          -2.6915  -17.6273   21.3101 C.ar    1  UNL1       -0.0234
     26 C          -1.7779  -16.4401   21.3864 C.ar    1  UNL1       -0.0045
     27 C          -0.4468  -16.4726   20.6956 C.ar    1  UNL1       -0.0003
     28 C          -0.0294  -17.6922   19.9286 C.ar    1  UNL1       -0.0003
     29 C          -0.9431  -18.8793   19.8523 C.ar    1  UNL1       -0.0032
     30 C          -2.2741  -18.8469   20.5431 C.ar    1  UNL1       -0.0103
     31 C          -3.1879  -20.0341   20.4668 C.3     1  UNL1        0.0953
     32 N          -4.5189  -20.0016   21.1575 N.3     1  UNL1       -0.2934
     33 H          -4.5282  -20.7808   21.8156 H       1  UNL1        0.1236
@<TRIPOS>BOND
     1    14    13    1
     2    14    15    1
     3    15    16    1
     4    16    17    1
     5    17    12    1
     6    12     1    1
     7     1    22    1
     8    23    22    1
     9    23    24    1
    10    24    25    1
    11    25    26   ar
    12    26    27   ar
    13    27    28   ar
    14    28    29   ar
    15    29    30   ar
    16    30    31    1
    17    31    32    1
    18     2     1    1
    19     2     3    1
    20     3     4    1
    21     4     5    1
    22     5     6    1
    23     6     7   ar
    24     7     8   ar
    25     8     9   ar
    26     9    10   ar
    27    10    11   ar
    28    17    18    1
    29    18    19    1
    30    19    14    1
    31    32    23    1
    32    11     2    1
    33    30    25   ar
    34    11     6   ar
    35    13    20    1
    36    13    21    1
    37    32    33    1
@<TRIPOS>MOLECULE
*****
 33 37 0 0 0
SMALL
GASTEIGER

@<TRIPOS>ATOM
      1 N          -6.5176  -18.5614   22.0984 N.3     1  UNL1       -0.2679
      2 C          -5.4258  -19.2055   21.2964 C.3     1  UNL1        0.0978
      3 C          -5.7131  -20.4394   20.4933 C.3     1  UNL1        0.0224
      4 C          -4.6213  -21.0834   19.6913 C.3     1  UNL1        0.0065
      5 C          -3.2422  -20.4935   19.6924 C.3     1  UNL1        0.0277
      6 C          -2.9549  -19.2596   20.4954 C.ar    1  UNL1       -0.0073
      7 C          -1.5757  -18.6696   20.4964 C.ar    1  UNL1       -0.0015
      8 C          -1.2884  -17.4357   21.2995 C.ar    1  UNL1        0.0203
      9 C          -2.3802  -16.7917   22.1015 C.ar    1  UNL1        0.0985
     10 N          -3.7593  -17.3816   22.1004 N.ar    1  UNL1       -0.2471
     11 C          -4.0467  -18.6156   21.2974 C.ar    1  UNL1        0.0695
     12 C          -6.5653  -17.0687   22.2375 C.3     1  UNL1        0.0724
     13 N          -6.9274  -14.5732   27.6819 N.3     1  UNL1       -0.3222
     14 C          -6.8369  -15.1971   26.3208 C.3     1  UNL1        0.0508
     15 C          -8.0871  -15.4915   25.5461 C.3     1  UNL1        0.0155
     16 C          -7.9965  -16.1154   24.1850 C.3     1  UNL1        0.0027
     17 C          -6.6558  -16.4448   23.5986 C.3     1  UNL1        0.0161
     18 C          -5.4055  -16.1504   24.3734 C.3     1  UNL1        0.0027
     19 C          -5.4961  -15.5265   25.7345 C.3     1  UNL1        0.0155
     20 H          -7.9070  -14.4189   27.9207 H       1  UNL1        0.1188
     21 H          -6.4331  -13.6810   27.6805 H       1  UNL1        0.1188
     22 C          -7.5617  -19.4102   22.7612 C.3     1  UNL1        0.0886
     23 C          -9.0042  -19.0020   22.7088 C.3     1  UNL1        0.0748
     24 C          -9.8725  -19.1585   23.9218 C.3     1  UNL1        0.0432
     25 C         -11.3150  -18.7504   23.8694 C.ar    1  UNL1       -0.0234
     26 C         -12.1833  -18.9069   25.0825 C.ar    1  UNL1       -0.0045
     27 C         -13.6257  -18.4987   25.0301 C.ar    1  UNL1       -0.0003
     28 C         -14.1998  -17.9340   23.7646 C.ar    1  UNL1       -0.0003
     29 C         -13.3316  -17.7775   22.5515 C.ar    1  UNL1       -0.0032
     30 C         -11.8892  -18.1857   22.6039 C.ar    1  UNL1       -0.0103
     31 C         -11.0208  -18.0291   21.3908 C.3     1  UNL1        0.0953
     32 N          -9.5784  -18.4373   21.4433 N.3     1  UNL1       -0.2934
     33 H          -9.0294  -17.6085   21.2150 H       1  UNL1        0.1236
@<TRIPOS>BOND
     1    14    13    1
     2    14    15    1
     3    15    16    1
     4    16    17    1
     5    17    12    1
     6    12     1    1
     7     1    22    1
     8    23    22    1
     9    23    24    1
    10    24    25    1
    11    25    26   ar
    12    26    27   ar
    13    27    28   ar
    14    28    29   ar
    15    29    30   ar
    16    30    31    1
    17    31    32    1
    18     2     1    1
    19     2     3    1
    20     3     4    1
    21     4     5    1
    22     5     6    1
    23     6     7   ar
    24     7     8   ar
    25     8     9   ar
    26     9    10   ar
    27    10    11   ar
    28    17    18    1
    29    18    19    1
    30    19    14    1
    31    32    23    1
    32    11     2    1
    33    30    25   ar
    34    11     6   ar
    35    13    20    1
    36    13    21    1
    37    32    33    1
