@<TRIPOS>MOLECULE
*****
 30 34 0 0 0
SMALL
GASTEIGER

@<TRIPOS>ATOM
      1 O          -1.8045    3.7469   19.2428 O.2     1  UNL1       -0.2526
      2 C          -1.2484    2.8889   20.3404 C.2     1  UNL1        0.3039
      3 N          -1.7951    3.0040   21.7324 N.am    1  UNL1       -0.2901
      4 N          -0.1455    1.9157   20.0458 N.am    1  UNL1       -0.2640
      5 C           0.4012    1.8006   18.6538 C.3     1  UNL1        0.0985
      6 C           1.5040    0.8275   18.3592 C.3     1  UNL1        0.0617
      7 C           2.0602   -0.0305   19.4568 C.3     1  UNL1        0.1392
      8 C           1.5135    0.0846   20.8488 C.3     1  UNL1        0.0617
      9 C           0.4106    1.0577   21.1433 C.3     1  UNL1        0.0985
     10 C           2.6069   -0.1457   18.0647 C.3     1  UNL1        0.0756
     11 C           3.7098   -1.1188   17.7702 C.3     1  UNL1        0.1566
     12 O           4.2565   -1.2339   16.3781 O.3     1  UNL1       -0.3783
     13 C           4.2659   -1.9768   18.8677 C.ar    1  UNL1        0.1195
     14 N           5.3688   -2.9499   18.5731 N.ar    1  UNL1       -0.2427
     15 C           5.9249   -3.8079   19.6706 C.ar    1  UNL1        0.0988
     16 C           5.3781   -3.6928   21.0627 C.ar    1  UNL1        0.0238
     17 C           4.2753   -2.7197   21.3572 C.ar    1  UNL1        0.0398
     18 C           3.7192   -1.8617   20.2597 C.ar    1  UNL1        0.1540
     19 O           2.6163   -0.8885   20.5543 O.3     1  UNL1       -0.4811
     20 H          -1.4301    2.4408   22.4527 H       1  UNL1        0.1509
     21 H           4.9583   -1.9033   16.3607 H       1  UNL1        0.2109
     22 C          -2.8980    3.9771   22.0270 C.3     1  UNL1        0.0774
     23 C          -3.4920    5.0416   22.9009 C.3     1  UNL1        0.0259
     24 C          -4.2141    4.5981   21.6632 C.3     1  UNL1        0.0420
     25 C          -5.3907    4.7005   20.7386 C.ar    1  UNL1       -0.0208
     26 C          -6.3476    5.8485   20.8669 C.ar    1  UNL1       -0.0042
     27 C          -7.5243    5.9509   19.9423 C.ar    1  UNL1       -0.0003
     28 C          -7.7441    4.9053   18.8894 C.ar    1  UNL1       -0.0000
     29 C          -6.7872    3.7573   18.7612 C.ar    1  UNL1       -0.0003
     30 C          -5.6105    3.6549   19.6858 C.ar    1  UNL1       -0.0042
@<TRIPOS>BOND
     1     1     2    2
     2     2     3   am
     3    22     3    1
     4    22    23    1
     5    23    24    1
     6    24    25    1
     7    25    26   ar
     8    26    27   ar
     9    27    28   ar
    10    28    29   ar
    11    29    30   ar
    12     2     4   am
    13     4     5    1
    14     5     6    1
    15     6     7    1
    16     7     8    1
    17     8     9    1
    18     7    10    1
    19    10    11    1
    20    11    12    1
    21    11    13    1
    22    13    14   ar
    23    14    15   ar
    24    15    16   ar
    25    16    17   ar
    26    17    18   ar
    27    18    19    1
    28    24    22    1
    29    30    25   ar
    30     9     4    1
    31    18    13   ar
    32    19     7    1
    33     3    20    1
    34    12    21    1
@<TRIPOS>MOLECULE
*****
 30 34 0 0 0
SMALL
GASTEIGER

@<TRIPOS>ATOM
      1 O          -1.1993    4.4022   19.4414 O.2     1  UNL1       -0.2526
      2 C          -1.1026    3.0736   20.1310 C.2     1  UNL1        0.3039
      3 N          -2.0958    2.7058   21.1931 N.am    1  UNL1       -0.2901
      4 N          -0.0125    2.1128   19.7584 N.am    1  UNL1       -0.2640
      5 C           0.9807    2.4807   18.6962 C.3     1  UNL1        0.0985
      6 C           2.0707    1.5199   18.3237 C.3     1  UNL1        0.0617
      7 C           2.1675    0.1913   19.0132 C.3     1  UNL1        0.1392
      8 C           1.1743   -0.1765   20.0754 C.3     1  UNL1        0.0617
      9 C           0.0843    0.7843   20.4480 C.3     1  UNL1        0.0985
     10 C           3.1607    0.5591   17.9510 C.3     1  UNL1        0.0756
     11 C           4.2507   -0.4016   17.5785 C.3     1  UNL1        0.1566
     12 O           5.2440   -0.0338   16.5163 O.3     1  UNL1       -0.3783
     13 C           4.3475   -1.7302   18.2681 C.ar    1  UNL1        0.1195
     14 N           5.4376   -2.6909   17.8954 N.ar    1  UNL1       -0.2427
     15 C           5.5344   -4.0195   18.5850 C.ar    1  UNL1        0.0988
     16 C           4.5411   -4.3873   19.6472 C.ar    1  UNL1        0.0238
     17 C           3.4511   -3.4266   20.0198 C.ar    1  UNL1        0.0398
     18 C           3.3543   -2.0980   19.3302 C.ar    1  UNL1        0.1540
     19 O           2.2642   -1.1372   19.7028 O.3     1  UNL1       -0.4811
     20 H          -2.0322    1.8338   21.6457 H       1  UNL1        0.1509
     21 H           5.8758   -0.7604   16.3989 H       1  UNL1        0.2109
     22 C          -3.1858    3.6666   21.5657 C.3     1  UNL1        0.0774
     23 C          -4.2352    4.6600   21.1636 C.3     1  UNL1        0.0259
     24 C          -4.0244    4.3371   22.6132 C.3     1  UNL1        0.0420
     25 C          -4.3868    4.5378   24.0548 C.ar    1  UNL1       -0.0208
     26 C          -3.6281    3.8131   25.1268 C.ar    1  UNL1       -0.0042
     27 C          -3.9905    4.0138   26.5684 C.ar    1  UNL1       -0.0003
     28 C          -5.1116    4.9393   26.9381 C.ar    1  UNL1       -0.0000
     29 C          -5.8703    5.6640   25.8662 C.ar    1  UNL1       -0.0003
     30 C          -5.5079    5.4633   24.4245 C.ar    1  UNL1       -0.0042
@<TRIPOS>BOND
     1     1     2    2
     2     2     3   am
     3    22     3    1
     4    22    23    1
     5    23    24    1
     6    24    25    1
     7    25    26   ar
     8    26    27   ar
     9    27    28   ar
    10    28    29   ar
    11    29    30   ar
    12     2     4   am
    13     4     5    1
    14     5     6    1
    15     6     7    1
    16     7     8    1
    17     8     9    1
    18     7    10    1
    19    10    11    1
    20    11    12    1
    21    11    13    1
    22    13    14   ar
    23    14    15   ar
    24    15    16   ar
    25    16    17   ar
    26    17    18   ar
    27    18    19    1
    28    24    22    1
    29    30    25   ar
    30     9     4    1
    31    18    13   ar
    32    19     7    1
    33     3    20    1
    34    12    21    1
@<TRIPOS>MOLECULE
*****
 30 34 0 0 0
SMALL
GASTEIGER

@<TRIPOS>ATOM
      1 O           6.4763   -4.6122   20.7985 O.2     1  UNL1       -0.2526
      2 C           5.9163   -3.8329   21.9513 C.2     1  UNL1        0.3039
      3 N           6.4282   -4.0760   23.3401 N.am    1  UNL1       -0.2901
      4 N           4.8444   -2.8104   21.7153 N.am    1  UNL1       -0.2640
      5 C           4.3326   -2.5673   20.3264 C.3     1  UNL1        0.0985
      6 C           3.2607   -1.5449   20.0905 C.3     1  UNL1        0.0617
      7 C           2.7007   -0.7656   21.2433 C.3     1  UNL1        0.1392
      8 C           3.2126   -1.0087   22.6321 C.3     1  UNL1        0.0617
      9 C           4.2844   -2.0311   22.8681 C.3     1  UNL1        0.0985
     10 C           2.1888   -0.5224   19.8544 C.3     1  UNL1        0.0756
     11 C           1.1170    0.5000   19.6184 C.3     1  UNL1        0.1566
     12 O           0.6051    0.7432   18.2296 O.3     1  UNL1       -0.3783
     13 C           0.5570    1.2794   20.7713 C.ar    1  UNL1        0.1195
     14 N          -0.5149    2.3018   20.5353 N.ar    1  UNL1       -0.2427
     15 C          -1.0749    3.0812   21.6881 C.ar    1  UNL1        0.0988
     16 C          -0.5630    2.8380   23.0770 C.ar    1  UNL1        0.0238
     17 C           0.5088    1.8156   23.3130 C.ar    1  UNL1        0.0398
     18 C           1.0688    1.0362   22.1601 C.ar    1  UNL1        0.1540
     19 O           2.1407    0.0138   22.3962 O.3     1  UNL1       -0.4811
     20 H           6.0606   -3.5645   24.0968 H       1  UNL1        0.1509
     21 H          -0.0797    1.4298   18.2529 H       1  UNL1        0.2109
     22 C           7.5001   -5.0985   23.5762 C.3     1  UNL1        0.0774
     23 C           8.6268   -5.9426   23.0585 C.3     1  UNL1        0.0259
     24 C           8.2299   -6.0253   24.5026 C.3     1  UNL1        0.0420
     25 C           8.4221   -6.6082   25.8713 C.ar    1  UNL1       -0.0208
     26 C           8.8645   -5.7309   27.0047 C.ar    1  UNL1       -0.0042
     27 C           9.0567   -6.3137   28.3734 C.ar    1  UNL1       -0.0003
     28 C           8.8065   -7.7739   28.6087 C.ar    1  UNL1       -0.0000
     29 C           8.3642   -8.6512   27.4753 C.ar    1  UNL1       -0.0003
     30 C           8.1719   -8.0683   26.1065 C.ar    1  UNL1       -0.0042
@<TRIPOS>BOND
     1     1     2    2
     2     2     3   am
     3    22     3    1
     4    22    23    1
     5    23    24    1
     6    24    25    1
     7    25    26   ar
     8    26    27   ar
     9    27    28   ar
    10    28    29   ar
    11    29    30   ar
    12     2     4   am
    13     4     5    1
    14     5     6    1
    15     6     7    1
    16     7     8    1
    17     8     9    1
    18     7    10    1
    19    10    11    1
    20    11    12    1
    21    11    13    1
    22    13    14   ar
    23    14    15   ar
    24    15    16   ar
    25    16    17   ar
    26    17    18   ar
    27    18    19    1
    28    24    22    1
    29    30    25   ar
    30     9     4    1
    31    18    13   ar
    32    19     7    1
    33     3    20    1
    34    12    21    1
@<TRIPOS>MOLECULE
*****
 30 34 0 0 0
SMALL
GASTEIGER

@<TRIPOS>ATOM
      1 O           7.0574   -4.6584   20.9498 O.2     1  UNL1       -0.2526
      2 C           6.5009   -3.9344   22.1398 C.2     1  UNL1        0.3039
      3 N           5.6250   -2.7325   21.9444 N.am    1  UNL1       -0.2901
      4 N           6.8203   -4.4124   23.5253 N.am    1  UNL1       -0.2640
      5 C           7.6962   -5.6143   23.7208 C.3     1  UNL1        0.0985
      6 C           8.0156   -6.0922   25.1062 C.3     1  UNL1        0.0617
      7 C           7.4591   -5.3682   26.2963 C.3     1  UNL1        0.1392
      8 C           6.5832   -4.1663   26.1008 C.3     1  UNL1        0.0617
      9 C           6.2638   -3.6884   24.7154 C.3     1  UNL1        0.0985
     10 C           8.3350   -6.5701   26.4918 C.3     1  UNL1        0.0756
     11 C           8.6544   -7.0480   27.8772 C.3     1  UNL1        0.1566
     12 O           9.5303   -8.2500   28.0727 O.3     1  UNL1       -0.3783
     13 C           8.0979   -6.3241   29.0672 C.ar    1  UNL1        0.1195
     14 N           8.4173   -6.8020   30.4528 N.ar    1  UNL1       -0.2427
     15 C           7.8608   -6.0780   31.6428 C.ar    1  UNL1        0.0988
     16 C           6.9848   -4.8761   31.4473 C.ar    1  UNL1        0.0238
     17 C           6.6654   -4.3982   30.0618 C.ar    1  UNL1        0.0398
     18 C           7.2220   -5.1222   28.8718 C.ar    1  UNL1        0.1540
     19 O           6.9025   -4.6442   27.4863 O.3     1  UNL1       -0.4811
     20 H           5.2597   -2.2574   22.7254 H       1  UNL1        0.1509
     21 H           9.6357   -8.4224   29.0215 H       1  UNL1        0.2109
     22 C           5.3056   -2.2546   20.5588 C.3     1  UNL1        0.0774
     23 C           5.6039   -2.2393   19.0889 C.3     1  UNL1        0.0259
     24 C           4.4540   -1.4420   19.6291 C.3     1  UNL1        0.0420
     25 C           3.2984   -0.5125   19.4041 C.ar    1  UNL1       -0.0208
     26 C           1.9353   -0.8728   19.9162 C.ar    1  UNL1       -0.0042
     27 C           0.7798    0.0566   19.6913 C.ar    1  UNL1       -0.0003
     28 C           0.9872    1.3465   18.9542 C.ar    1  UNL1       -0.0000
     29 C           2.3503    1.7069   18.4421 C.ar    1  UNL1       -0.0003
     30 C           3.5059    0.7773   18.6671 C.ar    1  UNL1       -0.0042
@<TRIPOS>BOND
     1     1     2    2
     2     2     3   am
     3    22     3    1
     4    22    23    1
     5    23    24    1
     6    24    25    1
     7    25    26   ar
     8    26    27   ar
     9    27    28   ar
    10    28    29   ar
    11    29    30   ar
    12     2     4   am
    13     4     5    1
    14     5     6    1
    15     6     7    1
    16     7     8    1
    17     8     9    1
    18     7    10    1
    19    10    11    1
    20    11    12    1
    21    11    13    1
    22    13    14   ar
    23    14    15   ar
    24    15    16   ar
    25    16    17   ar
    26    17    18   ar
    27    18    19    1
    28    24    22    1
    29    30    25   ar
    30     9     4    1
    31    18    13   ar
    32    19     7    1
    33     3    20    1
    34    12    21    1
@<TRIPOS>MOLECULE
*****
 30 34 0 0 0
SMALL
GASTEIGER

@<TRIPOS>ATOM
      1 O          -1.0290    3.4376   22.6152 O.2     1  UNL1       -0.2526
      2 C          -0.8939    2.5496   21.4139 C.2     1  UNL1        0.3039
      3 N          -1.8216    2.7196   20.2475 N.am    1  UNL1       -0.2901
      4 N           0.1689    1.4916   21.3789 N.am    1  UNL1       -0.2640
      5 C           1.0966    1.3217   22.5453 C.3     1  UNL1        0.0985
      6 C           2.1593    0.2637   22.5103 C.3     1  UNL1        0.0617
      7 C           2.2944   -0.6243   21.3090 C.3     1  UNL1        0.1392
      8 C           1.3667   -0.4543   20.1426 C.3     1  UNL1        0.0617
      9 C           0.3040    0.6036   20.1776 C.3     1  UNL1        0.0985
     10 C           3.2222   -0.7943   22.4754 C.3     1  UNL1        0.0756
     11 C           4.2849   -1.8522   22.4404 C.3     1  UNL1        0.1566
     12 O           5.2127   -2.0222   23.6068 O.3     1  UNL1       -0.3783
     13 C           4.4200   -2.7402   21.2390 C.ar    1  UNL1        0.1195
     14 N           5.4828   -3.7982   21.2041 N.ar    1  UNL1       -0.2427
     15 C           5.6179   -4.6861   20.0027 C.ar    1  UNL1        0.0988
     16 C           4.6901   -4.5161   18.8363 C.ar    1  UNL1        0.0238
     17 C           3.6274   -3.4582   18.8713 C.ar    1  UNL1        0.0398
     18 C           3.4923   -2.5702   20.0727 C.ar    1  UNL1        0.1540
     19 O           2.4295   -1.5122   20.1076 O.3     1  UNL1       -0.4811
     20 H          -1.7330    2.1367   19.4590 H       1  UNL1        0.1509
     21 H           5.8343   -2.7438   23.4230 H       1  UNL1        0.2109
     22 C          -2.8845    3.7775   20.2824 C.3     1  UNL1        0.0774
     23 C          -3.5575    4.9638   19.6582 C.3     1  UNL1        0.0259
     24 C          -4.0522    4.4237   20.9672 C.3     1  UNL1        0.0420
     25 C          -5.0120    4.4848   22.1183 C.ar    1  UNL1       -0.0208
     26 C          -6.3643    5.1075   21.9349 C.ar    1  UNL1       -0.0042
     27 C          -7.3241    5.1687   23.0860 C.ar    1  UNL1       -0.0003
     28 C          -6.9316    4.6071   24.4205 C.ar    1  UNL1       -0.0000
     29 C          -5.5793    3.9844   24.6038 C.ar    1  UNL1       -0.0003
     30 C          -4.6195    3.9233   23.4526 C.ar    1  UNL1       -0.0042
@<TRIPOS>BOND
     1     1     2    2
     2     2     3   am
     3    22     3    1
     4    22    23    1
     5    23    24    1
     6    24    25    1
     7    25    26   ar
     8    26    27   ar
     9    27    28   ar
    10    28    29   ar
    11    29    30   ar
    12     2     4   am
    13     4     5    1
    14     5     6    1
    15     6     7    1
    16     7     8    1
    17     8     9    1
    18     7    10    1
    19    10    11    1
    20    11    12    1
    21    11    13    1
    22    13    14   ar
    23    14    15   ar
    24    15    16   ar
    25    16    17   ar
    26    17    18   ar
    27    18    19    1
    28    24    22    1
    29    30    25   ar
    30     9     4    1
    31    18    13   ar
    32    19     7    1
    33     3    20    1
    34    12    21    1
@<TRIPOS>MOLECULE
*****
 30 34 0 0 0
SMALL
GASTEIGER

@<TRIPOS>ATOM
      1 O          -1.6309    2.7350   21.0463 O.2     1  UNL1       -0.2526
      2 C          -0.3778    2.3602   21.7807 C.2     1  UNL1        0.3039
      3 N          -0.2216    2.7185   23.2288 N.am    1  UNL1       -0.2901
      4 N           0.7190    1.6270   21.0668 N.am    1  UNL1       -0.2640
      5 C           0.5627    1.2687   19.6187 C.3     1  UNL1        0.0985
      6 C           1.6595    0.5356   18.9049 C.3     1  UNL1        0.0617
      7 C           2.9126    0.1608   19.6392 C.3     1  UNL1        0.1392
      8 C           3.0689    0.5191   21.0874 C.3     1  UNL1        0.0617
      9 C           1.9721    1.2522   21.8011 C.3     1  UNL1        0.0985
     10 C           2.7563   -0.1975   18.1910 C.3     1  UNL1        0.0756
     11 C           3.8531   -0.9306   17.4772 C.3     1  UNL1        0.1566
     12 O           3.6969   -1.2890   16.0290 O.3     1  UNL1       -0.3783
     13 C           5.1062   -1.3054   18.2116 C.ar    1  UNL1        0.1195
     14 N           6.2031   -2.0386   17.4977 N.ar    1  UNL1       -0.2427
     15 C           7.4562   -2.4134   18.2321 C.ar    1  UNL1        0.0988
     16 C           7.6124   -2.0550   19.6803 C.ar    1  UNL1        0.0238
     17 C           6.5156   -1.3219   20.3941 C.ar    1  UNL1        0.0398
     18 C           5.2625   -0.9471   19.6597 C.ar    1  UNL1        0.1540
     19 O           4.1657   -0.2140   20.3736 O.3     1  UNL1       -0.4811
     20 H           0.6009    2.4725   23.7108 H       1  UNL1        0.1509
     21 H           4.4904   -1.7562   15.7241 H       1  UNL1        0.2109
     22 C          -1.3184    3.4517   23.9426 C.3     1  UNL1        0.0774
     23 C          -1.8551    4.0953   25.1867 C.3     1  UNL1        0.0259
     24 C          -2.6814    4.0779   23.9350 C.3     1  UNL1        0.0420
     25 C          -3.9454    4.4293   23.2079 C.ar    1  UNL1       -0.0208
     26 C          -4.9516    3.3621   22.8940 C.ar    1  UNL1       -0.0042
     27 C          -6.2156    3.7136   22.1669 C.ar    1  UNL1       -0.0003
     28 C          -6.4734    5.1324   21.7536 C.ar    1  UNL1       -0.0000
     29 C          -5.4672    6.1996   22.0676 C.ar    1  UNL1       -0.0003
     30 C          -4.2032    5.8481   22.7947 C.ar    1  UNL1       -0.0042
@<TRIPOS>BOND
     1     1     2    2
     2     2     3   am
     3    22     3    1
     4    22    23    1
     5    23    24    1
     6    24    25    1
     7    25    26   ar
     8    26    27   ar
     9    27    28   ar
    10    28    29   ar
    11    29    30   ar
    12     2     4   am
    13     4     5    1
    14     5     6    1
    15     6     7    1
    16     7     8    1
    17     8     9    1
    18     7    10    1
    19    10    11    1
    20    11    12    1
    21    11    13    1
    22    13    14   ar
    23    14    15   ar
    24    15    16   ar
    25    16    17   ar
    26    17    18   ar
    27    18    19    1
    28    24    22    1
    29    30    25   ar
    30     9     4    1
    31    18    13   ar
    32    19     7    1
    33     3    20    1
    34    12    21    1
@<TRIPOS>MOLECULE
*****
 30 34 0 0 0
SMALL
GASTEIGER

@<TRIPOS>ATOM
      1 O          -0.5293    3.1456   17.4774 O.2     1  UNL1       -0.2526
      2 C          -0.5818    3.2122   18.9750 C.2     1  UNL1        0.3039
      3 N           0.6345    2.8711   19.7839 N.am    1  UNL1       -0.2901
      4 N          -1.8505    3.6199   19.6637 N.am    1  UNL1       -0.2640
      5 C          -3.0667    3.9610   18.8548 C.3     1  UNL1        0.0985
      6 C          -4.3353    4.3687   19.5434 C.3     1  UNL1        0.0617
      7 C          -4.3878    4.4352   21.0410 C.3     1  UNL1        0.1392
      8 C          -3.1715    4.0941   21.8500 C.3     1  UNL1        0.0617
      9 C          -1.9029    3.6865   21.1613 C.3     1  UNL1        0.0985
     10 C          -5.6041    4.7764   20.2321 C.3     1  UNL1        0.0756
     11 C          -6.8727    5.1840   20.9208 C.3     1  UNL1        0.1566
     12 O          -8.0890    5.5252   20.1119 O.3     1  UNL1       -0.3783
     13 C          -6.9251    5.2506   22.4184 C.ar    1  UNL1        0.1195
     14 N          -8.1938    5.6583   23.1071 N.ar    1  UNL1       -0.2427
     15 C          -8.2463    5.7249   24.6047 C.ar    1  UNL1        0.0988
     16 C          -7.0299    5.3837   25.4136 C.ar    1  UNL1        0.0238
     17 C          -5.7613    4.9761   24.7249 C.ar    1  UNL1        0.0398
     18 C          -5.7089    4.9095   23.2273 C.ar    1  UNL1        0.1540
     19 O          -4.4402    4.5018   22.5386 O.3     1  UNL1       -0.4811
     20 H           0.6000    2.9148   20.7669 H       1  UNL1        0.1509
     21 H          -8.8162    5.7656   20.7071 H       1  UNL1        0.2109
     22 C           1.9032    2.4634   19.0953 C.3     1  UNL1        0.0774
     23 C           3.1102    2.8191   18.2789 C.3     1  UNL1        0.0259
     24 C           2.8935    1.4016   18.7188 C.3     1  UNL1        0.0420
     25 C           3.3402   -0.0299   18.7554 C.ar    1  UNL1       -0.0208
     26 C           2.7144   -0.9862   19.7270 C.ar    1  UNL1       -0.0042
     27 C           3.1610   -2.4176   19.7636 C.ar    1  UNL1       -0.0003
     28 C           4.2335   -2.8929   18.8287 C.ar    1  UNL1       -0.0000
     29 C           4.8593   -1.9366   17.8571 C.ar    1  UNL1       -0.0003
     30 C           4.4126   -0.5050   17.8205 C.ar    1  UNL1       -0.0042
@<TRIPOS>BOND
     1     1     2    2
     2     2     3   am
     3    22     3    1
     4    22    23    1
     5    23    24    1
     6    24    25    1
     7    25    26   ar
     8    26    27   ar
     9    27    28   ar
    10    28    29   ar
    11    29    30   ar
    12     2     4   am
    13     4     5    1
    14     5     6    1
    15     6     7    1
    16     7     8    1
    17     8     9    1
    18     7    10    1
    19    10    11    1
    20    11    12    1
    21    11    13    1
    22    13    14   ar
    23    14    15   ar
    24    15    16   ar
    25    16    17   ar
    26    17    18   ar
    27    18    19    1
    28    24    22    1
    29    30    25   ar
    30     9     4    1
    31    18    13   ar
    32    19     7    1
    33     3    20    1
    34    12    21    1
@<TRIPOS>MOLECULE
*****
 30 34 0 0 0
SMALL
GASTEIGER

@<TRIPOS>ATOM
      1 O           2.4033    1.7098   22.1057 O.2     1  UNL1       -0.2526
      2 C           1.2299    2.1262   21.2691 C.2     1  UNL1        0.3039
      3 N           1.3223    2.0817   19.7726 N.am    1  UNL1       -0.2901
      4 N          -0.0358    2.5872   21.9290 N.am    1  UNL1       -0.2640
      5 C          -0.1282    2.6317   23.4255 C.3     1  UNL1        0.0985
      6 C          -1.3939    3.0927   24.0853 C.3     1  UNL1        0.0617
      7 C          -2.5672    3.5091   23.2487 C.3     1  UNL1        0.1392
      8 C          -2.4748    3.4645   21.7523 C.3     1  UNL1        0.0617
      9 C          -1.2091    3.0036   21.0924 C.3     1  UNL1        0.0985
     10 C          -2.6596    3.5536   24.7453 C.3     1  UNL1        0.0756
     11 C          -3.9254    4.0146   25.4051 C.3     1  UNL1        0.1566
     12 O          -4.0178    4.0591   26.9017 O.3     1  UNL1       -0.3783
     13 C          -5.0987    4.4310   24.5685 C.ar    1  UNL1        0.1195
     14 N          -6.3644    4.8920   25.2285 N.ar    1  UNL1       -0.2427
     15 C          -7.5378    5.3084   24.3919 C.ar    1  UNL1        0.0988
     16 C          -7.4453    5.2638   22.8953 C.ar    1  UNL1        0.0238
     17 C          -6.1796    4.8029   22.2355 C.ar    1  UNL1        0.0398
     18 C          -5.0063    4.3865   23.0721 C.ar    1  UNL1        0.1540
     19 O          -3.7405    3.9255   22.4121 O.3     1  UNL1       -0.4811
     20 H           0.5522    2.3550   19.2235 H       1  UNL1        0.1509
     21 H          -4.8963    4.3776   27.1620 H       1  UNL1        0.2109
     22 C           2.5881    1.6207   19.1127 C.3     1  UNL1        0.0774
     23 C           3.8298    1.9258   18.3284 C.3     1  UNL1        0.0259
     24 C           3.5387    0.5172   18.7539 C.3     1  UNL1        0.0420
     25 C           3.9194   -0.9331   18.7924 C.ar    1  UNL1       -0.0208
     26 C           5.1374   -1.4086   18.0574 C.ar    1  UNL1       -0.0042
     27 C           5.5181   -2.8589   18.0959 C.ar    1  UNL1       -0.0003
     28 C           4.6808   -3.8339   18.8695 C.ar    1  UNL1       -0.0000
     29 C           3.4627   -3.3584   19.6045 C.ar    1  UNL1       -0.0003
     30 C           3.0820   -1.9080   19.5660 C.ar    1  UNL1       -0.0042
@<TRIPOS>BOND
     1     1     2    2
     2     2     3   am
     3    22     3    1
     4    22    23    1
     5    23    24    1
     6    24    25    1
     7    25    26   ar
     8    26    27   ar
     9    27    28   ar
    10    28    29   ar
    11    29    30   ar
    12     2     4   am
    13     4     5    1
    14     5     6    1
    15     6     7    1
    16     7     8    1
    17     8     9    1
    18     7    10    1
    19    10    11    1
    20    11    12    1
    21    11    13    1
    22    13    14   ar
    23    14    15   ar
    24    15    16   ar
    25    16    17   ar
    26    17    18   ar
    27    18    19    1
    28    24    22    1
    29    30    25   ar
    30     9     4    1
    31    18    13   ar
    32    19     7    1
    33     3    20    1
    34    12    21    1
@<TRIPOS>MOLECULE
*****
 30 34 0 0 0
SMALL
GASTEIGER

@<TRIPOS>ATOM
      1 O          -0.4178    1.6883   19.9989 O.2     1  UNL1       -0.2526
      2 C           0.2502    1.5629   21.3360 C.2     1  UNL1        0.3039
      3 N          -0.1489    2.4701   22.4619 N.am    1  UNL1       -0.2901
      4 N           1.3175    0.5302   21.5473 N.am    1  UNL1       -0.2640
      5 C           1.7166   -0.3771   20.4215 C.3     1  UNL1        0.0985
      6 C           2.7838   -1.4097   20.6328 C.3     1  UNL1        0.0617
      7 C           3.4518   -1.5351   21.9699 C.3     1  UNL1        0.1392
      8 C           3.0527   -0.6279   23.0957 C.3     1  UNL1        0.0617
      9 C           1.9855    0.4047   22.8844 C.3     1  UNL1        0.0985
     10 C           3.8510   -2.4425   20.8440 C.3     1  UNL1        0.0756
     11 C           4.9182   -3.4751   21.0553 C.3     1  UNL1        0.1566
     12 O           5.3174   -4.3824   19.9294 O.3     1  UNL1       -0.3783
     13 C           5.5863   -3.6005   22.3924 C.ar    1  UNL1        0.1195
     14 N           6.6535   -4.6333   22.6037 N.ar    1  UNL1       -0.2427
     15 C           7.3216   -4.7587   23.9408 C.ar    1  UNL1        0.0988
     16 C           6.9224   -3.8514   25.0667 C.ar    1  UNL1        0.0238
     17 C           5.8552   -2.8187   24.8554 C.ar    1  UNL1        0.0398
     18 C           5.1872   -2.6933   23.5183 C.ar    1  UNL1        0.1540
     19 O           4.1199   -1.6606   23.3070 O.3     1  UNL1       -0.4811
     20 H           0.2896    2.3878   23.3395 H       1  UNL1        0.1509
     21 H           6.0142   -4.9856   20.2318 H       1  UNL1        0.2109
     22 C          -1.2161    3.5029   22.2506 C.3     1  UNL1        0.0774
     23 C          -1.8904    4.7774   22.6639 C.3     1  UNL1        0.0259
     24 C          -2.3903    4.0170   21.4715 C.3     1  UNL1        0.0420
     25 C          -3.3568    3.8747   20.3333 C.ar    1  UNL1       -0.0208
     26 C          -4.7660    3.4335   20.5967 C.ar    1  UNL1       -0.0042
     27 C          -5.7326    3.2912   19.4585 C.ar    1  UNL1       -0.0003
     28 C          -5.2899    3.5901   18.0568 C.ar    1  UNL1       -0.0000
     29 C          -3.8806    4.0314   17.7934 C.ar    1  UNL1       -0.0003
     30 C          -2.9141    4.1736   18.9317 C.ar    1  UNL1       -0.0042
@<TRIPOS>BOND
     1     1     2    2
     2     2     3   am
     3    22     3    1
     4    22    23    1
     5    23    24    1
     6    24    25    1
     7    25    26   ar
     8    26    27   ar
     9    27    28   ar
    10    28    29   ar
    11    29    30   ar
    12     2     4   am
    13     4     5    1
    14     5     6    1
    15     6     7    1
    16     7     8    1
    17     8     9    1
    18     7    10    1
    19    10    11    1
    20    11    12    1
    21    11    13    1
    22    13    14   ar
    23    14    15   ar
    24    15    16   ar
    25    16    17   ar
    26    17    18   ar
    27    18    19    1
    28    24    22    1
    29    30    25   ar
    30     9     4    1
    31    18    13   ar
    32    19     7    1
    33     3    20    1
    34    12    21    1
