@<TRIPOS>MOLECULE
*****
 35 38 0 0 0
SMALL
GASTEIGER

@<TRIPOS>ATOM
      1 C          -9.5577  -19.1073   21.2082 C.ar    1  UNL1        0.0505
      2 C          -8.1305  -18.6658   21.0729 C.ar    1  UNL1        0.0166
      3 C          -7.3487  -19.0220   19.8433 C.ar    1  UNL1        0.0505
      4 C          -7.9940  -19.8197   18.7491 C.ar    1  UNL1        0.0170
      5 C          -9.4211  -20.2612   18.8845 C.ar    1  UNL1        0.0307
      6 C         -10.2030  -19.9050   20.1140 C.ar    1  UNL1        0.1401
      7 F         -11.6301  -20.3464   20.2494 F       1  UNL1       -0.2044
      8 N         -11.9934  -16.3244   19.7681 N.pl3   1  UNL1       -0.2456
      9 C         -11.7028  -17.0146   21.0679 C.2     1  UNL1        0.3504
     10 N         -10.6303  -18.0609   21.1380 N.2     1  UNL1       -0.0690
     11 C         -10.3396  -18.7510   22.4378 C.3     1  UNL1        0.2001
     12 C          -9.2671  -19.7974   22.5079 C.3     1  UNL1        0.0855
     13 C          -8.9765  -20.4874   23.8076 C.3     1  UNL1        0.1468
     14 O          -9.7584  -20.1312   25.0372 O.3     1  UNL1       -0.3535
     15 C         -10.8308  -19.0849   24.9670 C.3     1  UNL1        0.1468
     16 C         -11.1215  -18.3948   23.6673 C.3     1  UNL1        0.0848
     17 C         -12.1940  -17.3484   23.5971 C.3     1  UNL1        0.0861
     18 C         -12.4846  -16.6584   22.2974 C.3     1  UNL1        0.3554
     19 F         -13.4885  -15.9808   23.1823 F       1  UNL1       -0.1914
     20 F         -13.1239  -15.7329   21.3050 F       1  UNL1       -0.1914
     21 H         -11.4803  -16.5582   18.9611 H       1  UNL1        0.2883
     22 H         -12.6973  -15.6377   19.7221 H       1  UNL1        0.2883
     23 N          -5.9216  -18.5805   19.7080 N.am    1  UNL1       -0.2791
     24 C          -4.8734  -19.1397   20.6239 C.2     1  UNL1        0.2688
     25 O          -5.2524  -20.1403   21.6751 O.2     1  UNL1       -0.2681
     26 H          -5.6728  -17.9238   19.0180 H       1  UNL1        0.1552
     27 C          -3.4463  -18.6982   20.4885 C.ar    1  UNL1        0.1541
     28 C          -2.4323  -19.1137   21.5128 C.ar    1  UNL1        0.1258
     29 N          -1.0051  -18.6722   21.3775 N.ar    1  UNL1       -0.2070
     30 C          -0.5919  -17.8153   20.2178 C.ar    1  UNL1        0.2469
     31 C          -1.6059  -17.3998   19.1934 C.ar    1  UNL1        0.1566
     32 N          -3.0330  -17.8413   19.3288 N.ar    1  UNL1       -0.2328
     33 O           0.8352  -17.3738   20.0824 O.3     1  UNL1       -0.4265
     34 C           1.9035  -18.0258   20.9092 C.3     1  UNL1        0.4044
     35 F           3.1489  -17.2665   21.2595 F       1  UNL1       -0.1809
@<TRIPOS>BOND
     1     8     9    1
     2     9    10    2
     3    10    11    1
     4    11     1    1
     5     1     2   ar
     6     2     3   ar
     7     3    23    1
     8    23    24   am
     9    24    25    2
    10    24    27    1
    11    27    28   ar
    12    28    29   ar
    13    29    30   ar
    14    30    33    1
    15    33    34    1
    16    34    35    1
    17    30    31   ar
    18    31    32   ar
    19     3     4   ar
    20     4     5   ar
    21     5     6   ar
    22     6     7    1
    23    11    12    1
    24    12    13    1
    25    13    14    1
    26    14    15    1
    27    16    15    1
    28    16    17    1
    29    17    18    1
    30    18    19    1
    31    18    20    1
    32    18     9    1
    33    16    11    1
    34     6     1   ar
    35    32    27   ar
    36     8    21    1
    37     8    22    1
    38    23    26    1
@<TRIPOS>MOLECULE
*****
 35 38 0 0 0
SMALL
GASTEIGER

@<TRIPOS>ATOM
      1 C          -9.8291  -18.7776   20.7869 C.ar    1  UNL1        0.0505
      2 C          -8.4125  -18.2841   20.7828 C.ar    1  UNL1        0.0166
      3 C          -7.4131  -18.8810   19.8367 C.ar    1  UNL1        0.0505
      4 C          -7.8303  -19.9714   18.8948 C.ar    1  UNL1        0.0170
      5 C          -9.2468  -20.4648   18.8990 C.ar    1  UNL1        0.0307
      6 C         -10.2462  -19.8679   19.8450 C.ar    1  UNL1        0.1401
      7 F         -11.6626  -20.3614   19.8492 F       1  UNL1       -0.2044
      8 N          -9.1380  -20.9181   24.0567 N.pl3   1  UNL1       -0.2456
      9 C         -10.0346  -19.8067   23.5974 C.2     1  UNL1        0.3504
     10 N          -9.9318  -19.2922   22.1922 N.2     1  UNL1       -0.0690
     11 C         -10.8284  -18.1807   21.7329 C.3     1  UNL1        0.2001
     12 C         -10.7256  -17.6662   20.3277 C.3     1  UNL1        0.0855
     13 C         -11.6222  -16.5548   19.8685 C.3     1  UNL1        0.1468
     14 O         -12.6216  -15.9579   20.8146 O.3     1  UNL1       -0.3535
     15 C         -12.7244  -16.4724   22.2198 C.3     1  UNL1        0.1468
     16 C         -11.8278  -17.5838   22.6790 C.3     1  UNL1        0.0848
     17 C         -11.9305  -18.0984   24.0843 C.3     1  UNL1        0.0861
     18 C         -11.0340  -19.2098   24.5434 C.3     1  UNL1        0.3554
     19 F         -11.8163  -18.9699   25.8005 F       1  UNL1       -0.1914
     20 F         -10.4091  -20.2379   25.4392 F       1  UNL1       -0.1914
     21 H          -8.4821  -21.3099   23.4358 H       1  UNL1        0.2883
     22 H          -9.2054  -21.2558   24.9790 H       1  UNL1        0.2883
     23 N          -5.9967  -18.3876   19.8326 N.am    1  UNL1       -0.2791
     24 C          -4.8688  -19.3432   20.0873 C.2     1  UNL1        0.2688
     25 O          -5.1575  -20.7922   20.3462 O.2     1  UNL1       -0.2681
     26 H          -5.8072  -17.4365   19.6626 H       1  UNL1        0.1552
     27 C          -3.4523  -18.8497   20.0831 C.ar    1  UNL1        0.1541
     28 C          -2.4773  -19.3603   21.1022 C.ar    1  UNL1        0.1258
     29 N          -1.0607  -18.8669   21.0981 N.ar    1  UNL1       -0.2070
     30 C          -0.6193  -17.8629   20.0748 C.ar    1  UNL1        0.2469
     31 C          -1.5944  -17.3523   19.0557 C.ar    1  UNL1        0.1566
     32 N          -3.0109  -17.8457   19.0599 N.ar    1  UNL1       -0.2328
     33 O           0.7972  -17.3694   20.0707 O.3     1  UNL1       -0.4265
     34 C           1.7996  -17.9593   21.0179 C.3     1  UNL1        0.4044
     35 F           3.1470  -17.3196   21.1780 F       1  UNL1       -0.1809
@<TRIPOS>BOND
     1     8     9    1
     2     9    10    2
     3    10    11    1
     4    11     1    1
     5     1     2   ar
     6     2     3   ar
     7     3    23    1
     8    23    24   am
     9    24    25    2
    10    24    27    1
    11    27    28   ar
    12    28    29   ar
    13    29    30   ar
    14    30    33    1
    15    33    34    1
    16    34    35    1
    17    30    31   ar
    18    31    32   ar
    19     3     4   ar
    20     4     5   ar
    21     5     6   ar
    22     6     7    1
    23    11    12    1
    24    12    13    1
    25    13    14    1
    26    14    15    1
    27    16    15    1
    28    16    17    1
    29    17    18    1
    30    18    19    1
    31    18    20    1
    32    18     9    1
    33    16    11    1
    34     6     1   ar
    35    32    27   ar
    36     8    21    1
    37     8    22    1
    38    23    26    1
@<TRIPOS>MOLECULE
*****
 35 38 0 0 0
SMALL
GASTEIGER

@<TRIPOS>ATOM
      1 C          -8.7375  -16.4708   23.8732 C.ar    1  UNL1        0.0505
      2 C          -7.4126  -16.6794   23.2014 C.ar    1  UNL1        0.0166
      3 C          -6.1664  -16.1035   23.8056 C.ar    1  UNL1        0.0505
      4 C          -6.2450  -15.3189   25.0817 C.ar    1  UNL1        0.0170
      5 C          -7.5698  -15.1103   25.7535 C.ar    1  UNL1        0.0307
      6 C          -8.8160  -15.6862   25.1492 C.ar    1  UNL1        0.1401
      7 F         -10.1408  -15.4776   25.8210 F       1  UNL1       -0.2044
      8 N          -9.0191  -14.3247   20.5467 N.pl3   1  UNL1       -0.2456
      9 C          -9.7561  -15.4240   21.2527 C.2     1  UNL1        0.3504
     10 N          -9.2468  -15.9474   22.5629 N.2     1  UNL1       -0.0690
     11 C          -9.9838  -17.0467   23.2690 C.3     1  UNL1        0.2001
     12 C          -9.4745  -17.5700   24.5792 C.3     1  UNL1        0.0855
     13 C         -10.2114  -18.6693   25.2851 C.3     1  UNL1        0.1468
     14 O         -11.4577  -19.2452   24.6809 O.3     1  UNL1       -0.3535
     15 C         -11.9670  -18.7219   23.3707 C.3     1  UNL1        0.1468
     16 C         -11.2300  -17.6226   22.6647 C.3     1  UNL1        0.0848
     17 C         -11.7393  -17.0992   21.3544 C.3     1  UNL1        0.0861
     18 C         -11.0023  -16.0000   20.6485 C.3     1  UNL1        0.3554
     19 F         -12.1284  -16.2207   19.6826 F       1  UNL1       -0.1914
     20 F         -10.6564  -14.9773   19.6070 F       1  UNL1       -0.1914
     21 H          -8.2011  -13.9467   20.9433 H       1  UNL1        0.2883
     22 H          -9.3534  -13.9812   19.6867 H       1  UNL1        0.2883
     23 N          -4.8415  -16.3121   23.1339 N.am    1  UNL1       -0.2791
     24 C          -4.5105  -17.6425   22.5251 C.2     1  UNL1        0.2688
     25 O          -5.5044  -18.7643   22.5881 O.2     1  UNL1       -0.2681
     26 H          -4.1893  -15.5759   23.0925 H       1  UNL1        0.1552
     27 C          -3.1857  -17.8512   21.8533 C.ar    1  UNL1        0.1541
     28 C          -2.6388  -19.2381   21.6881 C.ar    1  UNL1        0.1258
     29 N          -1.3140  -19.4467   21.0163 N.ar    1  UNL1       -0.2070
     30 C          -0.5360  -18.2685   20.5098 C.ar    1  UNL1        0.2469
     31 C          -1.0830  -16.8815   20.6751 C.ar    1  UNL1        0.1566
     32 N          -2.4078  -16.6729   21.3469 N.ar    1  UNL1       -0.2328
     33 O           0.7888  -18.4771   19.8380 O.3     1  UNL1       -0.4265
     34 C           1.8973  -17.4874   20.0422 C.3     1  UNL1        0.4044
     35 F           2.8551  -17.6590   21.1839 F       1  UNL1       -0.1809
@<TRIPOS>BOND
     1     8     9    1
     2     9    10    2
     3    10    11    1
     4    11     1    1
     5     1     2   ar
     6     2     3   ar
     7     3    23    1
     8    23    24   am
     9    24    25    2
    10    24    27    1
    11    27    28   ar
    12    28    29   ar
    13    29    30   ar
    14    30    33    1
    15    33    34    1
    16    34    35    1
    17    30    31   ar
    18    31    32   ar
    19     3     4   ar
    20     4     5   ar
    21     5     6   ar
    22     6     7    1
    23    11    12    1
    24    12    13    1
    25    13    14    1
    26    14    15    1
    27    16    15    1
    28    16    17    1
    29    17    18    1
    30    18    19    1
    31    18    20    1
    32    18     9    1
    33    16    11    1
    34     6     1   ar
    35    32    27   ar
    36     8    21    1
    37     8    22    1
    38    23    26    1
@<TRIPOS>MOLECULE
*****
 35 38 0 0 0
SMALL
GASTEIGER

@<TRIPOS>ATOM
      1 C           2.8343   -0.9450   20.3559 C.ar    1  UNL1        0.0505
      2 C           1.5397   -0.3446   20.8182 C.ar    1  UNL1        0.0166
      3 C           0.7861    0.5938   19.9228 C.ar    1  UNL1        0.0505
      4 C           1.3272    0.9317   18.5652 C.ar    1  UNL1        0.0170
      5 C           2.6217    0.3313   18.1030 C.ar    1  UNL1        0.0307
      6 C           3.3752   -0.6071   18.9983 C.ar    1  UNL1        0.1401
      7 F           4.6698   -1.2075   18.5361 F       1  UNL1       -0.2044
      8 N           3.3128    1.3178   23.5810 N.pl3   1  UNL1       -0.2456
      9 C           3.6557   -0.0620   23.1029 C.2     1  UNL1        0.3504
     10 N           3.2450   -0.5035   21.7294 N.2     1  UNL1       -0.0690
     11 C           3.5878   -1.8833   21.2513 C.3     1  UNL1        0.2001
     12 C           3.1771   -2.3248   19.8778 C.3     1  UNL1        0.0855
     13 C           3.5200   -3.7046   19.3998 C.3     1  UNL1        0.1468
     14 O           4.2735   -4.6429   20.2951 O.3     1  UNL1       -0.3535
     15 C           4.6842   -4.2015   21.6686 C.3     1  UNL1        0.1468
     16 C           4.3414   -2.8217   22.1467 C.3     1  UNL1        0.0848
     17 C           4.7521   -2.3802   23.5202 C.3     1  UNL1        0.0861
     18 C           4.4092   -1.0004   23.9983 C.3     1  UNL1        0.3554
     19 F           5.1307   -1.5225   25.2052 F       1  UNL1       -0.1914
     20 F           4.3169    0.1981   24.8955 F       1  UNL1       -0.1914
     21 H           2.8183    1.9337   22.9934 H       1  UNL1        0.2883
     22 H           3.5824    1.6075   24.4825 H       1  UNL1        0.2883
     23 N          -0.5084    1.1942   20.3851 N.am    1  UNL1       -0.2791
     24 C          -0.5230    2.5612   21.0024 C.2     1  UNL1        0.2688
     25 O           0.7570    3.3278   21.1574 O.2     1  UNL1       -0.2681
     26 H          -1.3484    0.6910   20.2833 H       1  UNL1        0.1552
     27 C          -1.8175    3.1616   21.4646 C.ar    1  UNL1        0.1541
     28 C          -1.8348    4.0924   22.6407 C.ar    1  UNL1        0.1258
     29 N          -3.1294    4.6929   23.1030 N.ar    1  UNL1       -0.2070
     30 C          -4.4066    4.3625   22.3891 C.ar    1  UNL1        0.2469
     31 C          -4.3892    3.4317   21.2129 C.ar    1  UNL1        0.1566
     32 N          -3.0947    2.8313   20.7507 N.ar    1  UNL1       -0.2328
     33 O          -5.7011    4.9629   22.8513 O.3     1  UNL1       -0.4265
     34 C          -7.0045    4.3689   22.4062 C.3     1  UNL1        0.4044
     35 F          -8.0961    4.1218   23.4050 F       1  UNL1       -0.1809
@<TRIPOS>BOND
     1     8     9    1
     2     9    10    2
     3    10    11    1
     4    11     1    1
     5     1     2   ar
     6     2     3   ar
     7     3    23    1
     8    23    24   am
     9    24    25    2
    10    24    27    1
    11    27    28   ar
    12    28    29   ar
    13    29    30   ar
    14    30    33    1
    15    33    34    1
    16    34    35    1
    17    30    31   ar
    18    31    32   ar
    19     3     4   ar
    20     4     5   ar
    21     5     6   ar
    22     6     7    1
    23    11    12    1
    24    12    13    1
    25    13    14    1
    26    14    15    1
    27    16    15    1
    28    16    17    1
    29    17    18    1
    30    18    19    1
    31    18    20    1
    32    18     9    1
    33    16    11    1
    34     6     1   ar
    35    32    27   ar
    36     8    21    1
    37     8    22    1
    38    23    26    1
@<TRIPOS>MOLECULE
*****
 35 38 0 0 0
SMALL
GASTEIGER

@<TRIPOS>ATOM
      1 C          -8.7986  -18.7049   21.7936 C.ar    1  UNL1        0.0505
      2 C          -7.3360  -18.5058   21.5268 C.ar    1  UNL1        0.0166
      3 C          -6.7626  -18.8629   20.1875 C.ar    1  UNL1        0.0505
      4 C          -7.6518  -19.4191   19.1150 C.ar    1  UNL1        0.0170
      5 C          -9.1143  -19.6182   19.3819 C.ar    1  UNL1        0.0307
      6 C          -9.6877  -19.2611   20.7212 C.ar    1  UNL1        0.1401
      7 F         -11.1503  -19.4602   20.9881 F       1  UNL1       -0.2044
      8 N          -7.2312  -15.1006   22.3437 N.pl3   1  UNL1       -0.2456
      9 C          -8.1360  -16.0640   23.0532 C.2     1  UNL1        0.3504
     10 N          -8.4673  -17.3844   22.4234 N.2     1  UNL1       -0.0690
     11 C          -9.3720  -18.3479   23.1329 C.3     1  UNL1        0.2001
     12 C          -9.7033  -19.6683   22.5031 C.3     1  UNL1        0.0855
     13 C         -10.6080  -20.6316   23.2126 C.3     1  UNL1        0.1468
     14 O         -11.1815  -20.2746   24.5518 O.3     1  UNL1       -0.3535
     15 C         -10.8502  -18.9542   25.1817 C.3     1  UNL1        0.1468
     16 C          -9.9455  -17.9908   24.4722 C.3     1  UNL1        0.0848
     17 C          -9.6141  -16.6703   25.1020 C.3     1  UNL1        0.0861
     18 C          -8.7094  -15.7070   24.3925 C.3     1  UNL1        0.3554
     19 F          -9.0042  -14.9205   25.6352 F       1  UNL1       -0.1914
     20 F          -7.9071  -14.4704   24.1146 F       1  UNL1       -0.1914
     21 H          -6.8549  -15.3349   21.4647 H       1  UNL1        0.2883
     22 H          -7.0138  -14.2339   22.7571 H       1  UNL1        0.2883
     23 N          -5.3000  -18.6638   19.9206 N.am    1  UNL1       -0.2791
     24 C          -4.3790  -18.2783   21.0401 C.2     1  UNL1        0.2688
     25 O          -4.9206  -18.0919   22.4264 O.2     1  UNL1       -0.2681
     26 H          -4.9445  -18.7862   19.0107 H       1  UNL1        0.1552
     27 C          -2.9164  -18.0793   20.7732 C.ar    1  UNL1        0.1541
     28 C          -2.0637  -19.2431   20.3629 C.ar    1  UNL1        0.1258
     29 N          -0.6011  -19.0440   20.0960 N.ar    1  UNL1       -0.2070
     30 C           0.0088  -17.6811   20.2394 C.ar    1  UNL1        0.2469
     31 C          -0.8440  -16.5173   20.6498 C.ar    1  UNL1        0.1566
     32 N          -2.3066  -16.7164   20.9166 N.ar    1  UNL1       -0.2328
     33 O           1.4713  -17.4821   19.9726 O.3     1  UNL1       -0.4265
     34 C           2.4739  -17.7427   21.0574 C.3     1  UNL1        0.4044
     35 F           3.8549  -17.1659   20.9567 F       1  UNL1       -0.1809
@<TRIPOS>BOND
     1     8     9    1
     2     9    10    2
     3    10    11    1
     4    11     1    1
     5     1     2   ar
     6     2     3   ar
     7     3    23    1
     8    23    24   am
     9    24    25    2
    10    24    27    1
    11    27    28   ar
    12    28    29   ar
    13    29    30   ar
    14    30    33    1
    15    33    34    1
    16    34    35    1
    17    30    31   ar
    18    31    32   ar
    19     3     4   ar
    20     4     5   ar
    21     5     6   ar
    22     6     7    1
    23    11    12    1
    24    12    13    1
    25    13    14    1
    26    14    15    1
    27    16    15    1
    28    16    17    1
    29    17    18    1
    30    18    19    1
    31    18    20    1
    32    18     9    1
    33    16    11    1
    34     6     1   ar
    35    32    27   ar
    36     8    21    1
    37     8    22    1
    38    23    26    1
@<TRIPOS>MOLECULE
*****
 35 38 0 0 0
SMALL
GASTEIGER

@<TRIPOS>ATOM
      1 C           3.7851   -1.2318   19.6752 C.ar    1  UNL1        0.0505
      2 C           3.9692   -1.5855   21.1213 C.ar    1  UNL1        0.0166
      3 C           4.5365   -2.9213   21.5003 C.ar    1  UNL1        0.0505
      4 C           4.9197   -3.9035   20.4332 C.ar    1  UNL1        0.0170
      5 C           4.7357   -3.5498   18.9872 C.ar    1  UNL1        0.0307
      6 C           4.1684   -2.2139   18.6082 C.ar    1  UNL1        0.1401
      7 F           3.9844   -1.8602   17.1622 F       1  UNL1       -0.2044
      8 N           6.9779    0.5181   18.0955 N.pl3   1  UNL1       -0.2456
      9 C           5.5354    0.8253   18.3694 C.2     1  UNL1        0.3504
     10 N           4.6603   -0.2032   19.0223 N.2     1  UNL1       -0.0690
     11 C           3.2178    0.1041   19.2961 C.3     1  UNL1        0.2001
     12 C           2.3428   -0.9245   19.9490 C.3     1  UNL1        0.0855
     13 C           0.9004   -0.6172   20.2228 C.3     1  UNL1        0.1468
     14 O           0.3331    0.7187   19.8438 O.3     1  UNL1       -0.3535
     15 C           1.2082    1.7472   19.1909 C.3     1  UNL1        0.1468
     16 C           2.6505    1.4399   18.9171 C.3     1  UNL1        0.0848
     17 C           3.5257    2.4685   18.2642 C.3     1  UNL1        0.0861
     18 C           4.9681    2.1612   17.9904 C.3     1  UNL1        0.3554
     19 F           4.8926    3.5589   17.4513 F       1  UNL1       -0.1914
     20 F           6.3843    2.3393   17.5293 F       1  UNL1       -0.1914
     21 H           7.3502   -0.3587   18.3443 H       1  UNL1        0.2883
     22 H           7.5522    1.1931   17.6670 H       1  UNL1        0.2883
     23 N           4.7205   -3.2751   22.9463 N.am    1  UNL1       -0.2791
     24 C           5.9451   -2.8158   23.6808 C.2     1  UNL1        0.2688
     25 O           6.9856   -2.0028   22.9692 O.2     1  UNL1       -0.2681
     26 H           4.0376   -3.8087   23.4133 H       1  UNL1        0.1552
     27 C           6.1292   -3.1695   25.1268 C.ar    1  UNL1        0.1541
     28 C           5.7351   -2.1919   26.1940 C.ar    1  UNL1        0.1258
     29 N           5.9191   -2.5456   27.6401 N.ar    1  UNL1       -0.2070
     30 C           6.4972   -3.8769   28.0189 C.ar    1  UNL1        0.2469
     31 C           6.8913   -4.8545   26.9516 C.ar    1  UNL1        0.1566
     32 N           6.7073   -4.5008   25.5056 N.ar    1  UNL1       -0.2328
     33 O           6.6813   -4.2307   29.4649 O.3     1  UNL1       -0.4265
     34 C           6.9088   -5.6584   29.8646 C.3     1  UNL1        0.4044
     35 F           6.8234   -6.0557   31.3086 F       1  UNL1       -0.1809
@<TRIPOS>BOND
     1     8     9    1
     2     9    10    2
     3    10    11    1
     4    11     1    1
     5     1     2   ar
     6     2     3   ar
     7     3    23    1
     8    23    24   am
     9    24    25    2
    10    24    27    1
    11    27    28   ar
    12    28    29   ar
    13    29    30   ar
    14    30    33    1
    15    33    34    1
    16    34    35    1
    17    30    31   ar
    18    31    32   ar
    19     3     4   ar
    20     4     5   ar
    21     5     6   ar
    22     6     7    1
    23    11    12    1
    24    12    13    1
    25    13    14    1
    26    14    15    1
    27    16    15    1
    28    16    17    1
    29    17    18    1
    30    18    19    1
    31    18    20    1
    32    18     9    1
    33    16    11    1
    34     6     1   ar
    35    32    27   ar
    36     8    21    1
    37     8    22    1
    38    23    26    1
@<TRIPOS>MOLECULE
*****
 35 38 0 0 0
SMALL
GASTEIGER

@<TRIPOS>ATOM
      1 C           2.9339    1.0012   19.1848 C.ar    1  UNL1        0.0505
      2 C           1.5119    1.2899   19.5651 C.ar    1  UNL1        0.0166
      3 C           0.9379    2.6572   19.3392 C.ar    1  UNL1        0.0505
      4 C           1.7859    3.7358   18.7329 C.ar    1  UNL1        0.0170
      5 C           3.2079    3.4471   18.3527 C.ar    1  UNL1        0.0307
      6 C           3.7819    2.0798   18.5786 C.ar    1  UNL1        0.1401
      7 F           5.2038    1.7911   18.1984 F       1  UNL1       -0.2044
      8 N           2.3894    0.5960   23.0951 N.pl3   1  UNL1       -0.2456
      9 C           2.9535   -0.1805   21.9423 C.2     1  UNL1        0.3504
     10 N           2.9437    0.4104   20.5636 N.2     1  UNL1       -0.0690
     11 C           3.5079   -0.3661   19.4108 C.3     1  UNL1        0.2001
     12 C           3.4981    0.2248   18.0321 C.3     1  UNL1        0.0855
     13 C           4.0622   -0.5517   16.8794 C.3     1  UNL1        0.1468
     14 O           4.6362   -1.9190   17.1053 O.3     1  UNL1       -0.3535
     15 C           4.6460   -2.5098   18.4840 C.3     1  UNL1        0.1468
     16 C           4.0819   -1.7334   19.6367 C.3     1  UNL1        0.0848
     17 C           4.0917   -2.3242   21.0155 C.3     1  UNL1        0.0861
     18 C           3.5275   -1.5477   22.1682 C.3     1  UNL1        0.3554
     19 F           3.9574   -2.7959   22.8804 F       1  UNL1       -0.1914
     20 F           3.1127   -1.2048   23.5683 F       1  UNL1       -0.1914
     21 H           2.0126    1.4934   22.9468 H       1  UNL1        0.2883
     22 H           2.3958    0.2082   23.9999 H       1  UNL1        0.2883
     23 N          -0.4841    2.9459   19.7194 N.am    1  UNL1       -0.2791
     24 C          -0.8943    2.9221   21.1621 C.2     1  UNL1        0.2688
     25 O           0.1175    2.6096   22.2245 O.2     1  UNL1       -0.2681
     26 H          -1.1482    3.1510   19.0222 H       1  UNL1        0.1552
     27 C          -2.3162    3.2108   21.5424 C.ar    1  UNL1        0.1541
     28 C          -2.6224    3.8728   22.8530 C.ar    1  UNL1        0.1258
     29 N          -4.0444    4.1616   23.2334 N.ar    1  UNL1       -0.2070
     30 C          -5.1602    3.7882   22.3030 C.ar    1  UNL1        0.2469
     31 C          -4.8540    3.1262   20.9922 C.ar    1  UNL1        0.1566
     32 N          -3.4320    2.8375   20.6120 N.ar    1  UNL1       -0.2328
     33 O          -6.5822    4.0769   22.6832 O.3     1  UNL1       -0.4265
     34 C          -6.8866    5.1419   23.6947 C.3     1  UNL1        0.4044
     35 F          -6.2542    6.4965   23.5710 F       1  UNL1       -0.1809
@<TRIPOS>BOND
     1     8     9    1
     2     9    10    2
     3    10    11    1
     4    11     1    1
     5     1     2   ar
     6     2     3   ar
     7     3    23    1
     8    23    24   am
     9    24    25    2
    10    24    27    1
    11    27    28   ar
    12    28    29   ar
    13    29    30   ar
    14    30    33    1
    15    33    34    1
    16    34    35    1
    17    30    31   ar
    18    31    32   ar
    19     3     4   ar
    20     4     5   ar
    21     5     6   ar
    22     6     7    1
    23    11    12    1
    24    12    13    1
    25    13    14    1
    26    14    15    1
    27    16    15    1
    28    16    17    1
    29    17    18    1
    30    18    19    1
    31    18    20    1
    32    18     9    1
    33    16    11    1
    34     6     1   ar
    35    32    27   ar
    36     8    21    1
    37     8    22    1
    38    23    26    1
@<TRIPOS>MOLECULE
*****
 35 38 0 0 0
SMALL
GASTEIGER

@<TRIPOS>ATOM
      1 C          -2.0407    4.0205   21.2077 C.ar    1  UNL1        0.0505
      2 C          -1.1411    2.8449   20.9652 C.ar    1  UNL1        0.0166
      3 C           0.3415    3.0449   20.8565 C.ar    1  UNL1        0.0505
      4 C           0.9245    4.4206   20.9902 C.ar    1  UNL1        0.0170
      5 C           0.0249    5.5961   21.2327 C.ar    1  UNL1        0.0307
      6 C          -1.4577    5.3961   21.3414 C.ar    1  UNL1        0.1401
      7 F          -2.3573    6.5716   21.5838 F       1  UNL1       -0.2044
      8 N          -3.0714    3.9524   17.3757 N.pl3   1  UNL1       -0.2456
      9 C          -3.7162    3.8418   18.7255 C.2     1  UNL1        0.3504
     10 N          -2.8785    3.9312   19.9665 N.2     1  UNL1       -0.0690
     11 C          -3.5234    3.8205   21.3164 C.3     1  UNL1        0.2001
     12 C          -2.6856    3.9099   22.5574 C.3     1  UNL1        0.0855
     13 C          -3.3305    3.7993   23.9071 C.3     1  UNL1        0.1468
     14 O          -4.8131    3.5993   24.0159 O.3     1  UNL1       -0.3535
     15 C          -5.6509    3.5099   22.7748 C.3     1  UNL1        0.1468
     16 C          -5.0060    3.6205   21.4251 C.3     1  UNL1        0.0848
     17 C          -5.8437    3.5311   20.1840 C.3     1  UNL1        0.0861
     18 C          -5.1989    3.6418   18.8343 C.3     1  UNL1        0.3554
     19 F          -6.6301    3.4580   18.4249 F       1  UNL1       -0.1914
     20 F          -5.0510    3.6886   17.3423 F       1  UNL1       -0.1914
     21 H          -2.0983    4.0837   17.3043 H       1  UNL1        0.2883
     22 H          -3.6212    3.8937   16.5612 H       1  UNL1        0.2883
     23 N           1.2411    1.8694   20.6140 N.am    1  UNL1       -0.2791
     24 C           1.3464    1.2763   19.2402 C.2     1  UNL1        0.2688
     25 O           0.5521    1.8588   18.1089 O.2     1  UNL1       -0.2681
     26 H           1.7624    1.4871   21.3565 H       1  UNL1        0.1552
     27 C           2.2460    0.1008   18.9978 C.ar    1  UNL1        0.1541
     28 C           2.2928   -1.0246   19.9883 C.ar    1  UNL1        0.1258
     29 N           3.1924   -2.2002   19.7459 N.ar    1  UNL1       -0.2070
     30 C           4.0452   -2.2504   18.5129 C.ar    1  UNL1        0.2469
     31 C           3.9983   -1.1249   17.5223 C.ar    1  UNL1        0.1566
     32 N           3.0988    0.0507   17.7648 N.ar    1  UNL1       -0.2328
     33 O           4.9448   -3.4259   18.2704 O.3     1  UNL1       -0.4265
     34 C           4.8288   -4.6490   19.1309 C.3     1  UNL1        0.4044
     35 F           3.5131   -5.3593   19.2515 F       1  UNL1       -0.1809
@<TRIPOS>BOND
     1     8     9    1
     2     9    10    2
     3    10    11    1
     4    11     1    1
     5     1     2   ar
     6     2     3   ar
     7     3    23    1
     8    23    24   am
     9    24    25    2
    10    24    27    1
    11    27    28   ar
    12    28    29   ar
    13    29    30   ar
    14    30    33    1
    15    33    34    1
    16    34    35    1
    17    30    31   ar
    18    31    32   ar
    19     3     4   ar
    20     4     5   ar
    21     5     6   ar
    22     6     7    1
    23    11    12    1
    24    12    13    1
    25    13    14    1
    26    14    15    1
    27    16    15    1
    28    16    17    1
    29    17    18    1
    30    18    19    1
    31    18    20    1
    32    18     9    1
    33    16    11    1
    34     6     1   ar
    35    32    27   ar
    36     8    21    1
    37     8    22    1
    38    23    26    1
@<TRIPOS>MOLECULE
*****
 35 38 0 0 0
SMALL
GASTEIGER

@<TRIPOS>ATOM
      1 C           3.3618   -0.5367   20.5013 C.ar    1  UNL1        0.0505
      2 C           2.0227    0.0495   20.1648 C.ar    1  UNL1        0.0166
      3 C           1.1262    0.5487   21.2589 C.ar    1  UNL1        0.0505
      4 C           1.5688    0.4617   22.6895 C.ar    1  UNL1        0.0170
      5 C           2.9078   -0.1245   23.0259 C.ar    1  UNL1        0.0307
      6 C           3.8044   -0.6237   21.9318 C.ar    1  UNL1        0.1401
      7 F           5.1434   -1.2099   22.2683 F       1  UNL1       -0.2044
      8 N           4.2920    2.8660   18.6827 N.pl3   1  UNL1       -0.2456
      9 C           4.5796    1.3989   18.5595 C.2     1  UNL1        0.3504
     10 N           3.9707    0.4312   19.5304 N.2     1  UNL1       -0.0690
     11 C           4.2584   -1.0359   19.4072 C.3     1  UNL1        0.2001
     12 C           3.6495   -2.0037   20.3780 C.3     1  UNL1        0.0855
     13 C           3.9371   -3.4706   20.2548 C.3     1  UNL1        0.1468
     14 O           4.8336   -3.9698   19.1607 O.3     1  UNL1       -0.3535
     15 C           5.4425   -3.0020   18.1898 C.3     1  UNL1        0.1468
     16 C           5.1549   -1.5351   18.3131 C.3     1  UNL1        0.0848
     17 C           5.7638   -0.5672   17.3422 C.3     1  UNL1        0.0861
     18 C           5.4762    0.8998   17.4654 C.3     1  UNL1        0.3554
     19 F           6.3820    0.9114   16.2700 F       1  UNL1       -0.1914
     20 F           5.5031    2.3708   17.1735 F       1  UNL1       -0.1914
     21 H           3.7036    3.1936   19.4008 H       1  UNL1        0.2883
     22 H           4.6917    3.5012   18.0455 H       1  UNL1        0.2883
     23 N          -0.2128    1.1349   20.9224 N.am    1  UNL1       -0.2791
     24 C          -0.3148    2.5616   20.4702 C.2     1  UNL1        0.2688
     25 O           0.9223    3.4019   20.3545 O.2     1  UNL1       -0.2681
     26 H          -1.0248    0.5834   20.9983 H       1  UNL1        0.1552
     27 C          -1.6539    3.1478   20.1338 C.ar    1  UNL1        0.1541
     28 C          -1.8130    4.0012   18.9105 C.ar    1  UNL1        0.1258
     29 N          -3.1521    4.5874   18.5740 N.ar    1  UNL1       -0.2070
     30 C          -4.3321    4.3203   19.4608 C.ar    1  UNL1        0.2469
     31 C          -4.1729    3.4668   20.6841 C.ar    1  UNL1        0.1566
     32 N          -2.8338    2.8806   21.0205 N.ar    1  UNL1       -0.2328
     33 O          -5.6711    4.9065   19.1243 O.3     1  UNL1       -0.4265
     34 C          -6.8020    4.0089   18.7178 C.3     1  UNL1        0.4044
     35 F          -6.5982    2.5237   18.6626 F       1  UNL1       -0.1809
@<TRIPOS>BOND
     1     8     9    1
     2     9    10    2
     3    10    11    1
     4    11     1    1
     5     1     2   ar
     6     2     3   ar
     7     3    23    1
     8    23    24   am
     9    24    25    2
    10    24    27    1
    11    27    28   ar
    12    28    29   ar
    13    29    30   ar
    14    30    33    1
    15    33    34    1
    16    34    35    1
    17    30    31   ar
    18    31    32   ar
    19     3     4   ar
    20     4     5   ar
    21     5     6   ar
    22     6     7    1
    23    11    12    1
    24    12    13    1
    25    13    14    1
    26    14    15    1
    27    16    15    1
    28    16    17    1
    29    17    18    1
    30    18    19    1
    31    18    20    1
    32    18     9    1
    33    16    11    1
    34     6     1   ar
    35    32    27   ar
    36     8    21    1
    37     8    22    1
    38    23    26    1
