@<TRIPOS>MOLECULE
*****
 38 41 0 0 0
SMALL
GASTEIGER

@<TRIPOS>ATOM
      1 C          -1.8839  -18.0512   23.0041 C.3     1  UNL1        0.0239
      2 C          -2.3663  -17.0387   22.0081 C.3     1  UNL1        0.1012
      3 N          -3.3382  -15.9765   22.4291 N.am    1  UNL1       -0.2879
      4 C          -4.7534  -16.3447   22.7633 C.2     1  UNL1        0.3045
      5 O          -5.1968  -17.7751   22.6764 O.2     1  UNL1       -0.2525
      6 N          -5.7253  -15.2825   23.1843 N.am    1  UNL1       -0.2683
      7 H          -3.0472  -15.0378   22.4861 H       1  UNL1        0.1510
      8 H          -5.4343  -14.3438   23.2413 H       1  UNL1        0.1564
      9 C          -7.1405  -15.6507   23.5185 C.ar    1  UNL1        0.0517
     10 C          -7.5281  -15.9253   24.9412 C.ar    1  UNL1        0.0147
     11 C          -8.9432  -16.2935   25.2753 C.ar    1  UNL1        0.0014
     12 C          -9.9709  -16.3870   24.1867 C.ar    1  UNL1        0.0032
     13 C          -9.5833  -16.1123   22.7639 C.ar    1  UNL1        0.0386
     14 C          -8.1682  -15.7442   22.4298 C.ar    1  UNL1        0.0178
     15 C         -10.6110  -16.2059   21.6752 C.ar    1  UNL1        0.1839
     16 N         -10.3912  -15.8888   20.2257 N.ar    1  UNL1       -0.1081
     17 N         -11.6832  -16.1198   19.4995 N.ar    1  UNL1       -0.0227
     18 N         -12.7015  -16.5797   20.5003 N.ar    1  UNL1       -0.0429
     19 N         -12.0389  -16.6329   21.8449 N.ar    1  UNL1       -0.2113
     20 C         -12.6898  -17.0414   23.1331 C.3     1  UNL1        0.1573
     21 C          -1.8769  -17.0884   20.5910 C.3     1  UNL1        0.1442
     22 O          -0.4548  -16.7306   20.2757 O.3     1  UNL1       -0.3813
     23 H          -0.3043  -16.8144   19.3211 H       1  UNL1        0.2105
     24 C          -2.8097  -17.4959   19.4893 C.3     1  UNL1        0.1034
     25 N          -3.7786  -18.6206   19.7044 N.3     1  UNL1       -0.2706
     26 C          -3.2746  -19.9850   20.0708 C.3     1  UNL1        0.0722
     27 C          -4.2436  -21.1096   20.2860 C.3     1  UNL1        0.0174
     28 C          -5.7165  -20.8699   20.1347 C.3     1  UNL1        0.0031
     29 C          -6.2206  -19.5054   19.7683 C.3     1  UNL1        0.0204
     30 C          -5.2516  -18.3807   19.5532 C.3     1  UNL1        0.0725
     31 C          -7.6935  -19.2656   19.6171 C.3     1  UNL1        0.0277
     32 C          -8.6141  -19.4965   20.7786 C.ar    1  UNL1       -0.0220
     33 C         -10.0833  -19.6879   20.5447 C.ar    1  UNL1       -0.0020
     34 C         -11.0039  -19.9187   21.7062 C.ar    1  UNL1        0.0293
     35 C         -10.4554  -19.9582   23.1017 C.ar    1  UNL1        0.1401
     36 F         -11.3760  -20.1890   24.2632 F       1  UNL1       -0.2042
     37 C          -8.9862  -19.7668   23.3357 C.ar    1  UNL1        0.0293
     38 C          -8.0655  -19.5359   22.1741 C.ar    1  UNL1       -0.0020
@<TRIPOS>BOND
     1     2     1    1
     2     2     3    1
     3     3     4   am
     4     4     5    2
     5     4     6   am
     6     6     9    1
     7     9    10   ar
     8    10    11   ar
     9    11    12   ar
    10    12    13   ar
    11    13    15    1
    12    15    16   ar
    13    16    17   ar
    14    17    18   ar
    15    18    19   ar
    16    19    20    1
    17    13    14   ar
    18     2    21    1
    19    21    22    1
    20    21    24    1
    21    24    25    1
    22    25    26    1
    23    26    27    1
    24    27    28    1
    25    28    29    1
    26    29    31    1
    27    31    32    1
    28    32    33   ar
    29    33    34   ar
    30    34    35   ar
    31    35    36    1
    32    35    37   ar
    33    37    38   ar
    34    29    30    1
    35    14     9   ar
    36    30    25    1
    37    19    15   ar
    38    38    32   ar
    39     3     7    1
    40     6     8    1
    41    22    23    1
@<TRIPOS>MOLECULE
*****
 38 41 0 0 0
SMALL
GASTEIGER

@<TRIPOS>ATOM
      1 C          -1.8872  -18.3701   22.6059 C.3     1  UNL1        0.0239
      2 C          -2.2785  -17.2370   21.7043 C.3     1  UNL1        0.1012
      3 N          -3.0839  -16.0927   22.2443 N.am    1  UNL1       -0.2879
      4 C          -4.4148  -16.3495   22.8869 C.2     1  UNL1        0.3045
      5 O          -4.9403  -17.7507   22.9893 O.2     1  UNL1       -0.2525
      6 N          -5.2202  -15.2052   23.4270 N.am    1  UNL1       -0.2683
      7 H          -2.7391  -15.1730   22.1771 H       1  UNL1        0.1510
      8 H          -4.8754  -14.2855   23.3597 H       1  UNL1        0.1564
      9 C          -6.5511  -15.4620   24.0695 C.ar    1  UNL1        0.0517
     10 C          -6.6764  -15.4538   25.5642 C.ar    1  UNL1        0.0147
     11 C          -8.0073  -15.7106   26.2067 C.ar    1  UNL1        0.0014
     12 C          -9.2129  -15.9756   25.3545 C.ar    1  UNL1        0.0032
     13 C          -9.0876  -15.9839   23.8598 C.ar    1  UNL1        0.0386
     14 C          -7.7567  -15.7271   23.2173 C.ar    1  UNL1        0.0178
     15 C         -10.2932  -16.2490   23.0075 C.ar    1  UNL1        0.1839
     16 N         -11.5497  -16.9397   23.4480 N.ar    1  UNL1       -0.1081
     17 N         -12.4870  -16.9875   22.2779 N.ar    1  UNL1       -0.0227
     18 N         -11.8098  -16.3263   21.1142 N.ar    1  UNL1       -0.0429
     19 N         -10.4539  -15.8699   21.5652 N.ar    1  UNL1       -0.2113
     20 C          -9.4373  -15.1591   20.7218 C.3     1  UNL1        0.1573
     21 C          -1.8645  -17.2483   20.2626 C.3     1  UNL1        0.1442
     22 O          -0.5003  -16.7638   19.8702 O.3     1  UNL1       -0.3813
     23 H          -0.3949  -16.8379   18.9088 H       1  UNL1        0.2105
     24 C          -2.8147  -17.7442   19.2132 C.3     1  UNL1        0.1034
     25 N          -3.8587  -18.7615   19.5672 N.3     1  UNL1       -0.2706
     26 C          -3.4519  -20.1603   19.9249 C.3     1  UNL1        0.0722
     27 C          -4.4959  -21.1776   20.2789 C.3     1  UNL1        0.0174
     28 C          -5.9465  -20.7961   20.2751 C.3     1  UNL1        0.0031
     29 C          -6.3533  -19.3973   19.9173 C.3     1  UNL1        0.0204
     30 C          -5.3094  -18.3800   19.5634 C.3     1  UNL1        0.0725
     31 C          -7.8040  -19.0159   19.9135 C.3     1  UNL1        0.0277
     32 C          -8.6734  -19.3613   21.0861 C.ar    1  UNL1       -0.0220
     33 C          -8.0934  -19.3830   22.4692 C.ar    1  UNL1       -0.0020
     34 C          -8.9628  -19.7284   23.6417 C.ar    1  UNL1        0.0293
     35 C         -10.4122  -20.0521   23.4311 C.ar    1  UNL1        0.1401
     36 F         -11.2816  -20.3976   24.6037 F       1  UNL1       -0.2042
     37 C         -10.9922  -20.0305   22.0480 C.ar    1  UNL1        0.0293
     38 C         -10.1228  -19.6850   20.8755 C.ar    1  UNL1       -0.0020
@<TRIPOS>BOND
     1     2     1    1
     2     2     3    1
     3     3     4   am
     4     4     5    2
     5     4     6   am
     6     6     9    1
     7     9    10   ar
     8    10    11   ar
     9    11    12   ar
    10    12    13   ar
    11    13    15    1
    12    15    16   ar
    13    16    17   ar
    14    17    18   ar
    15    18    19   ar
    16    19    20    1
    17    13    14   ar
    18     2    21    1
    19    21    22    1
    20    21    24    1
    21    24    25    1
    22    25    26    1
    23    26    27    1
    24    27    28    1
    25    28    29    1
    26    29    31    1
    27    31    32    1
    28    32    33   ar
    29    33    34   ar
    30    34    35   ar
    31    35    36    1
    32    35    37   ar
    33    37    38   ar
    34    29    30    1
    35    14     9   ar
    36    30    25    1
    37    19    15   ar
    38    38    32   ar
    39     3     7    1
    40     6     8    1
    41    22    23    1
@<TRIPOS>MOLECULE
*****
 38 41 0 0 0
SMALL
GASTEIGER

@<TRIPOS>ATOM
      1 C         -13.6828  -18.1413   22.9617 C.3     1  UNL1        0.0239
      2 C         -12.2223  -17.8897   22.7307 C.3     1  UNL1        0.1012
      3 N         -11.5853  -16.6363   23.2533 N.am    1  UNL1       -0.2879
      4 C         -10.1891  -16.6764   23.8003 C.2     1  UNL1        0.3045
      5 O          -9.4300  -17.9699   23.8247 O.2     1  UNL1       -0.2525
      6 N          -9.5521  -15.4230   24.3230 N.am    1  UNL1       -0.2683
      7 H         -12.0835  -15.7874   23.2373 H       1  UNL1        0.1510
      8 H         -10.0504  -14.5740   24.3070 H       1  UNL1        0.1564
      9 C          -8.1559  -15.4631   24.8700 C.ar    1  UNL1        0.0517
     10 C          -7.9267  -15.3618   26.3489 C.ar    1  UNL1        0.0147
     11 C          -6.5305  -15.4018   26.8958 C.ar    1  UNL1        0.0014
     12 C          -5.3637  -15.5432   25.9639 C.ar    1  UNL1        0.0032
     13 C          -5.5930  -15.6445   24.4850 C.ar    1  UNL1        0.0386
     14 C          -6.9891  -15.6044   23.9381 C.ar    1  UNL1        0.0178
     15 C          -4.4261  -15.7858   23.5531 C.ar    1  UNL1        0.1839
     16 N          -3.9521  -14.7557   22.5712 N.ar    1  UNL1       -0.1081
     17 N          -2.7615  -15.3154   21.8507 N.ar    1  UNL1       -0.0227
     18 N          -2.4996  -16.6914   22.3873 N.ar    1  UNL1       -0.0429
     19 N          -3.5284  -16.9821   23.4395 N.ar    1  UNL1       -0.2113
     20 C          -3.6398  -18.2471   24.2378 C.3     1  UNL1        0.1573
     21 C         -11.3987  -18.8916   21.9770 C.3     1  UNL1        0.1442
     22 O         -11.2365  -20.2836   22.5118 O.3     1  UNL1       -0.3813
     23 H         -10.6789  -20.7989   21.9082 H       1  UNL1        0.2105
     24 C         -10.7372  -18.5014   20.6885 C.3     1  UNL1        0.1034
     25 N          -9.5335  -19.2547   20.2052 N.3     1  UNL1       -0.2706
     26 C          -9.5885  -20.0026   18.9061 C.3     1  UNL1        0.0722
     27 C          -8.3848  -20.7559   18.4228 C.3     1  UNL1        0.0174
     28 C          -7.1261  -20.7614   19.2386 C.3     1  UNL1        0.0031
     29 C          -7.0710  -20.0135   20.5378 C.3     1  UNL1        0.0204
     30 C          -8.2747  -19.2602   21.0211 C.3     1  UNL1        0.0725
     31 C          -5.8123  -20.0189   21.3535 C.3     1  UNL1        0.0277
     32 C          -4.5269  -19.5325   20.7525 C.ar    1  UNL1       -0.0220
     33 C          -3.2167  -20.0656   21.2515 C.ar    1  UNL1       -0.0020
     34 C          -1.9313  -19.5792   20.6505 C.ar    1  UNL1        0.0293
     35 C          -1.9562  -18.5597   19.5505 C.ar    1  UNL1        0.1401
     36 F          -0.6708  -18.0733   18.9495 F       1  UNL1       -0.2042
     37 C          -3.2664  -18.0266   19.0516 C.ar    1  UNL1        0.0293
     38 C          -4.5518  -18.5130   19.6526 C.ar    1  UNL1       -0.0020
@<TRIPOS>BOND
     1     2     1    1
     2     2     3    1
     3     3     4   am
     4     4     5    2
     5     4     6   am
     6     6     9    1
     7     9    10   ar
     8    10    11   ar
     9    11    12   ar
    10    12    13   ar
    11    13    15    1
    12    15    16   ar
    13    16    17   ar
    14    17    18   ar
    15    18    19   ar
    16    19    20    1
    17    13    14   ar
    18     2    21    1
    19    21    22    1
    20    21    24    1
    21    24    25    1
    22    25    26    1
    23    26    27    1
    24    27    28    1
    25    28    29    1
    26    29    31    1
    27    31    32    1
    28    32    33   ar
    29    33    34   ar
    30    34    35   ar
    31    35    36    1
    32    35    37   ar
    33    37    38   ar
    34    29    30    1
    35    14     9   ar
    36    30    25    1
    37    19    15   ar
    38    38    32   ar
    39     3     7    1
    40     6     8    1
    41    22    23    1
@<TRIPOS>MOLECULE
*****
 38 41 0 0 0
SMALL
GASTEIGER

@<TRIPOS>ATOM
      1 C          -1.6834  -18.2584   22.6330 C.3     1  UNL1        0.0239
      2 C          -2.3238  -17.2333   21.7448 C.3     1  UNL1        0.1012
      3 N          -3.1309  -16.1204   22.3447 N.am    1  UNL1       -0.2879
      4 C          -4.3105  -16.4348   23.2164 C.2     1  UNL1        0.3045
      5 O          -4.6829  -17.8622   23.4882 O.2     1  UNL1       -0.2525
      6 N          -5.1176  -15.3218   23.8163 N.am    1  UNL1       -0.2683
      7 H          -2.8865  -15.1835   22.1663 H       1  UNL1        0.1510
      8 H          -4.8731  -14.3850   23.6379 H       1  UNL1        0.1564
      9 C          -6.2972  -15.6362   24.6880 C.ar    1  UNL1        0.0517
     10 C          -6.2065  -15.4395   26.1722 C.ar    1  UNL1        0.0147
     11 C          -7.3861  -15.7539   27.0438 C.ar    1  UNL1        0.0014
     12 C          -8.6563  -16.2651   26.4312 C.ar    1  UNL1        0.0032
     13 C          -8.7469  -16.4619   24.9470 C.ar    1  UNL1        0.0386
     14 C          -7.5674  -16.1475   24.0754 C.ar    1  UNL1        0.0178
     15 C         -10.0171  -16.9731   24.3344 C.ar    1  UNL1        0.1839
     16 N         -11.0423  -16.1489   23.6135 N.ar    1  UNL1       -0.1081
     17 N         -12.1439  -17.0647   23.1687 N.ar    1  UNL1       -0.0227
     18 N         -11.7995  -18.4548   23.6146 N.ar    1  UNL1       -0.0429
     19 N         -10.4851  -18.3982   24.3350 N.ar    1  UNL1       -0.2113
     20 C          -9.7650  -19.5624   24.9484 C.3     1  UNL1        0.1573
     21 C          -2.1571  -17.3212   20.2567 C.3     1  UNL1        0.1442
     22 O          -0.8341  -16.9951   19.6296 O.3     1  UNL1       -0.3813
     23 H          -0.8973  -17.1015   18.6676 H       1  UNL1        0.2105
     24 C          -3.3135  -17.7350   19.3956 C.3     1  UNL1        0.1034
     25 N          -4.1780  -18.8904   19.8053 N.3     1  UNL1       -0.2706
     26 C          -3.7799  -20.2904   19.4430 C.3     1  UNL1        0.0722
     27 C          -4.6444  -21.4458   19.8528 C.3     1  UNL1        0.0174
     28 C          -5.9069  -21.2010   20.6248 C.3     1  UNL1        0.0031
     29 C          -6.3050  -19.8009   20.9872 C.3     1  UNL1        0.0204
     30 C          -5.4405  -18.6455   20.5774 C.3     1  UNL1        0.0725
     31 C          -7.5675  -19.5561   21.7592 C.3     1  UNL1        0.0277
     32 C          -8.7087  -18.8235   21.1181 C.ar    1  UNL1       -0.0220
     33 C          -8.7969  -17.3301   21.2268 C.ar    1  UNL1       -0.0020
     34 C          -9.9381  -16.5975   20.5856 C.ar    1  UNL1        0.0293
     35 C         -10.9910  -17.3584   19.8357 C.ar    1  UNL1        0.1401
     36 F         -12.1321  -16.6258   19.1946 F       1  UNL1       -0.2042
     37 C         -10.9028  -18.8518   19.7270 C.ar    1  UNL1        0.0293
     38 C          -9.7616  -19.5844   20.3681 C.ar    1  UNL1       -0.0020
@<TRIPOS>BOND
     1     2     1    1
     2     2     3    1
     3     3     4   am
     4     4     5    2
     5     4     6   am
     6     6     9    1
     7     9    10   ar
     8    10    11   ar
     9    11    12   ar
    10    12    13   ar
    11    13    15    1
    12    15    16   ar
    13    16    17   ar
    14    17    18   ar
    15    18    19   ar
    16    19    20    1
    17    13    14   ar
    18     2    21    1
    19    21    22    1
    20    21    24    1
    21    24    25    1
    22    25    26    1
    23    26    27    1
    24    27    28    1
    25    28    29    1
    26    29    31    1
    27    31    32    1
    28    32    33   ar
    29    33    34   ar
    30    34    35   ar
    31    35    36    1
    32    35    37   ar
    33    37    38   ar
    34    29    30    1
    35    14     9   ar
    36    30    25    1
    37    19    15   ar
    38    38    32   ar
    39     3     7    1
    40     6     8    1
    41    22    23    1
@<TRIPOS>MOLECULE
*****
 38 41 0 0 0
SMALL
GASTEIGER

@<TRIPOS>ATOM
      1 C          -0.4123  -17.0642   20.8090 C.3     1  UNL1        0.0239
      2 C          -1.8594  -17.3479   21.0834 C.3     1  UNL1        0.1012
      3 N          -2.7706  -16.2403   21.5225 N.am    1  UNL1       -0.2879
      4 C          -3.7105  -16.4534   22.6720 C.2     1  UNL1        0.3045
      5 O          -3.7391  -17.7743   23.3824 O.2     1  UNL1       -0.2525
      6 N          -4.6217  -15.3458   23.1111 N.am    1  UNL1       -0.2683
      7 H          -2.7519  -15.3734   21.0563 H       1  UNL1        0.1510
      8 H          -4.6029  -14.4789   22.6448 H       1  UNL1        0.1564
      9 C          -5.5616  -15.5590   24.2606 C.ar    1  UNL1        0.0517
     10 C          -5.2276  -15.0071   25.6147 C.ar    1  UNL1        0.0147
     11 C          -6.1674  -15.2203   26.7642 C.ar    1  UNL1        0.0014
     12 C          -7.4413  -15.9854   26.5594 C.ar    1  UNL1        0.0032
     13 C          -7.7753  -16.5373   25.2053 C.ar    1  UNL1        0.0386
     14 C          -6.8354  -16.3241   24.0559 C.ar    1  UNL1        0.0178
     15 C          -9.0491  -17.3024   25.0005 C.ar    1  UNL1        0.1839
     16 N          -9.4900  -18.5055   25.7802 N.ar    1  UNL1       -0.1081
     17 N         -10.8192  -18.9454   25.2417 N.ar    1  UNL1       -0.0227
     18 N         -11.1997  -18.0141   24.1292 N.ar    1  UNL1       -0.0429
     19 N         -10.1058  -16.9986   23.9801 N.ar    1  UNL1       -0.2113
     20 C         -10.0741  -15.8765   22.9852 C.3     1  UNL1        0.1573
     21 C          -2.3953  -18.7392   20.9189 C.3     1  UNL1        0.1442
     22 O          -1.8027  -19.8693   21.7073 O.3     1  UNL1       -0.3813
     23 H          -2.2608  -20.6946   21.4838 H       1  UNL1        0.2105
     24 C          -3.5237  -19.0004   19.9658 C.3     1  UNL1        0.1034
     25 N          -4.8840  -19.3510   20.4921 N.3     1  UNL1       -0.2706
     26 C          -5.0305  -19.9196   21.8723 C.3     1  UNL1        0.0722
     27 C          -6.3907  -20.2701   22.3986 C.3     1  UNL1        0.0174
     28 C          -7.6044  -20.0520   21.5446 C.3     1  UNL1        0.0031
     29 C          -7.4579  -19.4834   20.1642 C.3     1  UNL1        0.0204
     30 C          -6.0977  -19.1328   19.6380 C.3     1  UNL1        0.0725
     31 C          -8.6716  -19.2653   19.3102 C.3     1  UNL1        0.0277
     32 C          -9.9770  -18.8867   19.9447 C.ar    1  UNL1       -0.0220
     33 C         -10.6985  -19.8687   20.8193 C.ar    1  UNL1       -0.0020
     34 C         -12.0039  -19.4900   21.4538 C.ar    1  UNL1        0.0293
     35 C         -12.5877  -18.1294   21.2138 C.ar    1  UNL1        0.1401
     36 F         -13.8931  -17.7507   21.8483 F       1  UNL1       -0.2042
     37 C         -11.8661  -17.1473   20.3392 C.ar    1  UNL1        0.0293
     38 C         -10.5608  -17.5260   19.7047 C.ar    1  UNL1       -0.0020
@<TRIPOS>BOND
     1     2     1    1
     2     2     3    1
     3     3     4   am
     4     4     5    2
     5     4     6   am
     6     6     9    1
     7     9    10   ar
     8    10    11   ar
     9    11    12   ar
    10    12    13   ar
    11    13    15    1
    12    15    16   ar
    13    16    17   ar
    14    17    18   ar
    15    18    19   ar
    16    19    20    1
    17    13    14   ar
    18     2    21    1
    19    21    22    1
    20    21    24    1
    21    24    25    1
    22    25    26    1
    23    26    27    1
    24    27    28    1
    25    28    29    1
    26    29    31    1
    27    31    32    1
    28    32    33   ar
    29    33    34   ar
    30    34    35   ar
    31    35    36    1
    32    35    37   ar
    33    37    38   ar
    34    29    30    1
    35    14     9   ar
    36    30    25    1
    37    19    15   ar
    38    38    32   ar
    39     3     7    1
    40     6     8    1
    41    22    23    1
