@<TRIPOS>MOLECULE
*****
 19 21 0 0 0
SMALL
GASTEIGER

@<TRIPOS>ATOM
      1 C          -7.5559  -19.1835   19.7563 C.2     1  UNL1        0.0421
      2 C          -6.5923  -20.1095   20.4373 C.2     1  UNL1        0.0034
      3 C          -5.1861  -19.6624   20.7075 C.ar    1  UNL1        0.0033
      4 C          -4.7009  -19.5260   22.1202 C.ar    1  UNL1        0.0033
      5 C          -3.2948  -19.0789   22.3904 C.ar    1  UNL1        0.0402
      6 C          -2.3739  -18.7683   21.2479 C.ar    1  UNL1        0.1764
      7 C          -2.8591  -18.9047   19.8351 C.ar    1  UNL1        0.1764
      8 C          -4.2652  -19.3518   19.5648 C.ar    1  UNL1        0.0402
      9 O          -1.7314  -18.5308   18.9195 O.3     1  UNL1       -0.4346
     10 C          -0.5492  -18.1633   19.7664 C.3     1  UNL1        0.4294
     11 O          -0.9463  -18.3100   21.2054 O.3     1  UNL1       -0.4346
     12 O          -9.2350  -20.6364   18.4072 O.2     1  UNL1       -0.2865
     13 C          -8.9620  -19.6306   19.4861 C.2     1  UNL1        0.1971
     14 C         -10.0951  -19.0718   20.2948 C.ar    1  UNL1        0.0581
     15 C         -10.3399  -19.5712   21.6879 C.ar    1  UNL1        0.0063
     16 C         -11.4729  -19.0125   22.4966 C.ar    1  UNL1        0.0208
     17 C         -12.3612  -17.9544   21.9122 C.ar    1  UNL1        0.0989
     18 N         -12.1164  -17.4550   20.5191 N.ar    1  UNL1       -0.2422
     19 C         -10.9833  -18.0138   19.7104 C.ar    1  UNL1        0.1020
@<TRIPOS>BOND
     1    12    13    2
     2    13     1    1
     3     1     2    2
     4     2     3    1
     5     3     4   ar
     6     4     5   ar
     7     5     6   ar
     8     6     7   ar
     9     7     8   ar
    10     7     9    1
    11     9    10    1
    12    10    11    1
    13    13    14    1
    14    14    15   ar
    15    15    16   ar
    16    16    17   ar
    17    17    18   ar
    18    18    19   ar
    19     8     3   ar
    20    19    14   ar
    21    11     6    1
@<TRIPOS>MOLECULE
*****
 19 21 0 0 0
SMALL
GASTEIGER

@<TRIPOS>ATOM
      1 C          -7.8697  -19.3349   22.4205 C.2     1  UNL1        0.0421
      2 C          -6.8095  -20.3669   22.1733 C.2     1  UNL1        0.0034
      3 C          -5.5203  -19.9747   21.5143 C.ar    1  UNL1        0.0033
      4 C          -5.0662  -20.6843   20.2733 C.ar    1  UNL1        0.0033
      5 C          -3.7770  -20.2922   19.6143 C.ar    1  UNL1        0.0402
      6 C          -2.9420  -19.1904   20.1964 C.ar    1  UNL1        0.1764
      7 C          -3.3961  -18.4808   21.4374 C.ar    1  UNL1        0.1764
      8 C          -4.6852  -18.8729   22.0964 C.ar    1  UNL1        0.0402
      9 O          -2.3700  -17.4412   21.7787 O.3     1  UNL1       -0.4346
     10 C          -1.2818  -17.5084   20.7486 C.3     1  UNL1        0.4294
     11 O          -1.6352  -18.5894   19.7706 O.3     1  UNL1       -0.4346
     12 O          -9.1713  -20.8087   24.1186 O.2     1  UNL1       -0.2865
     13 C          -9.1588  -19.7270   23.0795 C.2     1  UNL1        0.1971
     14 C         -10.4356  -19.0374   22.6993 C.ar    1  UNL1        0.0581
     15 C         -11.4590  -18.7218   23.7495 C.ar    1  UNL1        0.0063
     16 C         -12.7357  -18.0322   23.3693 C.ar    1  UNL1        0.0208
     17 C         -12.9889  -17.6583   21.9390 C.ar    1  UNL1        0.0989
     18 N         -11.9655  -17.9739   20.8887 N.ar    1  UNL1       -0.2422
     19 C         -10.6888  -18.6635   21.2690 C.ar    1  UNL1        0.1020
@<TRIPOS>BOND
     1    12    13    2
     2    13     1    1
     3     1     2    2
     4     2     3    1
     5     3     4   ar
     6     4     5   ar
     7     5     6   ar
     8     6     7   ar
     9     7     8   ar
    10     7     9    1
    11     9    10    1
    12    10    11    1
    13    13    14    1
    14    14    15   ar
    15    15    16   ar
    16    16    17   ar
    17    17    18   ar
    18    18    19   ar
    19     8     3   ar
    20    19    14   ar
    21    11     6    1
@<TRIPOS>MOLECULE
*****
 19 21 0 0 0
SMALL
GASTEIGER

@<TRIPOS>ATOM
      1 C          -6.7765  -19.9800   22.0703 C.2     1  UNL1        0.0421
      2 C          -8.0772  -19.4754   21.5194 C.2     1  UNL1        0.0034
      3 C          -9.2632  -19.3158   22.4239 C.ar    1  UNL1        0.0033
      4 C          -9.2352  -19.8959   23.8068 C.ar    1  UNL1        0.0033
      5 C         -10.4212  -19.7363   24.7113 C.ar    1  UNL1        0.0402
      6 C         -11.6352  -18.9967   24.2327 C.ar    1  UNL1        0.1764
      7 C         -11.6632  -18.4166   22.8497 C.ar    1  UNL1        0.1764
      8 C         -10.4773  -18.5761   21.9453 C.ar    1  UNL1        0.0402
      9 O         -12.9897  -17.7435   22.6561 O.3     1  UNL1       -0.4346
     10 C         -13.7815  -17.9077   23.9195 C.3     1  UNL1        0.4294
     11 O         -12.9443  -18.6821   24.8939 O.3     1  UNL1       -0.4346
     12 O          -5.5366  -21.2809   20.1940 O.2     1  UNL1       -0.2865
     13 C          -5.5905  -20.1396   21.1658 C.2     1  UNL1        0.1971
     14 C          -4.4584  -19.1577   21.2333 C.ar    1  UNL1        0.0581
     15 C          -3.9665  -18.6705   22.5639 C.ar    1  UNL1        0.0063
     16 C          -2.8345  -17.6887   22.6314 C.ar    1  UNL1        0.0208
     17 C          -2.1944  -17.1941   21.3682 C.ar    1  UNL1        0.0989
     18 N          -2.6863  -17.6813   20.0375 N.ar    1  UNL1       -0.2422
     19 C          -3.8184  -18.6631   19.9702 C.ar    1  UNL1        0.1020
@<TRIPOS>BOND
     1    12    13    2
     2    13     1    1
     3     1     2    2
     4     2     3    1
     5     3     4   ar
     6     4     5   ar
     7     5     6   ar
     8     6     7   ar
     9     7     8   ar
    10     7     9    1
    11     9    10    1
    12    10    11    1
    13    13    14    1
    14    14    15   ar
    15    15    16   ar
    16    16    17   ar
    17    17    18   ar
    18    18    19   ar
    19     8     3   ar
    20    19    14   ar
    21    11     6    1
@<TRIPOS>MOLECULE
*****
 19 21 0 0 0
SMALL
GASTEIGER

@<TRIPOS>ATOM
      1 C          -7.3194  -18.8182   22.4631 C.2     1  UNL1        0.0421
      2 C          -6.2220  -19.7261   21.9926 C.2     1  UNL1        0.0034
      3 C          -4.8521  -19.1737   21.7306 C.ar    1  UNL1        0.0033
      4 C          -4.0817  -18.5215   22.8400 C.ar    1  UNL1        0.0033
      5 C          -2.7119  -17.9691   22.5780 C.ar    1  UNL1        0.0402
      6 C          -2.1126  -18.0691   21.2066 C.ar    1  UNL1        0.1764
      7 C          -2.8831  -18.7213   20.0971 C.ar    1  UNL1        0.1764
      8 C          -4.2529  -19.2736   20.3591 C.ar    1  UNL1        0.0402
      9 O          -2.0401  -18.6744   18.8573 O.3     1  UNL1       -0.4346
     10 C          -0.7485  -17.9932   19.2006 C.3     1  UNL1        0.4294
     11 O          -0.7933  -17.6191   20.6525 O.3     1  UNL1       -0.4346
     12 O          -8.8530  -20.6026   23.5649 O.2     1  UNL1       -0.2865
     13 C          -8.6891  -19.3705   22.7251 C.2     1  UNL1        0.1971
     14 C          -9.8950  -18.6908   22.1472 C.ar    1  UNL1        0.0581
     15 C         -10.0652  -18.6025   20.6596 C.ar    1  UNL1        0.0063
     16 C         -11.2710  -17.9228   20.0817 C.ar    1  UNL1        0.0208
     17 C         -12.3067  -17.3314   20.9914 C.ar    1  UNL1        0.0989
     18 N         -12.1364  -17.4197   22.4792 N.ar    1  UNL1       -0.2422
     19 C         -10.9306  -18.0994   23.0570 C.ar    1  UNL1        0.1020
@<TRIPOS>BOND
     1    12    13    2
     2    13     1    1
     3     1     2    2
     4     2     3    1
     5     3     4   ar
     6     4     5   ar
     7     5     6   ar
     8     6     7   ar
     9     7     8   ar
    10     7     9    1
    11     9    10    1
    12    10    11    1
    13    13    14    1
    14    14    15   ar
    15    15    16   ar
    16    16    17   ar
    17    17    18   ar
    18    18    19   ar
    19     8     3   ar
    20    19    14   ar
    21    11     6    1
@<TRIPOS>MOLECULE
*****
 19 21 0 0 0
SMALL
GASTEIGER

@<TRIPOS>ATOM
      1 C          -8.4576  -18.8839   20.7536 C.2     1  UNL1        0.0421
      2 C          -7.5493  -20.0701   20.8872 C.2     1  UNL1        0.0034
      3 C          -6.0704  -19.8691   21.0387 C.ar    1  UNL1        0.0033
      4 C          -5.1173  -20.6201   20.1571 C.ar    1  UNL1        0.0033
      5 C          -3.6386  -20.4191   20.3085 C.ar    1  UNL1        0.0402
      6 C          -3.1130  -19.4671   21.3417 C.ar    1  UNL1        0.1764
      7 C          -4.0662  -18.7161   22.2234 C.ar    1  UNL1        0.1764
      8 C          -5.5449  -18.9171   22.0720 C.ar    1  UNL1        0.0402
      9 O          -3.2602  -17.8509   23.1464 O.3     1  UNL1       -0.4346
     10 C          -1.8089  -18.0672   22.8351 C.3     1  UNL1        0.4294
     11 O          -1.7179  -19.0661   21.7197 O.3     1  UNL1       -0.4346
     12 O         -10.4997  -19.5496   19.2919 O.2     1  UNL1       -0.2865
     13 C          -9.9363  -19.0849   20.6021 C.2     1  UNL1        0.1971
     14 C         -10.8516  -18.8212   21.7610 C.ar    1  UNL1        0.0581
     15 C         -10.4933  -19.3220   23.1287 C.ar    1  UNL1        0.0063
     16 C         -11.4085  -19.0583   24.2875 C.ar    1  UNL1        0.0208
     17 C         -12.6820  -18.2938   24.0786 C.ar    1  UNL1        0.0989
     18 N         -13.0403  -17.7929   22.7107 N.ar    1  UNL1       -0.2422
     19 C         -12.1250  -18.0566   21.5520 C.ar    1  UNL1        0.1020
@<TRIPOS>BOND
     1    12    13    2
     2    13     1    1
     3     1     2    2
     4     2     3    1
     5     3     4   ar
     6     4     5   ar
     7     5     6   ar
     8     6     7   ar
     9     7     8   ar
    10     7     9    1
    11     9    10    1
    12    10    11    1
    13    13    14    1
    14    14    15   ar
    15    15    16   ar
    16    16    17   ar
    17    17    18   ar
    18    18    19   ar
    19     8     3   ar
    20    19    14   ar
    21    11     6    1
@<TRIPOS>MOLECULE
*****
 19 21 0 0 0
SMALL
GASTEIGER

@<TRIPOS>ATOM
      1 C          -5.4779  -17.7695   22.7572 C.2     1  UNL1        0.0421
      2 C          -6.0844  -18.7048   21.7535 C.2     1  UNL1        0.0034
      3 C          -7.5224  -18.5487   21.3559 C.ar    1  UNL1        0.0033
      4 C          -8.1162  -19.4543   20.3181 C.ar    1  UNL1        0.0033
      5 C          -9.5541  -19.2981   19.9206 C.ar    1  UNL1        0.0402
      6 C         -10.3982  -18.2363   20.5609 C.ar    1  UNL1        0.1764
      7 C          -9.8044  -17.3307   21.5988 C.ar    1  UNL1        0.1764
      8 C          -8.3665  -17.4868   21.9963 C.ar    1  UNL1        0.0402
      9 O         -10.8739  -16.3820   22.0529 O.3     1  UNL1       -0.4346
     10 C         -12.1287  -16.7014   21.2956 C.3     1  UNL1        0.4294
     11 O         -11.8347  -17.8474   20.3735 O.3     1  UNL1       -0.4346
     12 O          -3.6817  -18.1794   24.5890 O.2     1  UNL1       -0.2865
     13 C          -4.0400  -17.9257   23.1547 C.2     1  UNL1        0.1971
     14 C          -2.9605  -17.8281   22.1178 C.ar    1  UNL1        0.0581
     15 C          -2.5759  -19.0384   21.3194 C.ar    1  UNL1        0.0063
     16 C          -1.4964  -18.9409   20.2826 C.ar    1  UNL1        0.0208
     17 C          -0.8014  -17.6332   20.0441 C.ar    1  UNL1        0.0989
     18 N          -1.1860  -16.4229   20.8425 N.ar    1  UNL1       -0.2422
     19 C          -2.2655  -16.5205   21.8793 C.ar    1  UNL1        0.1020
@<TRIPOS>BOND
     1    12    13    2
     2    13     1    1
     3     1     2    2
     4     2     3    1
     5     3     4   ar
     6     4     5   ar
     7     5     6   ar
     8     6     7   ar
     9     7     8   ar
    10     7     9    1
    11     9    10    1
    12    10    11    1
    13    13    14    1
    14    14    15   ar
    15    15    16   ar
    16    16    17   ar
    17    17    18   ar
    18    18    19   ar
    19     8     3   ar
    20    19    14   ar
    21    11     6    1
@<TRIPOS>MOLECULE
*****
 19 21 0 0 0
SMALL
GASTEIGER

@<TRIPOS>ATOM
      1 C         -12.1227   -5.2237   19.2827 C.2     1  UNL1        0.0421
      2 C         -12.5795   -6.2509   18.2897 C.2     1  UNL1        0.0034
      3 C         -13.8181   -7.0538   18.5570 C.ar    1  UNL1        0.0033
      4 C         -14.9883   -6.4195   19.2484 C.ar    1  UNL1        0.0033
      5 C         -16.2268   -7.2224   19.5157 C.ar    1  UNL1        0.0402
      6 C         -16.2951   -8.6595   19.0915 C.ar    1  UNL1        0.1764
      7 C         -15.1249   -9.2938   18.4000 C.ar    1  UNL1        0.1764
      8 C         -13.8863   -8.4910   18.1327 C.ar    1  UNL1        0.0402
      9 O         -15.4808  -10.7198   18.1002 O.3     1  UNL1       -0.4346
     10 C         -16.8710  -10.9668   18.6064 C.3     1  UNL1        0.4294
     11 O         -17.3743   -9.6934   19.2190 O.3     1  UNL1       -0.4346
     12 O          -9.5396   -4.9680   19.3935 O.2     1  UNL1       -0.2865
     13 C         -10.8841   -4.4209   19.0154 C.2     1  UNL1        0.1971
     14 C         -10.9902   -3.0710   18.3699 C.ar    1  UNL1        0.0581
     15 C         -11.8516   -2.0099   18.9879 C.ar    1  UNL1        0.0063
     16 C         -11.9577   -0.6600   18.3424 C.ar    1  UNL1        0.0208
     17 C         -11.2024   -0.3713   17.0791 C.ar    1  UNL1        0.0989
     18 N         -10.3409   -1.4325   16.4611 N.ar    1  UNL1       -0.2422
     19 C         -10.2349   -2.7823   17.1066 C.ar    1  UNL1        0.1020
@<TRIPOS>BOND
     1    12    13    2
     2    13     1    1
     3     1     2    2
     4     2     3    1
     5     3     4   ar
     6     4     5   ar
     7     5     6   ar
     8     6     7   ar
     9     7     8   ar
    10     7     9    1
    11     9    10    1
    12    10    11    1
    13    13    14    1
    14    14    15   ar
    15    15    16   ar
    16    16    17   ar
    17    17    18   ar
    18    18    19   ar
    19     8     3   ar
    20    19    14   ar
    21    11     6    1
@<TRIPOS>MOLECULE
*****
 19 21 0 0 0
SMALL
GASTEIGER

@<TRIPOS>ATOM
      1 C          -8.7157  -19.1791   21.1814 C.2     1  UNL1        0.0421
      2 C          -8.1304  -18.0772   22.0140 C.2     1  UNL1        0.0034
      3 C          -6.6524  -18.0319   22.2665 C.ar    1  UNL1        0.0033
      4 C          -6.0867  -17.0327   23.2315 C.ar    1  UNL1        0.0033
      5 C          -4.6088  -16.9875   23.4840 C.ar    1  UNL1        0.0402
      6 C          -3.6967  -17.9416   22.7715 C.ar    1  UNL1        0.1764
      7 C          -4.2624  -18.9409   21.8065 C.ar    1  UNL1        0.1764
      8 C          -5.7403  -18.9861   21.5539 C.ar    1  UNL1        0.0402
      9 O          -3.1249  -19.7488   21.2557 O.3     1  UNL1       -0.4346
     10 C          -1.8562  -19.2488   21.8803 C.3     1  UNL1        0.4294
     11 O          -2.2095  -18.1319   22.8172 O.3     1  UNL1       -0.4346
     12 O         -10.7119  -19.6231   19.5790 O.2     1  UNL1       -0.2865
     13 C         -10.1936  -19.2243   20.9289 C.2     1  UNL1        0.1971
     14 C         -11.1531  -18.8707   22.0264 C.ar    1  UNL1        0.0581
     15 C         -10.9365  -19.4025   23.4121 C.ar    1  UNL1        0.0063
     16 C         -11.8959  -19.0489   24.5096 C.ar    1  UNL1        0.0208
     17 C         -13.0719  -18.1635   24.2214 C.ar    1  UNL1        0.0989
     18 N         -13.2885  -17.6317   22.8356 N.ar    1  UNL1       -0.2422
     19 C         -12.3290  -17.9853   21.7382 C.ar    1  UNL1        0.1020
@<TRIPOS>BOND
     1    12    13    2
     2    13     1    1
     3     1     2    2
     4     2     3    1
     5     3     4   ar
     6     4     5   ar
     7     5     6   ar
     8     6     7   ar
     9     7     8   ar
    10     7     9    1
    11     9    10    1
    12    10    11    1
    13    13    14    1
    14    14    15   ar
    15    15    16   ar
    16    16    17   ar
    17    17    18   ar
    18    18    19   ar
    19     8     3   ar
    20    19    14   ar
    21    11     6    1
@<TRIPOS>MOLECULE
*****
 19 21 0 0 0
SMALL
GASTEIGER

@<TRIPOS>ATOM
      1 C         -11.9854   -5.4457   19.3028 C.2     1  UNL1        0.0421
      2 C         -12.7432   -6.0208   18.1430 C.2     1  UNL1        0.0034
      3 C         -13.8912   -6.9552   18.3865 C.ar    1  UNL1        0.0033
      4 C         -13.8182   -8.3742   17.9058 C.ar    1  UNL1        0.0033
      5 C         -14.9661   -9.3085   18.1492 C.ar    1  UNL1        0.0402
      6 C         -16.1871   -8.8238   18.8733 C.ar    1  UNL1        0.1764
      7 C         -16.2601   -7.4048   19.3540 C.ar    1  UNL1        0.1764
      8 C         -15.1122   -6.4704   19.1106 C.ar    1  UNL1        0.0402
      9 O         -17.5834   -7.2131   20.0337 O.3     1  UNL1       -0.4346
     10 C         -18.3282   -8.5137   19.9732 C.3     1  UNL1        0.4294
     11 O         -17.4653   -9.5092   19.2560 O.3     1  UNL1       -0.4346
     12 O          -9.4411   -4.9313   19.4111 O.2     1  UNL1       -0.2865
     13 C         -10.8375   -4.5114   19.0593 C.2     1  UNL1        0.1971
     14 C         -11.0860   -3.1571   18.4641 C.ar    1  UNL1        0.0581
     15 C         -10.3835   -2.7521   17.2022 C.ar    1  UNL1        0.0063
     16 C         -10.6320   -1.3979   16.6069 C.ar    1  UNL1        0.0208
     17 C         -11.5830   -0.4486   17.2736 C.ar    1  UNL1        0.0989
     18 N         -12.2856   -0.8536   18.5355 N.ar    1  UNL1       -0.2422
     19 C         -12.0371   -2.2079   19.1307 C.ar    1  UNL1        0.1020
@<TRIPOS>BOND
     1    12    13    2
     2    13     1    1
     3     1     2    2
     4     2     3    1
     5     3     4   ar
     6     4     5   ar
     7     5     6   ar
     8     6     7   ar
     9     7     8   ar
    10     7     9    1
    11     9    10    1
    12    10    11    1
    13    13    14    1
    14    14    15   ar
    15    15    16   ar
    16    16    17   ar
    17    17    18   ar
    18    18    19   ar
    19     8     3   ar
    20    19    14   ar
    21    11     6    1
