@<TRIPOS>MOLECULE
*****
 32 35 0 0 0
SMALL
GASTEIGER

@<TRIPOS>ATOM
      1 C          -8.1017  -18.7950   21.9368 C.2     1  UNL1        0.2480
      2 O          -8.5884  -19.9522   22.7577 O.2     1  UNL1       -0.2701
      3 N          -9.0546  -17.7103   21.5304 N.am    1  UNL1       -0.3007
      4 H          -8.7352  -16.9508   20.9916 H       1  UNL1        0.1497
      5 C          -3.7823  -18.5775   20.6933 C.ar    1  UNL1        0.0196
      6 C          -4.1701  -18.2830   22.1121 C.ar    1  UNL1        0.0018
      7 C          -5.6098  -18.3555   22.5265 C.ar    1  UNL1        0.0068
      8 C          -6.6618  -18.7225   21.5222 C.ar    1  UNL1        0.0808
      9 C          -6.2741  -19.0170   20.1035 C.ar    1  UNL1        0.1445
     10 F          -7.3261  -19.3840   19.0992 F       1  UNL1       -0.2040
     11 C          -4.8343  -18.9445   19.6891 C.ar    1  UNL1        0.0313
     12 C          -2.6273  -17.1021   18.0215 C.3     1  UNL1        0.1537
     13 N          -1.8117  -17.8268   19.0507 N.ar    1  UNL1       -0.2488
     14 N          -0.3219  -18.0007   19.0326 N.ar    1  UNL1       -0.1676
     15 C           0.0680  -18.7863   20.2495 C.ar    1  UNL1        0.1217
     16 C          -1.1808  -19.0980   21.0197 C.ar    1  UNL1        0.0412
     17 C          -2.3425  -18.5050   20.2788 C.ar    1  UNL1        0.0796
     18 C         -10.4945  -17.7828   21.9449 C.3     1  UNL1        0.0916
     19 C         -11.5412  -18.1922   20.9515 C.3     1  UNL1        0.0887
     20 N         -12.9809  -18.2647   21.3660 N.3     1  UNL1       -0.2961
     21 C         -13.3740  -17.9278   22.7738 C.3     1  UNL1        0.0690
     22 C         -12.3273  -17.5184   23.7671 C.3     1  UNL1        0.0231
     23 C         -10.8875  -17.4459   23.3527 C.3     1  UNL1        0.0431
     24 H         -13.2886  -19.2222   21.1955 H       1  UNL1        0.1233
     25 C          -9.8408  -17.0365   24.3460 C.ar    1  UNL1       -0.0184
     26 C          -9.7296  -17.7554   25.6578 C.ar    1  UNL1       -0.0018
     27 C          -8.6829  -17.3460   26.6511 C.ar    1  UNL1        0.0316
     28 C          -7.7474  -16.2176   26.3327 C.ar    1  UNL1        0.1674
     29 F          -6.7006  -15.8082   27.3261 F       1  UNL1       -0.2018
     30 C          -7.8585  -15.4986   25.0210 C.ar    1  UNL1        0.1671
     31 F          -6.9229  -14.3702   24.7026 F       1  UNL1       -0.2018
     32 C          -8.9052  -15.9081   24.0276 C.ar    1  UNL1        0.0277
@<TRIPOS>BOND
     1    12    13    1
     2    13    14   ar
     3    14    15   ar
     4    15    16   ar
     5    16    17   ar
     6    17     5    1
     7     5     6   ar
     8     6     7   ar
     9     7     8   ar
    10     8     1    1
    11     1     2    2
    12     1     3   am
    13    18     3    1
    14    18    19    1
    15    19    20    1
    16    20    21    1
    17    21    22    1
    18    22    23    1
    19    23    25    1
    20    25    26   ar
    21    26    27   ar
    22    27    28   ar
    23    28    29    1
    24    28    30   ar
    25    30    31    1
    26    30    32   ar
    27     8     9   ar
    28     9    10    1
    29     9    11   ar
    30    17    13   ar
    31    11     5   ar
    32    23    18    1
    33    32    25   ar
    34     3     4    1
    35    20    24    1
@<TRIPOS>MOLECULE
*****
 32 35 0 0 0
SMALL
GASTEIGER

@<TRIPOS>ATOM
      1 C          -8.9921  -18.9834   22.2658 C.2     1  UNL1        0.2480
      2 O          -9.9098  -19.9240   21.5425 O.2     1  UNL1       -0.2701
      3 N          -9.5165  -18.1404   23.3902 N.am    1  UNL1       -0.3007
      4 H          -8.9142  -17.5230   23.8649 H       1  UNL1        0.1497
      5 C          -4.6660  -18.6904   21.0623 C.ar    1  UNL1        0.0196
      6 C          -5.1107  -18.1660   22.3954 C.ar    1  UNL1        0.0018
      7 C          -6.5528  -18.2637   22.7965 C.ar    1  UNL1        0.0068
      8 C          -7.5500  -18.8857   21.8646 C.ar    1  UNL1        0.0808
      9 C          -7.1053  -19.4102   20.5315 C.ar    1  UNL1        0.1445
     10 F          -8.1026  -20.0322   19.5996 F       1  UNL1       -0.2040
     11 C          -5.6633  -19.3125   20.1304 C.ar    1  UNL1        0.0313
     12 C          -2.1505  -18.1375   23.0664 C.3     1  UNL1        0.1537
     13 N          -2.0677  -18.3386   21.5822 N.ar    1  UNL1       -0.2488
     14 N          -0.8141  -18.3209   20.7587 N.ar    1  UNL1       -0.1676
     15 C          -1.1955  -18.5641   19.3285 C.ar    1  UNL1        0.1217
     16 C          -2.6849  -18.7321   19.2682 C.ar    1  UNL1        0.0412
     17 C          -3.2239  -18.5928   20.6611 C.ar    1  UNL1        0.0796
     18 C         -10.9586  -18.2381   23.7914 C.3     1  UNL1        0.0916
     19 C         -11.3460  -19.0167   25.0136 C.3     1  UNL1        0.0887
     20 N         -12.7880  -19.1144   25.4148 N.3     1  UNL1       -0.2961
     21 C         -13.8426  -18.4334   24.5939 C.3     1  UNL1        0.0690
     22 C         -13.4553  -17.6547   23.3718 C.3     1  UNL1        0.0231
     23 C         -12.0133  -17.5571   22.9705 C.3     1  UNL1        0.0431
     24 H         -12.8576  -18.7333   26.3584 H       1  UNL1        0.1233
     25 C         -11.6259  -16.7784   21.7484 C.ar    1  UNL1       -0.0184
     26 C         -12.4186  -16.9247   20.4834 C.ar    1  UNL1       -0.0018
     27 C         -12.0312  -16.1460   19.2613 C.ar    1  UNL1        0.0316
     28 C         -10.8511  -15.2211   19.3041 C.ar    1  UNL1        0.1674
     29 F         -10.4638  -14.4424   18.0820 F       1  UNL1       -0.2018
     30 C         -10.0584  -15.0748   20.5691 C.ar    1  UNL1        0.1671
     31 F          -8.8783  -14.1498   20.6119 F       1  UNL1       -0.2018
     32 C         -10.4458  -15.8535   21.7912 C.ar    1  UNL1        0.0277
@<TRIPOS>BOND
     1    12    13    1
     2    13    14   ar
     3    14    15   ar
     4    15    16   ar
     5    16    17   ar
     6    17     5    1
     7     5     6   ar
     8     6     7   ar
     9     7     8   ar
    10     8     1    1
    11     1     2    2
    12     1     3   am
    13    18     3    1
    14    18    19    1
    15    19    20    1
    16    20    21    1
    17    21    22    1
    18    22    23    1
    19    23    25    1
    20    25    26   ar
    21    26    27   ar
    22    27    28   ar
    23    28    29    1
    24    28    30   ar
    25    30    31    1
    26    30    32   ar
    27     8     9   ar
    28     9    10    1
    29     9    11   ar
    30    17    13   ar
    31    11     5   ar
    32    23    18    1
    33    32    25   ar
    34     3     4    1
    35    20    24    1
@<TRIPOS>MOLECULE
*****
 32 35 0 0 0
SMALL
GASTEIGER

@<TRIPOS>ATOM
      1 C         -14.8381   -3.8192   19.3520 C.2     1  UNL1        0.2480
      2 O         -14.4891   -4.4571   20.6640 O.2     1  UNL1       -0.2701
      3 N         -15.1737   -4.6758   18.1673 N.am    1  UNL1       -0.3007
      4 H         -15.4028   -4.2571   17.3062 H       1  UNL1        0.1497
      5 C         -14.8781    0.6644   18.9702 C.ar    1  UNL1        0.0196
      6 C         -16.0579   -0.0485   19.5616 C.ar    1  UNL1        0.0018
      7 C         -16.0445   -1.5430   19.6889 C.ar    1  UNL1        0.0068
      8 C         -14.8514   -2.3246   19.2247 C.ar    1  UNL1        0.0808
      9 C         -13.6716   -1.6117   18.6333 C.ar    1  UNL1        0.1445
     10 F         -12.4784   -2.3933   18.1691 F       1  UNL1       -0.2040
     11 C         -13.6849   -0.1172   18.5060 C.ar    1  UNL1        0.0313
     12 C         -13.6282    2.3904   16.4986 C.3     1  UNL1        0.1537
     13 N         -14.3169    2.9523   17.7069 N.ar    1  UNL1       -0.2488
     14 N         -14.5520    4.4062   17.9912 N.ar    1  UNL1       -0.1676
     15 C         -15.2718    4.5115   19.3030 C.ar    1  UNL1        0.1217
     16 C         -15.4815    3.1226   19.8294 C.ar    1  UNL1        0.0412
     17 C         -14.8914    2.1590   18.8429 C.ar    1  UNL1        0.0796
     18 C         -15.1604   -6.1704   18.2946 C.3     1  UNL1        0.0916
     19 C         -16.4257   -6.9064   18.6224 C.3     1  UNL1        0.0887
     20 N         -16.4124   -8.4009   18.7497 N.3     1  UNL1       -0.2961
     21 C         -15.1339   -9.1594   18.5492 C.3     1  UNL1        0.0690
     22 C         -13.8687   -8.4233   18.2213 C.3     1  UNL1        0.0231
     23 C         -13.8820   -6.9288   18.0940 C.3     1  UNL1        0.0431
     24 H         -17.0785   -8.7606   18.0660 H       1  UNL1        0.1233
     25 C         -12.6168   -6.1927   17.7662 C.ar    1  UNL1       -0.0184
     26 C         -12.3129   -5.8194   16.3456 C.ar    1  UNL1       -0.0018
     27 C         -11.0477   -5.0834   16.0178 C.ar    1  UNL1        0.0316
     28 C         -10.0864   -4.7206   17.1106 C.ar    1  UNL1        0.1674
     29 F          -8.8212   -3.9846   16.7828 F       1  UNL1       -0.2018
     30 C         -10.3903   -5.0939   18.5312 C.ar    1  UNL1        0.1671
     31 F          -9.4290   -4.7312   19.6241 F       1  UNL1       -0.2018
     32 C         -11.6555   -5.8300   18.8590 C.ar    1  UNL1        0.0277
@<TRIPOS>BOND
     1    12    13    1
     2    13    14   ar
     3    14    15   ar
     4    15    16   ar
     5    16    17   ar
     6    17     5    1
     7     5     6   ar
     8     6     7   ar
     9     7     8   ar
    10     8     1    1
    11     1     2    2
    12     1     3   am
    13    18     3    1
    14    18    19    1
    15    19    20    1
    16    20    21    1
    17    21    22    1
    18    22    23    1
    19    23    25    1
    20    25    26   ar
    21    26    27   ar
    22    27    28   ar
    23    28    29    1
    24    28    30   ar
    25    30    31    1
    26    30    32   ar
    27     8     9   ar
    28     9    10    1
    29     9    11   ar
    30    17    13   ar
    31    11     5   ar
    32    23    18    1
    33    32    25   ar
    34     3     4    1
    35    20    24    1
@<TRIPOS>MOLECULE
*****
 32 35 0 0 0
SMALL
GASTEIGER

@<TRIPOS>ATOM
      1 C         -16.4359   -4.2861   18.8720 C.2     1  UNL1        0.2480
      2 O         -17.0931   -4.7463   17.6045 O.2     1  UNL1       -0.2701
      3 N         -15.5964   -5.2390   19.6702 N.am    1  UNL1       -0.3007
      4 H         -15.1650   -4.9369   20.5020 H       1  UNL1        0.1497
      5 C         -16.9832   -0.0471   20.2794 C.ar    1  UNL1        0.0196
      6 C         -18.1623   -0.9714   20.2070 C.ar    1  UNL1        0.0018
      7 C         -17.9799   -2.3844   19.7378 C.ar    1  UNL1        0.0068
      8 C         -16.6183   -2.8731   19.3411 C.ar    1  UNL1        0.0808
      9 C         -15.4392   -1.9488   19.4136 C.ar    1  UNL1        0.1445
     10 F         -14.0776   -2.4375   19.0169 F       1  UNL1       -0.2040
     11 C         -15.6216   -0.5358   19.8828 C.ar    1  UNL1        0.0313
     12 C         -17.0702    2.6076   18.3834 C.3     1  UNL1        0.1537
     13 N         -17.2055    2.5861   19.8771 N.ar    1  UNL1       -0.2488
     14 N         -17.4046    3.7812   20.7615 N.ar    1  UNL1       -0.1676
     15 C         -17.4877    3.2996   22.1797 C.ar    1  UNL1        0.1217
     16 C         -17.3399    1.8069   22.1717 C.ar    1  UNL1        0.0412
     17 C         -17.1655    1.3660   20.7486 C.ar    1  UNL1        0.0796
     18 C         -15.4140   -6.6520   19.2010 C.3     1  UNL1        0.0916
     19 C         -16.4703   -7.6786   19.4845 C.3     1  UNL1        0.0887
     20 N         -16.2880   -9.0916   19.0153 N.3     1  UNL1       -0.2961
     21 C         -15.0493   -9.4780   18.2628 C.3     1  UNL1        0.0690
     22 C         -13.9930   -8.4514   17.9793 C.3     1  UNL1        0.0231
     23 C         -14.1754   -7.0384   18.4484 C.3     1  UNL1        0.0431
     24 H         -17.0797   -9.3049   18.4087 H       1  UNL1        0.1233
     25 C         -13.1191   -6.0119   18.1650 C.ar    1  UNL1       -0.0184
     26 C         -13.2813   -5.0677   17.0107 C.ar    1  UNL1       -0.0018
     27 C         -12.2250   -4.0412   16.7273 C.ar    1  UNL1        0.0316
     28 C         -11.0065   -3.9587   17.5981 C.ar    1  UNL1        0.1674
     29 F          -9.9502   -2.9321   17.3146 F       1  UNL1       -0.2018
     30 C         -10.8442   -4.9028   18.7523 C.ar    1  UNL1        0.1671
     31 F          -9.6256   -4.8203   19.6231 F       1  UNL1       -0.2018
     32 C         -11.9005   -5.9294   19.0357 C.ar    1  UNL1        0.0277
@<TRIPOS>BOND
     1    12    13    1
     2    13    14   ar
     3    14    15   ar
     4    15    16   ar
     5    16    17   ar
     6    17     5    1
     7     5     6   ar
     8     6     7   ar
     9     7     8   ar
    10     8     1    1
    11     1     2    2
    12     1     3   am
    13    18     3    1
    14    18    19    1
    15    19    20    1
    16    20    21    1
    17    21    22    1
    18    22    23    1
    19    23    25    1
    20    25    26   ar
    21    26    27   ar
    22    27    28   ar
    23    28    29    1
    24    28    30   ar
    25    30    31    1
    26    30    32   ar
    27     8     9   ar
    28     9    10    1
    29     9    11   ar
    30    17    13   ar
    31    11     5   ar
    32    23    18    1
    33    32    25   ar
    34     3     4    1
    35    20    24    1
@<TRIPOS>MOLECULE
*****
 32 35 0 0 0
SMALL
GASTEIGER

@<TRIPOS>ATOM
      1 C           4.2097   -1.0579   23.8492 C.2     1  UNL1        0.2480
      2 O           5.5625   -0.5378   23.4624 O.2     1  UNL1       -0.2701
      3 N           3.5101   -2.0535   22.9722 N.am    1  UNL1       -0.3007
      4 H           2.6223   -2.3949   23.2261 H       1  UNL1        0.1497
      5 C           2.2505    0.3689   27.6407 C.ar    1  UNL1        0.0196
      6 C           3.2407   -0.7569   27.6859 C.ar    1  UNL1        0.0018
      7 C           3.8937   -1.2325   26.4221 C.ar    1  UNL1        0.0068
      8 C           3.5566   -0.5822   25.1131 C.ar    1  UNL1        0.0808
      9 C           2.5665    0.5436   25.0679 C.ar    1  UNL1        0.1445
     10 F           2.2294    1.1939   23.7589 F       1  UNL1       -0.2040
     11 C           1.9135    1.0192   26.3317 C.ar    1  UNL1        0.0313
     12 C          -0.8160   -0.2538   28.5672 C.3     1  UNL1        0.1537
     13 N           0.1879    0.5583   29.3304 N.ar    1  UNL1       -0.2488
     14 N          -0.0414    1.2267   30.6535 N.ar    1  UNL1       -0.1676
     15 C           1.2264    1.9262   31.0454 C.ar    1  UNL1        0.1217
     16 C           2.2392    1.6899   29.9645 C.ar    1  UNL1        0.0412
     17 C           1.5974    0.8445   28.9046 C.ar    1  UNL1        0.0796
     18 C           4.1632   -2.5292   21.7083 C.3     1  UNL1        0.0916
     19 C           5.1114   -3.6909   21.7454 C.3     1  UNL1        0.0887
     20 N           5.7645   -4.1665   20.4816 N.3     1  UNL1       -0.2961
     21 C           5.4694   -3.4805   19.1808 C.3     1  UNL1        0.0690
     22 C           4.5212   -2.3187   19.1437 C.3     1  UNL1        0.0231
     23 C           3.8681   -1.8431   20.4075 C.3     1  UNL1        0.0431
     24 H           5.5017   -5.1451   20.3646 H       1  UNL1        0.1233
     25 C           2.9200   -0.6814   20.3705 C.ar    1  UNL1       -0.0184
     26 C           1.4502   -0.9184   20.1873 C.ar    1  UNL1       -0.0018
     27 C           0.5020    0.2433   20.1503 C.ar    1  UNL1        0.0316
     28 C           1.0236    1.6420   20.2964 C.ar    1  UNL1        0.1674
     29 F           0.0754    2.8038   20.2594 F       1  UNL1       -0.2018
     30 C           2.4933    1.8791   20.4796 C.ar    1  UNL1        0.1671
     31 F           3.0150    3.2779   20.6257 F       1  UNL1       -0.2018
     32 C           3.4415    0.7174   20.5166 C.ar    1  UNL1        0.0277
@<TRIPOS>BOND
     1    12    13    1
     2    13    14   ar
     3    14    15   ar
     4    15    16   ar
     5    16    17   ar
     6    17     5    1
     7     5     6   ar
     8     6     7   ar
     9     7     8   ar
    10     8     1    1
    11     1     2    2
    12     1     3   am
    13    18     3    1
    14    18    19    1
    15    19    20    1
    16    20    21    1
    17    21    22    1
    18    22    23    1
    19    23    25    1
    20    25    26   ar
    21    26    27   ar
    22    27    28   ar
    23    28    29    1
    24    28    30   ar
    25    30    31    1
    26    30    32   ar
    27     8     9   ar
    28     9    10    1
    29     9    11   ar
    30    17    13   ar
    31    11     5   ar
    32    23    18    1
    33    32    25   ar
    34     3     4    1
    35    20    24    1
@<TRIPOS>MOLECULE
*****
 32 35 0 0 0
SMALL
GASTEIGER

@<TRIPOS>ATOM
      1 C           6.5990   -3.1412   21.4532 C.2     1  UNL1        0.2480
      2 O           7.5929   -2.1836   20.8657 O.2     1  UNL1       -0.2701
      3 N           5.2193   -3.2401   20.8729 N.am    1  UNL1       -0.3007
      4 H           4.5670   -3.8686   21.2585 H       1  UNL1        0.1497
      5 C           7.7563   -5.7173   24.9567 C.ar    1  UNL1        0.0196
      6 C           8.4166   -5.9211   23.6254 C.ar    1  UNL1        0.0018
      7 C           8.0309   -5.0624   22.4576 C.ar    1  UNL1        0.0068
      8 C           6.9847   -3.9999   22.6211 C.ar    1  UNL1        0.0808
      9 C           6.3243   -3.7961   23.9523 C.ar    1  UNL1        0.1445
     10 F           5.2782   -2.7337   24.1158 F       1  UNL1       -0.2040
     11 C           6.7101   -4.6548   25.1201 C.ar    1  UNL1        0.0313
     12 C           9.4179   -4.7403   27.5900 C.3     1  UNL1        0.1537
     13 N           8.9058   -6.1269   27.3349 N.ar    1  UNL1       -0.2488
     14 N           9.0675   -7.3079   28.2455 N.ar    1  UNL1       -0.1676
     15 C           8.4037   -8.4869   27.5978 C.ar    1  UNL1        0.1217
     16 C           7.8317   -8.0345   26.2870 C.ar    1  UNL1        0.0412
     17 C           8.1420   -6.5760   26.1246 C.ar    1  UNL1        0.0796
     18 C           4.8336   -2.3814   19.7050 C.3     1  UNL1        0.0916
     19 C           4.9974   -2.8993   18.3068 C.3     1  UNL1        0.0887
     20 N           4.6116   -2.0407   17.1390 N.3     1  UNL1       -0.2961
     21 C           4.0621   -0.6641   17.3693 C.3     1  UNL1        0.0690
     22 C           3.8983   -0.1462   18.7675 C.3     1  UNL1        0.0231
     23 C           4.2841   -1.0048   19.9353 C.3     1  UNL1        0.0431
     24 H           3.9043   -2.5563   16.6153 H       1  UNL1        0.1233
     25 C           4.1203   -0.4869   21.3335 C.ar    1  UNL1       -0.0184
     26 C           2.8422   -0.7324   22.0793 C.ar    1  UNL1       -0.0018
     27 C           2.6784   -0.2144   23.4775 C.ar    1  UNL1        0.0316
     28 C           3.7927    0.5489   24.1299 C.ar    1  UNL1        0.1674
     29 F           3.6289    1.0669   25.5281 F       1  UNL1       -0.2018
     30 C           5.0707    0.7944   23.3841 C.ar    1  UNL1        0.1671
     31 F           6.1851    1.5578   24.0365 F       1  UNL1       -0.2018
     32 C           5.2345    0.2765   21.9859 C.ar    1  UNL1        0.0277
@<TRIPOS>BOND
     1    12    13    1
     2    13    14   ar
     3    14    15   ar
     4    15    16   ar
     5    16    17   ar
     6    17     5    1
     7     5     6   ar
     8     6     7   ar
     9     7     8   ar
    10     8     1    1
    11     1     2    2
    12     1     3   am
    13    18     3    1
    14    18    19    1
    15    19    20    1
    16    20    21    1
    17    21    22    1
    18    22    23    1
    19    23    25    1
    20    25    26   ar
    21    26    27   ar
    22    27    28   ar
    23    28    29    1
    24    28    30   ar
    25    30    31    1
    26    30    32   ar
    27     8     9   ar
    28     9    10    1
    29     9    11   ar
    30    17    13   ar
    31    11     5   ar
    32    23    18    1
    33    32    25   ar
    34     3     4    1
    35    20    24    1
@<TRIPOS>MOLECULE
*****
 32 35 0 0 0
SMALL
GASTEIGER

@<TRIPOS>ATOM
      1 C           6.8339   -1.0716   21.8769 C.2     1  UNL1        0.2480
      2 O           5.9310    0.1254   21.8332 O.2     1  UNL1       -0.2701
      3 N           7.6597   -1.4323   20.6779 N.am    1  UNL1       -0.3007
      4 H           8.2524   -2.2180   20.7067 H       1  UNL1        0.1497
      5 C           7.0649   -3.5803   25.6056 C.ar    1  UNL1        0.0196
      6 C           7.7011   -2.2222   25.5748 C.ar    1  UNL1        0.0018
      7 C           7.6241   -1.3860   24.3319 C.ar    1  UNL1        0.0068
      8 C           6.9109   -1.9079   23.1199 C.ar    1  UNL1        0.0808
      9 C           6.2747   -3.2659   23.1507 C.ar    1  UNL1        0.1445
     10 F           5.5615   -3.7877   21.9387 F       1  UNL1       -0.2040
     11 C           6.3517   -4.1021   24.3936 C.ar    1  UNL1        0.0313
     12 C           9.1417   -6.0410   26.1364 C.3     1  UNL1        0.1537
     13 N           8.0965   -5.5476   27.0925 N.ar    1  UNL1       -0.2488
     14 N           7.8224   -6.0986   28.4604 N.ar    1  UNL1       -0.1676
     15 C           6.6984   -5.3081   29.0619 C.ar    1  UNL1        0.1217
     16 C           6.2779   -4.2686   28.0657 C.ar    1  UNL1        0.0412
     17 C           7.1419   -4.4165   26.8485 C.ar    1  UNL1        0.0796
     18 C           7.5827   -0.5960   19.4350 C.3     1  UNL1        0.0916
     19 C           8.6067    0.4711   19.1844 C.3     1  UNL1        0.0887
     20 N           8.5297    1.3073   17.9416 N.3     1  UNL1       -0.2961
     21 C           7.4288    1.0765   16.9493 C.3     1  UNL1        0.0690
     22 C           6.4048    0.0094   17.1999 C.3     1  UNL1        0.0231
     23 C           6.4818   -0.8269   18.4427 C.3     1  UNL1        0.0431
     24 H           9.4090    1.1741   17.4421 H       1  UNL1        0.1233
     25 C           5.4578   -1.8940   18.6933 C.ar    1  UNL1       -0.0184
     26 C           4.1241   -1.5316   19.2762 C.ar    1  UNL1       -0.0018
     27 C           3.1002   -2.5987   19.5268 C.ar    1  UNL1        0.0316
     28 C           3.4099   -4.0282   19.1945 C.ar    1  UNL1        0.1674
     29 F           2.3859   -5.0953   19.4451 F       1  UNL1       -0.2018
     30 C           4.7436   -4.3906   18.6116 C.ar    1  UNL1        0.1671
     31 F           5.0534   -5.8202   18.2792 F       1  UNL1       -0.2018
     32 C           5.7676   -3.3235   18.3610 C.ar    1  UNL1        0.0277
@<TRIPOS>BOND
     1    12    13    1
     2    13    14   ar
     3    14    15   ar
     4    15    16   ar
     5    16    17   ar
     6    17     5    1
     7     5     6   ar
     8     6     7   ar
     9     7     8   ar
    10     8     1    1
    11     1     2    2
    12     1     3   am
    13    18     3    1
    14    18    19    1
    15    19    20    1
    16    20    21    1
    17    21    22    1
    18    22    23    1
    19    23    25    1
    20    25    26   ar
    21    26    27   ar
    22    27    28   ar
    23    28    29    1
    24    28    30   ar
    25    30    31    1
    26    30    32   ar
    27     8     9   ar
    28     9    10    1
    29     9    11   ar
    30    17    13   ar
    31    11     5   ar
    32    23    18    1
    33    32    25   ar
    34     3     4    1
    35    20    24    1
@<TRIPOS>MOLECULE
*****
 32 35 0 0 0
SMALL
GASTEIGER

@<TRIPOS>ATOM
      1 C           3.2905    0.0421   26.4668 C.2     1  UNL1        0.2480
      2 O           4.3444    0.9001   27.1017 O.2     1  UNL1       -0.2701
      3 N           1.9647   -0.1418   27.1439 N.am    1  UNL1       -0.3007
      4 H           1.2731   -0.7049   26.7272 H       1  UNL1        0.1497
      5 C           4.1064   -1.9806   22.5306 C.ar    1  UNL1        0.0196
      6 C           4.9109   -2.3462   23.7426 C.ar    1  UNL1        0.0018
      7 C           4.6389   -1.6720   25.0547 C.ar    1  UNL1        0.0068
      8 C           3.5624   -0.6322   25.1547 C.ar    1  UNL1        0.0808
      9 C           2.7579   -0.2666   23.9426 C.ar    1  UNL1        0.1445
     10 F           1.6814    0.7732   24.0426 F       1  UNL1       -0.2040
     11 C           3.0299   -0.9408   22.6306 C.ar    1  UNL1        0.0313
     12 C           5.2304   -0.5366   19.8285 C.3     1  UNL1        0.1537
     13 N           4.8949   -1.9911   19.9766 N.ar    1  UNL1       -0.2488
     14 N           5.0173   -3.0372   18.9085 N.ar    1  UNL1       -0.1676
     15 C           4.5762   -4.3475   19.4904 C.ar    1  UNL1        0.1217
     16 C           4.1813   -4.1112   20.9181 C.ar    1  UNL1        0.0412
     17 C           4.3783   -2.6548   21.2185 C.ar    1  UNL1        0.0796
     18 C           1.6928    0.5325   28.4560 C.3     1  UNL1        0.0916
     19 C           2.1040   -0.1284   29.7382 C.3     1  UNL1        0.0887
     20 N           1.8321    0.5457   31.0503 N.3     1  UNL1       -0.2961
     21 C           1.1490    1.8807   31.0801 C.3     1  UNL1        0.0690
     22 C           0.7378    2.5416   29.7979 C.3     1  UNL1        0.0231
     23 C           1.0097    1.8675   28.4858 C.3     1  UNL1        0.0431
     24 H           2.7337    0.6659   31.5120 H       1  UNL1        0.1233
     25 C           0.5984    2.5284   27.2036 C.ar    1  UNL1       -0.0184
     26 C           1.5881    3.3506   26.4326 C.ar    1  UNL1       -0.0018
     27 C           1.1768    4.0115   25.1504 C.ar    1  UNL1        0.0316
     28 C          -0.2240    3.8502   24.6392 C.ar    1  UNL1        0.1674
     29 F          -0.6353    4.5111   23.3569 F       1  UNL1       -0.2018
     30 C          -1.2137    3.0279   25.4101 C.ar    1  UNL1        0.1671
     31 F          -2.6147    2.8665   24.8989 F       1  UNL1       -0.2018
     32 C          -0.8025    2.3670   26.6924 C.ar    1  UNL1        0.0277
@<TRIPOS>BOND
     1    12    13    1
     2    13    14   ar
     3    14    15   ar
     4    15    16   ar
     5    16    17   ar
     6    17     5    1
     7     5     6   ar
     8     6     7   ar
     9     7     8   ar
    10     8     1    1
    11     1     2    2
    12     1     3   am
    13    18     3    1
    14    18    19    1
    15    19    20    1
    16    20    21    1
    17    21    22    1
    18    22    23    1
    19    23    25    1
    20    25    26   ar
    21    26    27   ar
    22    27    28   ar
    23    28    29    1
    24    28    30   ar
    25    30    31    1
    26    30    32   ar
    27     8     9   ar
    28     9    10    1
    29     9    11   ar
    30    17    13   ar
    31    11     5   ar
    32    23    18    1
    33    32    25   ar
    34     3     4    1
    35    20    24    1
@<TRIPOS>MOLECULE
*****
 32 35 0 0 0
SMALL
GASTEIGER

@<TRIPOS>ATOM
      1 C           0.0990    3.0941   22.5216 C.2     1  UNL1        0.2480
      2 O           0.6192    4.4488   22.1420 O.2     1  UNL1       -0.2701
      3 N          -0.7363    2.3126   21.5513 N.am    1  UNL1       -0.3007
      4 H          -1.0777    1.4234   21.8005 H       1  UNL1        0.1497
      5 C           1.0443    1.3747   26.5713 C.ar    1  UNL1        0.0196
      6 C           0.0403    2.4815   26.4422 C.ar    1  UNL1        0.0018
      7 C          -0.2748    3.0547   25.0924 C.ar    1  UNL1        0.0068
      8 C           0.4141    2.5209   23.8715 C.ar    1  UNL1        0.0808
      9 C           1.4182    1.4140   24.0005 C.ar    1  UNL1        0.1445
     10 F           2.1071    0.8803   22.7797 F       1  UNL1       -0.2040
     11 C           1.7332    0.8409   25.3504 C.ar    1  UNL1        0.0313
     12 C          -1.0258   -0.2619   28.4912 C.3     1  UNL1        0.1537
     13 N           0.4079    0.0492   28.8036 N.ar    1  UNL1       -0.2488
     14 N           1.1419   -0.3372   30.0534 N.ar    1  UNL1       -0.1676
     15 C           2.5470    0.1762   29.9434 C.ar    1  UNL1        0.1217
     16 C           2.6814    0.8799   28.6256 C.ar    1  UNL1        0.0412
     17 C           1.3594    0.8015   27.9212 C.ar    1  UNL1        0.0796
     18 C          -1.0514    2.8858   20.2014 C.3     1  UNL1        0.0916
     19 C          -2.3101    3.6758   19.9973 C.3     1  UNL1        0.0887
     20 N          -2.6253    4.2489   18.6475 N.3     1  UNL1       -0.2961
     21 C          -1.6817    4.0321   17.5017 C.3     1  UNL1        0.0690
     22 C          -0.4231    3.2421   17.7058 C.3     1  UNL1        0.0231
     23 C          -0.1079    2.6689   19.0557 C.3     1  UNL1        0.0431
     24 H          -2.7136    5.2578   18.7693 H       1  UNL1        0.1233
     25 C           1.1507    1.8789   19.2598 C.ar    1  UNL1       -0.0184
     26 C           2.4777    2.5775   19.2926 C.ar    1  UNL1       -0.0018
     27 C           3.7363    1.7875   19.4967 C.ar    1  UNL1        0.0316
     28 C           3.6681    0.2989   19.6680 C.ar    1  UNL1        0.1674
     29 F           4.9267   -0.4911   19.8721 F       1  UNL1       -0.2018
     30 C           2.3411   -0.3997   19.6352 C.ar    1  UNL1        0.1671
     31 F           2.2728   -1.8884   19.8065 F       1  UNL1       -0.2018
     32 C           1.0824    0.3903   19.4311 C.ar    1  UNL1        0.0277
@<TRIPOS>BOND
     1    12    13    1
     2    13    14   ar
     3    14    15   ar
     4    15    16   ar
     5    16    17   ar
     6    17     5    1
     7     5     6   ar
     8     6     7   ar
     9     7     8   ar
    10     8     1    1
    11     1     2    2
    12     1     3   am
    13    18     3    1
    14    18    19    1
    15    19    20    1
    16    20    21    1
    17    21    22    1
    18    22    23    1
    19    23    25    1
    20    25    26   ar
    21    26    27   ar
    22    27    28   ar
    23    28    29    1
    24    28    30   ar
    25    30    31    1
    26    30    32   ar
    27     8     9   ar
    28     9    10    1
    29     9    11   ar
    30    17    13   ar
    31    11     5   ar
    32    23    18    1
    33    32    25   ar
    34     3     4    1
    35    20    24    1
