@<TRIPOS>MOLECULE
*****
 30 33 0 0 0
SMALL
GASTEIGER

@<TRIPOS>ATOM
      1 C          -8.4807  -16.5039   24.9898 C.2     1  UNL1        0.2855
      2 O          -8.5777  -15.4963   26.0968 O.2     1  UNL1       -0.2665
      3 N          -7.1945  -16.6681   24.2357 N.am    1  UNL1       -0.2735
      4 C          -6.0053  -15.8249   24.5886 C.3     1  UNL1        0.0941
      5 C          -4.7190  -15.9891   23.8345 C.3     1  UNL1        0.0259
      6 C          -4.6220  -16.9967   22.7275 C.3     1  UNL1        0.0258
      7 C          -5.8113  -17.8400   22.3747 C.3     1  UNL1        0.0259
      8 C          -7.0976  -17.6758   23.1288 C.3     1  UNL1        0.0941
      9 C         -11.2526  -16.5840   20.9864 C.ar    1  UNL1        0.0861
     10 C         -12.3525  -17.6012   21.0602 C.ar    1  UNL1        0.0150
     11 C         -12.5013  -18.4576   22.2826 C.ar    1  UNL1        0.0400
     12 C         -11.5503  -18.2968   23.4313 C.ar    1  UNL1        0.1705
     13 N         -11.4497  -18.9931   24.7561 N.ar    1  UNL1       -0.1283
     14 N         -10.2876  -18.4062   25.5012 N.ar    1  UNL1       -0.1236
     15 C          -9.6699  -17.3472   24.6369 C.ar    1  UNL1        0.2244
     16 N         -10.4504  -17.2796   23.3576 N.ar    1  UNL1       -0.2681
     17 C         -10.3015  -16.4232   22.1352 C.ar    1  UNL1        0.0933
     18 N         -10.9548  -14.8712   18.5415 N.1     1  UNL1       -0.1908
     19 C         -11.1037  -15.7276   19.7640 C.1     1  UNL1        0.1019
     20 C          -3.3358  -17.1610   21.9735 C.ar    1  UNL1       -0.0163
     21 C          -2.3321  -16.0465   21.9509 C.ar    1  UNL1       -0.0042
     22 C          -1.0458  -16.2108   21.1969 C.ar    1  UNL1        0.0020
     23 C          -0.7633  -17.4895   20.4653 C.ar    1  UNL1        0.0296
     24 C          -1.7671  -18.6040   20.4879 C.ar    1  UNL1        0.1437
     25 F          -1.4846  -19.8827   19.7564 F       1  UNL1       -0.2042
     26 C          -3.0534  -18.4398   21.2420 C.ar    1  UNL1        0.0948
     27 C          -4.0571  -19.5541   21.2646 C.3     1  UNL1        0.4204
     28 F          -5.0609  -20.6686   21.2873 F       1  UNL1       -0.1658
     29 F          -3.5748  -19.9609   22.6255 F       1  UNL1       -0.1658
     30 F          -4.5395  -19.1474   19.9037 F       1  UNL1       -0.1658
@<TRIPOS>BOND
     1    18    19    3
     2    19     9    1
     3     9    10   ar
     4    10    11   ar
     5    11    12   ar
     6    12    13   ar
     7    13    14   ar
     8    14    15   ar
     9    15     1    1
    10     1     2    2
    11     1     3   am
    12     3     4    1
    13     4     5    1
    14     5     6    1
    15     6    20    1
    16    20    21   ar
    17    21    22   ar
    18    22    23   ar
    19    23    24   ar
    20    24    25    1
    21    24    26   ar
    22    26    27    1
    23    27    28    1
    24    27    29    1
    25    27    30    1
    26     6     7    1
    27     7     8    1
    28    15    16   ar
    29    16    17   ar
    30    17     9   ar
    31    16    12   ar
    32     8     3    1
    33    26    20   ar
@<TRIPOS>MOLECULE
*****
 30 33 0 0 0
SMALL
GASTEIGER

@<TRIPOS>ATOM
      1 C           0.4999    4.0990   18.8602 C.2     1  UNL1        0.2855
      2 O           0.9886    5.3520   19.5244 O.2     1  UNL1       -0.2665
      3 N           1.3000    2.8344   18.9635 N.am    1  UNL1       -0.2735
      4 C           2.5887    2.8227   19.7310 C.3     1  UNL1        0.0941
      5 C           3.3887    1.5581   19.8344 C.3     1  UNL1        0.0259
      6 C           2.9000    0.3051   19.1702 C.3     1  UNL1        0.0258
      7 C           1.6113    0.3168   18.4027 C.3     1  UNL1        0.0259
      8 C           0.8112    1.5814   18.2993 C.3     1  UNL1        0.0941
      9 C          -4.0943    3.4533   20.3408 C.ar    1  UNL1        0.0861
     10 C          -5.0861    3.5486   19.2196 C.ar    1  UNL1        0.0150
     11 C          -4.6141    3.8179   17.8216 C.ar    1  UNL1        0.0400
     12 C          -3.1502    3.9919   17.5447 C.ar    1  UNL1        0.1705
     13 N          -2.3936    4.2648   16.2785 N.ar    1  UNL1       -0.1283
     14 N          -0.9342    4.3381   16.6172 N.ar    1  UNL1       -0.1236
     15 C          -0.7887    4.1106   18.0927 C.ar    1  UNL1        0.2244
     16 N          -2.1584    3.8966   18.6659 N.ar    1  UNL1       -0.2681
     17 C          -2.6304    3.6273   20.0640 C.ar    1  UNL1        0.0933
     18 N          -5.0384    2.9147   23.1370 N.1     1  UNL1       -0.1908
     19 C          -4.5664    3.1840   21.7389 C.1     1  UNL1        0.1019
     20 C           3.7001   -0.9595   19.2736 C.ar    1  UNL1       -0.0163
     21 C           3.3257   -2.0034   20.2836 C.ar    1  UNL1       -0.0042
     22 C           4.1257   -3.2680   20.3869 C.ar    1  UNL1        0.0020
     23 C           5.3001   -3.4888   19.4803 C.ar    1  UNL1        0.0296
     24 C           5.6745   -2.4448   18.4702 C.ar    1  UNL1        0.1437
     25 F           6.8489   -2.6656   17.5635 F       1  UNL1       -0.2042
     26 C           4.8745   -1.1802   18.3668 C.ar    1  UNL1        0.0948
     27 C           5.2488   -0.1363   17.3569 C.3     1  UNL1        0.4204
     28 F           5.6232    0.9077   16.3469 F       1  UNL1       -0.1658
     29 F           6.2677    0.4184   18.3079 F       1  UNL1       -0.1658
     30 F           4.2300   -0.6909   16.4059 F       1  UNL1       -0.1658
@<TRIPOS>BOND
     1    18    19    3
     2    19     9    1
     3     9    10   ar
     4    10    11   ar
     5    11    12   ar
     6    12    13   ar
     7    13    14   ar
     8    14    15   ar
     9    15     1    1
    10     1     2    2
    11     1     3   am
    12     3     4    1
    13     4     5    1
    14     5     6    1
    15     6    20    1
    16    20    21   ar
    17    21    22   ar
    18    22    23   ar
    19    23    24   ar
    20    24    25    1
    21    24    26   ar
    22    26    27    1
    23    27    28    1
    24    27    29    1
    25    27    30    1
    26     6     7    1
    27     7     8    1
    28    15    16   ar
    29    16    17   ar
    30    17     9   ar
    31    16    12   ar
    32     8     3    1
    33    26    20   ar
@<TRIPOS>MOLECULE
*****
 30 33 0 0 0
SMALL
GASTEIGER

@<TRIPOS>ATOM
      1 C           8.2397   -3.4136   22.5684 C.2     1  UNL1        0.2855
      2 O           9.5354   -2.6601   22.5098 O.2     1  UNL1       -0.2665
      3 N           6.9536   -2.7219   22.2260 N.am    1  UNL1       -0.2735
      4 C           6.9630   -1.2765   21.8249 C.3     1  UNL1        0.0941
      5 C           5.6769   -0.5847   21.4825 C.3     1  UNL1        0.0259
      6 C           4.3812   -1.3383   21.5411 C.3     1  UNL1        0.0258
      7 C           4.3718   -2.7837   21.9422 C.3     1  UNL1        0.0259
      8 C           5.6579   -3.4755   22.2846 C.3     1  UNL1        0.0941
      9 C           7.2873   -5.5233   26.8532 C.ar    1  UNL1        0.0861
     10 C           7.3955   -7.0185   26.8027 C.ar    1  UNL1        0.0150
     11 C           7.7647   -7.7008   25.5189 C.ar    1  UNL1        0.0400
     12 C           8.0257   -6.8880   24.2856 C.ar    1  UNL1        0.1705
     13 N           8.4052   -7.2783   22.8879 N.ar    1  UNL1       -0.1283
     14 N           8.5316   -6.0243   22.0745 N.ar    1  UNL1       -0.1236
     15 C           8.2302   -4.8590   22.9695 C.ar    1  UNL1        0.2244
     16 N           7.9175   -5.3928   24.3361 N.ar    1  UNL1       -0.2681
     17 C           7.5483   -4.7104   25.6199 C.ar    1  UNL1        0.0933
     18 N           6.5489   -4.1585   29.4207 N.1     1  UNL1       -0.1908
     19 C           6.9181   -4.8409   28.1369 C.1     1  UNL1        0.1019
     20 C           3.0951   -0.6465   21.1986 C.ar    1  UNL1       -0.0163
     21 C           2.2365   -0.0770   22.2888 C.ar    1  UNL1       -0.0042
     22 C           0.9504    0.6148   21.9463 C.ar    1  UNL1        0.0020
     23 C           0.5228    0.7371   20.5137 C.ar    1  UNL1        0.0296
     24 C           1.3815    0.1674   19.4236 C.ar    1  UNL1        0.1437
     25 F           0.9539    0.2897   17.9910 F       1  UNL1       -0.2042
     26 C           2.6676   -0.5243   19.7660 C.ar    1  UNL1        0.0948
     27 C           3.5262   -1.0939   18.6760 C.3     1  UNL1        0.4204
     28 F           4.3849   -1.6634   17.5859 F       1  UNL1       -0.1658
     29 F           4.0479    0.2788   18.3697 F       1  UNL1       -0.1658
     30 F           3.0046   -2.4665   18.9822 F       1  UNL1       -0.1658
@<TRIPOS>BOND
     1    18    19    3
     2    19     9    1
     3     9    10   ar
     4    10    11   ar
     5    11    12   ar
     6    12    13   ar
     7    13    14   ar
     8    14    15   ar
     9    15     1    1
    10     1     2    2
    11     1     3   am
    12     3     4    1
    13     4     5    1
    14     5     6    1
    15     6    20    1
    16    20    21   ar
    17    21    22   ar
    18    22    23   ar
    19    23    24   ar
    20    24    25    1
    21    24    26   ar
    22    26    27    1
    23    27    28    1
    24    27    29    1
    25    27    30    1
    26     6     7    1
    27     7     8    1
    28    15    16   ar
    29    16    17   ar
    30    17     9   ar
    31    16    12   ar
    32     8     3    1
    33    26    20   ar
@<TRIPOS>MOLECULE
*****
 30 33 0 0 0
SMALL
GASTEIGER

@<TRIPOS>ATOM
      1 C          -0.1816    2.7651   19.8028 C.2     1  UNL1        0.2855
      2 O          -0.3509    3.6494   18.6030 O.2     1  UNL1       -0.2665
      3 N           0.7430    1.5856   19.7406 N.am    1  UNL1       -0.2735
      4 C           1.4984    1.2903   18.4787 C.3     1  UNL1        0.0941
      5 C           2.4229    0.1108   18.4166 C.3     1  UNL1        0.0259
      6 C           2.5922   -0.7735   19.6163 C.3     1  UNL1        0.0258
      7 C           1.8368   -0.4782   20.8782 C.3     1  UNL1        0.0259
      8 C           0.9123    0.7013   20.9404 C.3     1  UNL1        0.0941
      9 C          -4.9276    3.5467   20.5645 C.ar    1  UNL1        0.0861
     10 C          -5.2506    3.8079   22.0058 C.ar    1  UNL1        0.0150
     11 C          -4.1563    3.8076   23.0317 C.ar    1  UNL1        0.0400
     12 C          -2.7389    3.5460   22.6162 C.ar    1  UNL1        0.1705
     13 N          -1.4595    3.4829   23.3967 N.ar    1  UNL1       -0.1283
     14 N          -0.3458    3.1827   22.4378 N.ar    1  UNL1       -0.1236
     15 C          -0.9369    3.0603   21.0646 C.ar    1  UNL1        0.2244
     16 N          -2.4159    3.2848   21.1749 N.ar    1  UNL1       -0.2681
     17 C          -3.5103    3.2851   20.1491 C.ar    1  UNL1        0.0933
     18 N          -7.1163    3.5473   18.5128 N.1     1  UNL1       -0.1908
     19 C          -6.0220    3.5470   19.5387 C.1     1  UNL1        0.1019
     20 C           3.5168   -1.9530   19.5541 C.ar    1  UNL1       -0.0163
     21 C           2.9875   -3.3011   19.1637 C.ar    1  UNL1       -0.0042
     22 C           3.9121   -4.4806   19.1015 C.ar    1  UNL1        0.0020
     23 C           5.3660   -4.3121   19.4298 C.ar    1  UNL1        0.0296
     24 C           5.8953   -2.9639   19.8202 C.ar    1  UNL1        0.1437
     25 F           7.3492   -2.7953   20.1484 F       1  UNL1       -0.2042
     26 C           4.9707   -1.7844   19.8824 C.ar    1  UNL1        0.0948
     27 C           5.5000   -0.4362   20.2728 C.3     1  UNL1        0.4204
     28 F           6.0292    0.9119   20.6631 F       1  UNL1       -0.1658
     29 F           5.8108   -0.1420   18.8350 F       1  UNL1       -0.1658
     30 F           5.1891   -0.7304   21.7104 F       1  UNL1       -0.1658
@<TRIPOS>BOND
     1    18    19    3
     2    19     9    1
     3     9    10   ar
     4    10    11   ar
     5    11    12   ar
     6    12    13   ar
     7    13    14   ar
     8    14    15   ar
     9    15     1    1
    10     1     2    2
    11     1     3   am
    12     3     4    1
    13     4     5    1
    14     5     6    1
    15     6    20    1
    16    20    21   ar
    17    21    22   ar
    18    22    23   ar
    19    23    24   ar
    20    24    25    1
    21    24    26   ar
    22    26    27    1
    23    27    28    1
    24    27    29    1
    25    27    30    1
    26     6     7    1
    27     7     8    1
    28    15    16   ar
    29    16    17   ar
    30    17     9   ar
    31    16    12   ar
    32     8     3    1
    33    26    20   ar
@<TRIPOS>MOLECULE
*****
 30 33 0 0 0
SMALL
GASTEIGER

@<TRIPOS>ATOM
      1 C           0.1268    3.3245   21.7716 C.2     1  UNL1        0.2855
      2 O           0.6726    4.5179   22.4983 O.2     1  UNL1       -0.2665
      3 N           1.0079    2.1398   21.5073 N.am    1  UNL1       -0.2735
      4 C           2.4348    2.1483   21.9696 C.3     1  UNL1        0.0941
      5 C           3.3160    0.9635   21.7052 C.3     1  UNL1        0.0259
      6 C           2.7702   -0.2299   20.9785 C.3     1  UNL1        0.0258
      7 C           1.3432   -0.2383   20.5162 C.3     1  UNL1        0.0259
      8 C           0.4620    0.9464   20.7806 C.3     1  UNL1        0.0941
      9 C          -4.0324    3.7499   24.2689 C.ar    1  UNL1        0.0861
     10 C          -5.2474    3.6859   23.3915 C.ar    1  UNL1        0.0150
     11 C          -5.0942    3.5075   21.9101 C.ar    1  UNL1        0.0400
     12 C          -3.7260    3.3930   21.3060 C.ar    1  UNL1        0.1705
     13 N          -3.2660    3.2125   19.8897 N.ar    1  UNL1       -0.1283
     14 N          -1.7668    3.1648   19.8917 N.ar    1  UNL1       -0.1236
     15 C          -1.3001    3.3160   21.3092 C.ar    1  UNL1        0.2244
     16 N          -2.5111    3.4570   22.1833 N.ar    1  UNL1       -0.2681
     17 C          -2.6643    3.6354   23.6647 C.ar    1  UNL1        0.0933
     18 N          -4.3389    4.1067   27.2318 N.1     1  UNL1       -0.1908
     19 C          -4.1856    3.9283   25.7503 C.1     1  UNL1        0.1019
     20 C           3.6514   -1.4146   20.7142 C.ar    1  UNL1       -0.0163
     21 C           3.7692   -2.5048   21.7377 C.ar    1  UNL1       -0.0042
     22 C           4.6504   -3.6896   21.4733 C.ar    1  UNL1        0.0020
     23 C           5.4137   -3.7842   20.1855 C.ar    1  UNL1        0.0296
     24 C           5.2958   -2.6939   19.1620 C.ar    1  UNL1        0.1437
     25 F           6.0590   -2.7885   17.8742 F       1  UNL1       -0.2042
     26 C           4.4146   -1.5091   19.4263 C.ar    1  UNL1        0.0948
     27 C           4.2967   -0.4189   18.4029 C.3     1  UNL1        0.4204
     28 F           4.1787    0.6713   17.3794 F       1  UNL1       -0.1658
     29 F           3.1617   -1.1527   17.7521 F       1  UNL1       -0.1658
     30 F           5.4316    0.3149   19.0536 F       1  UNL1       -0.1658
@<TRIPOS>BOND
     1    18    19    3
     2    19     9    1
     3     9    10   ar
     4    10    11   ar
     5    11    12   ar
     6    12    13   ar
     7    13    14   ar
     8    14    15   ar
     9    15     1    1
    10     1     2    2
    11     1     3   am
    12     3     4    1
    13     4     5    1
    14     5     6    1
    15     6    20    1
    16    20    21   ar
    17    21    22   ar
    18    22    23   ar
    19    23    24   ar
    20    24    25    1
    21    24    26   ar
    22    26    27    1
    23    27    28    1
    24    27    29    1
    25    27    30    1
    26     6     7    1
    27     7     8    1
    28    15    16   ar
    29    16    17   ar
    30    17     9   ar
    31    16    12   ar
    32     8     3    1
    33    26    20   ar
@<TRIPOS>MOLECULE
*****
 30 33 0 0 0
SMALL
GASTEIGER

@<TRIPOS>ATOM
      1 C          -0.0127    4.5063   18.5176 C.2     1  UNL1        0.2855
      2 O           0.4597    5.8465   18.9977 O.2     1  UNL1       -0.2665
      3 N           0.8817    3.3082   18.6390 N.am    1  UNL1       -0.2735
      4 C           2.2484    3.4503   19.2404 C.3     1  UNL1        0.0941
      5 C           3.1428    2.2523   19.3617 C.3     1  UNL1        0.0259
      6 C           2.6704    0.9120   18.8816 C.3     1  UNL1        0.0258
      7 C           1.3036    0.7699   18.2801 C.3     1  UNL1        0.0259
      8 C           0.4092    1.9679   18.1588 C.3     1  UNL1        0.0941
      9 C          -4.3017    3.4549   20.5708 C.ar    1  UNL1        0.0861
     10 C          -5.4270    3.4139   19.5799 C.ar    1  UNL1        0.0150
     11 C          -5.1587    3.6827   18.1288 C.ar    1  UNL1        0.0400
     12 C          -3.7651    3.9926   17.6685 C.ar    1  UNL1        0.1705
     13 N          -3.2003    4.2977   16.3129 N.ar    1  UNL1       -0.1283
     14 N          -1.7259    4.5272   16.4659 N.ar    1  UNL1       -0.1236
     15 C          -1.3795    4.3640   17.9162 C.ar    1  UNL1        0.2244
     16 N          -2.6398    4.0336   18.6595 N.ar    1  UNL1       -0.2681
     17 C          -2.9081    3.7648   20.1106 C.ar    1  UNL1        0.0933
     18 N          -4.8383    2.9173   23.4730 N.1     1  UNL1       -0.1908
     19 C          -4.5700    3.1861   22.0219 C.1     1  UNL1        0.1019
     20 C           3.5648   -0.2861   19.0029 C.ar    1  UNL1       -0.0163
     21 C           4.3897   -0.7280   17.8307 C.ar    1  UNL1       -0.0042
     22 C           5.2841   -1.9260   17.9520 C.ar    1  UNL1        0.0020
     23 C           5.3536   -2.6822   19.2456 C.ar    1  UNL1        0.0296
     24 C           4.5286   -2.2403   20.4179 C.ar    1  UNL1        0.1437
     25 F           4.5980   -2.9964   21.7115 F       1  UNL1       -0.2042
     26 C           3.6342   -1.0422   20.2966 C.ar    1  UNL1        0.0948
     27 C           2.8093   -0.6002   21.4688 C.3     1  UNL1        0.4204
     28 F           1.9844   -0.1582   22.6410 F       1  UNL1       -0.1658
     29 F           4.0123    0.0712   22.0622 F       1  UNL1       -0.1658
     30 F           1.6063   -1.2716   20.8755 F       1  UNL1       -0.1658
@<TRIPOS>BOND
     1    18    19    3
     2    19     9    1
     3     9    10   ar
     4    10    11   ar
     5    11    12   ar
     6    12    13   ar
     7    13    14   ar
     8    14    15   ar
     9    15     1    1
    10     1     2    2
    11     1     3   am
    12     3     4    1
    13     4     5    1
    14     5     6    1
    15     6    20    1
    16    20    21   ar
    17    21    22   ar
    18    22    23   ar
    19    23    24   ar
    20    24    25    1
    21    24    26   ar
    22    26    27    1
    23    27    28    1
    24    27    29    1
    25    27    30    1
    26     6     7    1
    27     7     8    1
    28    15    16   ar
    29    16    17   ar
    30    17     9   ar
    31    16    12   ar
    32     8     3    1
    33    26    20   ar
@<TRIPOS>MOLECULE
*****
 30 33 0 0 0
SMALL
GASTEIGER

@<TRIPOS>ATOM
      1 C          -0.3818    2.4636   21.8187 C.2     1  UNL1        0.2855
      2 O          -1.7012    2.4610   21.1050 O.2     1  UNL1       -0.2665
      3 N           0.6500    1.4252   21.4913 N.am    1  UNL1       -0.2735
      4 C           0.3625    0.3843   20.4503 C.3     1  UNL1        0.0941
      5 C           1.3943   -0.6541   20.1230 C.3     1  UNL1        0.0259
      6 C           2.7136   -0.6515   20.8366 C.3     1  UNL1        0.0258
      7 C           3.0011    0.3895   21.8777 C.3     1  UNL1        0.0259
      8 C           1.9693    1.4278   22.2051 C.3     1  UNL1        0.0941
      9 C          -0.3687    2.1863   26.6807 C.ar    1  UNL1        0.0861
     10 C          -0.0201    3.4892   27.3372 C.ar    1  UNL1        0.0150
     11 C           0.2776    4.6960   26.4976 C.ar    1  UNL1        0.0400
     12 C           0.2267    4.6000   25.0016 C.ar    1  UNL1        0.1705
     13 N           0.4699    5.6126   23.9220 N.ar    1  UNL1       -0.1283
     14 N           0.2715    4.9355   22.5982 N.ar    1  UNL1       -0.1236
     15 C          -0.0943    3.5045   22.8597 C.ar    1  UNL1        0.2244
     16 N          -0.1220    3.2972   24.3451 N.ar    1  UNL1       -0.2681
     17 C          -0.4197    2.0903   25.1847 C.ar    1  UNL1        0.0933
     18 N          -0.9641   -0.2274   28.3599 N.1     1  UNL1       -0.1908
     19 C          -0.6664    0.9795   27.5203 C.1     1  UNL1        0.1019
     20 C           3.7454   -1.6899   20.5093 C.ar    1  UNL1       -0.0163
     21 C           3.9212   -2.8808   21.4042 C.ar    1  UNL1       -0.0042
     22 C           4.9530   -3.9192   21.0768 C.ar    1  UNL1        0.0020
     23 C           5.8090   -3.7666   19.8545 C.ar    1  UNL1        0.0296
     24 C           5.6332   -2.5757   18.9596 C.ar    1  UNL1        0.1437
     25 F           6.4893   -2.4231   17.7373 F       1  UNL1       -0.2042
     26 C           4.6015   -1.5373   19.2870 C.ar    1  UNL1        0.0948
     27 C           4.4256   -0.3464   18.3921 C.3     1  UNL1        0.4204
     28 F           4.2499    0.8446   17.4973 F       1  UNL1       -0.1658
     29 F           5.3661    0.4411   19.2556 F       1  UNL1       -0.1658
     30 F           3.4853   -1.1338   17.5287 F       1  UNL1       -0.1658
@<TRIPOS>BOND
     1    18    19    3
     2    19     9    1
     3     9    10   ar
     4    10    11   ar
     5    11    12   ar
     6    12    13   ar
     7    13    14   ar
     8    14    15   ar
     9    15     1    1
    10     1     2    2
    11     1     3   am
    12     3     4    1
    13     4     5    1
    14     5     6    1
    15     6    20    1
    16    20    21   ar
    17    21    22   ar
    18    22    23   ar
    19    23    24   ar
    20    24    25    1
    21    24    26   ar
    22    26    27    1
    23    27    28    1
    24    27    29    1
    25    27    30    1
    26     6     7    1
    27     7     8    1
    28    15    16   ar
    29    16    17   ar
    30    17     9   ar
    31    16    12   ar
    32     8     3    1
    33    26    20   ar
@<TRIPOS>MOLECULE
*****
 30 33 0 0 0
SMALL
GASTEIGER

@<TRIPOS>ATOM
      1 C           3.9483    1.2766   26.0044 C.2     1  UNL1        0.2855
      2 O           4.8215    2.4125   26.4487 O.2     1  UNL1       -0.2665
      3 N           3.9203    0.8725   24.5601 N.am    1  UNL1       -0.2735
      4 C           4.7656    1.6043   23.5601 C.3     1  UNL1        0.0941
      5 C           4.7376    1.2002   22.1158 C.3     1  UNL1        0.0259
      6 C           3.8644    0.0643   21.6715 C.3     1  UNL1        0.0258
      7 C           3.0191   -0.6674   22.6716 C.3     1  UNL1        0.0259
      8 C           3.0471   -0.2633   24.1159 C.3     1  UNL1        0.0941
      9 C          -0.7229    1.8534   27.2548 C.ar    1  UNL1        0.0861
     10 C          -1.1649    0.8895   28.3156 C.ar    1  UNL1        0.0150
     11 C          -0.1951   -0.1110   28.8710 C.ar    1  UNL1        0.0400
     12 C           1.2167   -0.1476   28.3656 C.ar    1  UNL1        0.1705
     13 N           2.3878   -1.0149   28.7208 N.ar    1  UNL1       -0.1283
     14 N           3.5536   -0.5870   27.8796 N.ar    1  UNL1       -0.1236
     15 C           3.1030    0.5448   27.0044 C.ar    1  UNL1        0.2244
     16 N           1.6587    0.8164   27.3048 N.ar    1  UNL1       -0.2681
     17 C           0.6889    1.8169   26.7494 C.ar    1  UNL1        0.0933
     18 N          -2.6625    3.8545   26.1439 N.1     1  UNL1       -0.1908
     19 C          -1.6927    2.8539   26.6994 C.1     1  UNL1        0.1019
     20 C           3.8365   -0.3397   20.2272 C.ar    1  UNL1       -0.0163
     21 C           3.0549    0.4713   19.2366 C.ar    1  UNL1       -0.0042
     22 C           3.0270    0.0672   17.7923 C.ar    1  UNL1        0.0020
     23 C           3.7806   -1.1478   17.3387 C.ar    1  UNL1        0.0296
     24 C           4.5622   -1.9589   18.3294 C.ar    1  UNL1        0.1437
     25 F           5.3158   -3.1739   17.8758 F       1  UNL1       -0.2042
     26 C           4.5901   -1.5548   19.7737 C.ar    1  UNL1        0.0948
     27 C           5.3717   -2.3657   20.7644 C.3     1  UNL1        0.4204
     28 F           6.1533   -3.1766   21.7552 F       1  UNL1       -0.1658
     29 F           6.5532   -1.4617   20.5721 F       1  UNL1       -0.1658
     30 F           4.1902   -3.2696   20.9567 F       1  UNL1       -0.1658
@<TRIPOS>BOND
     1    18    19    3
     2    19     9    1
     3     9    10   ar
     4    10    11   ar
     5    11    12   ar
     6    12    13   ar
     7    13    14   ar
     8    14    15   ar
     9    15     1    1
    10     1     2    2
    11     1     3   am
    12     3     4    1
    13     4     5    1
    14     5     6    1
    15     6    20    1
    16    20    21   ar
    17    21    22   ar
    18    22    23   ar
    19    23    24   ar
    20    24    25    1
    21    24    26   ar
    22    26    27    1
    23    27    28    1
    24    27    29    1
    25    27    30    1
    26     6     7    1
    27     7     8    1
    28    15    16   ar
    29    16    17   ar
    30    17     9   ar
    31    16    12   ar
    32     8     3    1
    33    26    20   ar
@<TRIPOS>MOLECULE
*****
 30 33 0 0 0
SMALL
GASTEIGER

@<TRIPOS>ATOM
      1 C           2.3706    2.6609   24.7542 C.2     1  UNL1        0.2855
      2 O           3.2577    3.7585   25.2625 O.2     1  UNL1       -0.2665
      3 N           2.8215    1.8009   23.6110 N.am    1  UNL1       -0.2735
      4 C           4.1595    2.0384   22.9760 C.3     1  UNL1        0.0941
      5 C           4.6105    1.1783   21.8327 C.3     1  UNL1        0.0259
      6 C           3.7234    0.0808   21.3244 C.3     1  UNL1        0.0258
      7 C           2.3853   -0.1567   21.9595 C.3     1  UNL1        0.0259
      8 C           1.9343    0.7033   23.1027 C.3     1  UNL1        0.0941
      9 C           1.1644    0.3657   28.8766 C.ar    1  UNL1        0.0861
     10 C          -0.3138    0.3651   29.1314 C.ar    1  UNL1        0.0150
     11 C          -1.2429    1.0288   28.1587 C.ar    1  UNL1        0.0400
     12 C          -0.6938    1.6932   26.9310 C.ar    1  UNL1        0.1705
     13 N          -1.3592    2.4222   25.8016 N.ar    1  UNL1       -0.1283
     14 N          -0.2923    2.8734   24.8486 N.ar    1  UNL1       -0.1236
     15 C           1.0325    2.4233   25.3892 C.ar    1  UNL1        0.2244
     16 N           0.7843    1.6938   26.6762 N.ar    1  UNL1       -0.2681
     17 C           1.7134    1.0301   27.6490 C.ar    1  UNL1        0.0933
     18 N           3.0226   -0.9617   30.8221 N.1     1  UNL1       -0.1908
     19 C           2.0935   -0.2980   29.8493 C.1     1  UNL1        0.1019
     20 C           4.1743   -0.7792   20.1812 C.ar    1  UNL1       -0.0163
     21 C           5.0258   -1.9864   20.4412 C.ar    1  UNL1       -0.0042
     22 C           5.4768   -2.8464   19.2979 C.ar    1  UNL1        0.0020
     23 C           5.0762   -2.4993   17.8947 C.ar    1  UNL1        0.0296
     24 C           4.2246   -1.2920   17.6347 C.ar    1  UNL1        0.1437
     25 F           3.8240   -0.9448   16.2315 F       1  UNL1       -0.2042
     26 C           3.7737   -0.4320   18.7780 C.ar    1  UNL1        0.0948
     27 C           2.9221    0.7752   18.5181 C.3     1  UNL1        0.4204
     28 F           2.0705    1.9823   18.2582 F       1  UNL1       -0.1658
     29 F           1.6876   -0.0646   18.6629 F       1  UNL1       -0.1658
     30 F           4.1566    1.6149   18.3733 F       1  UNL1       -0.1658
@<TRIPOS>BOND
     1    18    19    3
     2    19     9    1
     3     9    10   ar
     4    10    11   ar
     5    11    12   ar
     6    12    13   ar
     7    13    14   ar
     8    14    15   ar
     9    15     1    1
    10     1     2    2
    11     1     3   am
    12     3     4    1
    13     4     5    1
    14     5     6    1
    15     6    20    1
    16    20    21   ar
    17    21    22   ar
    18    22    23   ar
    19    23    24   ar
    20    24    25    1
    21    24    26   ar
    22    26    27    1
    23    27    28    1
    24    27    29    1
    25    27    30    1
    26     6     7    1
    27     7     8    1
    28    15    16   ar
    29    16    17   ar
    30    17     9   ar
    31    16    12   ar
    32     8     3    1
    33    26    20   ar
