@<TRIPOS>MOLECULE
*****
 33 35 0 0 0
SMALL
GASTEIGER

@<TRIPOS>ATOM
      1 N         -10.4182   -2.0906   18.6566 N.pl3   1  UNL1       -0.3568
      2 C         -11.3389   -3.2747   18.6618 C.ar    1  UNL1        0.0482
      3 C         -10.8084   -4.6358   19.0021 C.ar    1  UNL1        0.0452
      4 C         -11.7291   -5.8200   19.0073 C.ar    1  UNL1        0.1598
      5 F         -11.1985   -7.1811   19.3476 F       1  UNL1       -0.2027
      6 C         -13.1804   -5.6430   18.6723 C.ar    1  UNL1        0.1497
      7 C         -13.7110   -4.2819   18.3320 C.ar    1  UNL1        0.0280
      8 C         -12.7903   -3.0977   18.3268 C.ar    1  UNL1        0.0680
      9 H          -9.4656   -2.2067   18.8765 H       1  UNL1        0.1424
     10 H         -10.7664   -1.1972   18.4333 H       1  UNL1        0.1424
     11 C         -13.3209   -1.7366   17.9865 C.2     1  UNL1        0.2507
     12 O         -12.5154   -0.8120   17.1227 O.2     1  UNL1       -0.2698
     13 N         -14.6571   -1.3001   18.5101 N.am    1  UNL1       -0.2803
     14 H         -15.1858   -1.9070   19.0770 H       1  UNL1        0.1552
     15 C         -15.1877    0.0610   18.1698 C.ar    1  UNL1        0.0529
     16 C         -15.9764    0.2652   16.9103 C.ar    1  UNL1        0.0171
     17 C         -16.5070    1.6264   16.5701 C.ar    1  UNL1        0.0332
     18 C         -16.2491    2.7833   17.4894 C.ar    1  UNL1        0.1675
     19 F         -16.7797    4.1443   17.1491 F       1  UNL1       -0.2018
     20 C         -15.4605    2.5790   18.7489 C.ar    1  UNL1        0.1686
     21 F         -15.2025    3.7359   19.6682 F       1  UNL1       -0.2018
     22 C         -14.9298    1.2179   19.0891 C.ar    1  UNL1        0.0466
     23 S         -14.1012   -6.8271   18.6775 S.O2    1  UNL1        0.0655
     24 O         -13.4161   -7.3652   17.4564 O.2     1  UNL1       -0.1527
     25 O         -14.7863   -6.2890   19.8986 O.2     1  UNL1       -0.1527
     26 N         -15.0220   -8.0113   18.6827 N.3     1  UNL1       -0.1553
     27 C         -16.2853   -7.9754   19.4906 C.3     1  UNL1        0.0983
     28 C         -17.2060   -9.1596   19.4958 C.3     1  UNL1        0.0484
     29 C         -16.8635  -10.3795   18.6932 C.3     1  UNL1        0.1134
     30 O         -17.7842  -11.5637   18.6984 O.3     1  UNL1       -0.3844
     31 C         -15.6001  -10.4154   17.8853 C.3     1  UNL1        0.0484
     32 C         -14.6794   -9.2312   17.8801 C.3     1  UNL1        0.0983
     33 H         -17.9237  -11.8608   19.6112 H       1  UNL1        0.2103
@<TRIPOS>BOND
     1     1     2    1
     2     2     3   ar
     3     3     4   ar
     4     4     5    1
     5     4     6   ar
     6     6    23    1
     7    23    24    2
     8    23    25    2
     9    23    26    1
    10    26    27    1
    11    27    28    1
    12    28    29    1
    13    29    30    1
    14    29    31    1
    15    31    32    1
    16     6     7   ar
    17     7     8   ar
    18     8    11    1
    19    11    12    2
    20    11    13   am
    21    13    15    1
    22    15    16   ar
    23    16    17   ar
    24    17    18   ar
    25    18    19    1
    26    18    20   ar
    27    20    21    1
    28    20    22   ar
    29     8     2   ar
    30    22    15   ar
    31    32    26    1
    32     1     9    1
    33     1    10    1
    34    30    33    1
    35    13    14    1
@<TRIPOS>MOLECULE
*****
 33 35 0 0 0
SMALL
GASTEIGER

@<TRIPOS>ATOM
      1 N          -1.4964    4.4205   18.2897 N.pl3   1  UNL1       -0.3568
      2 C          -0.6263    3.3361   18.8526 C.ar    1  UNL1        0.0482
      3 C           0.5130    2.7924   18.0425 C.ar    1  UNL1        0.0452
      4 C           1.3831    1.7079   18.6054 C.ar    1  UNL1        0.1598
      5 F           2.5225    1.1642   17.7952 F       1  UNL1       -0.2027
      6 C           1.1140    1.1672   19.9784 C.ar    1  UNL1        0.1497
      7 C          -0.0253    1.7109   20.7885 C.ar    1  UNL1        0.0280
      8 C          -0.8954    2.7954   20.2256 C.ar    1  UNL1        0.0680
      9 H          -1.3197    4.7754   17.3886 H       1  UNL1        0.1424
     10 H          -2.2442    4.7774   18.8214 H       1  UNL1        0.1424
     11 C          -2.0348    3.3391   21.0358 C.2     1  UNL1        0.2507
     12 O          -1.7925    4.4381   22.0275 O.2     1  UNL1       -0.2698
     13 N          -3.4163    2.7838   20.8542 N.am    1  UNL1       -0.2803
     14 H          -3.5753    2.0625   20.2033 H       1  UNL1        0.1552
     15 C          -4.5556    3.3275   21.6643 C.ar    1  UNL1        0.0529
     16 C          -5.7218    3.9752   20.9783 C.ar    1  UNL1        0.0171
     17 C          -6.8611    4.5189   21.7885 C.ar    1  UNL1        0.0332
     18 C          -6.8343    4.4149   23.2846 C.ar    1  UNL1        0.1675
     19 F          -7.9736    4.9586   24.0947 F       1  UNL1       -0.2018
     20 C          -5.6682    3.7672   23.9706 C.ar    1  UNL1        0.1686
     21 F          -5.6413    3.6631   25.4667 F       1  UNL1       -0.2018
     22 C          -4.5289    3.2235   23.1605 C.ar    1  UNL1        0.0466
     23 S           1.9841    0.0827   20.5413 S.O2    1  UNL1        0.0655
     24 O           1.0050   -0.9495   20.0661 O.2     1  UNL1       -0.1527
     25 O           2.9632    1.1150   21.0165 O.2     1  UNL1       -0.1527
     26 N           2.8542   -1.0017   21.1041 N.3     1  UNL1       -0.1553
     27 C           3.1915   -1.0099   22.5657 C.3     1  UNL1        0.0983
     28 C           4.0616   -2.0944   23.1286 C.3     1  UNL1        0.0484
     29 C           4.5945   -3.1706   22.2299 C.3     1  UNL1        0.1134
     30 O           5.4646   -4.2551   22.7928 O.3     1  UNL1       -0.3844
     31 C           4.2573   -3.1624   20.7684 C.3     1  UNL1        0.0484
     32 C           3.3872   -2.0780   20.2055 C.3     1  UNL1        0.0983
     33 H           6.2304   -3.8577   23.2362 H       1  UNL1        0.2103
@<TRIPOS>BOND
     1     1     2    1
     2     2     3   ar
     3     3     4   ar
     4     4     5    1
     5     4     6   ar
     6     6    23    1
     7    23    24    2
     8    23    25    2
     9    23    26    1
    10    26    27    1
    11    27    28    1
    12    28    29    1
    13    29    30    1
    14    29    31    1
    15    31    32    1
    16     6     7   ar
    17     7     8   ar
    18     8    11    1
    19    11    12    2
    20    11    13   am
    21    13    15    1
    22    15    16   ar
    23    16    17   ar
    24    17    18   ar
    25    18    19    1
    26    18    20   ar
    27    20    21    1
    28    20    22   ar
    29     8     2   ar
    30    22    15   ar
    31    32    26    1
    32     1     9    1
    33     1    10    1
    34    30    33    1
    35    13    14    1
@<TRIPOS>MOLECULE
*****
 33 35 0 0 0
SMALL
GASTEIGER

@<TRIPOS>ATOM
      1 N           8.7423   -7.0848   23.0860 N.pl3   1  UNL1       -0.3568
      2 C           8.3531   -6.4241   24.3752 C.ar    1  UNL1        0.0482
      3 C           8.8409   -6.9802   25.6801 C.ar    1  UNL1        0.0452
      4 C           8.4517   -6.3195   26.9693 C.ar    1  UNL1        0.1598
      5 F           8.9395   -6.8756   28.2742 F       1  UNL1       -0.2027
      6 C           7.5747   -5.1027   26.9536 C.ar    1  UNL1        0.1497
      7 C           7.0869   -4.5466   25.6487 C.ar    1  UNL1        0.0280
      8 C           7.4761   -5.2073   24.3595 C.ar    1  UNL1        0.0680
      9 H           9.3179   -7.8834   23.0964 H       1  UNL1        0.1424
     10 H           8.4221   -6.7198   22.2296 H       1  UNL1        0.1424
     11 C           6.9882   -4.6512   23.0545 C.2     1  UNL1        0.2507
     12 O           7.8139   -4.8166   21.8132 O.2     1  UNL1       -0.2698
     13 N           5.6747   -3.9297   22.9910 N.am    1  UNL1       -0.2803
     14 H           5.1328   -3.8212   23.8057 H       1  UNL1        0.1552
     15 C           5.1868   -3.3736   21.6861 C.ar    1  UNL1        0.0529
     16 C           5.6192   -2.0067   21.2449 C.ar    1  UNL1        0.0171
     17 C           5.1313   -1.4506   19.9399 C.ar    1  UNL1        0.0332
     18 C           4.2111   -2.2614   19.0763 C.ar    1  UNL1        0.1675
     19 F           3.7232   -1.7053   17.7715 F       1  UNL1       -0.2018
     20 C           3.7787   -3.6283   19.5176 C.ar    1  UNL1        0.1686
     21 F           2.8585   -4.4391   18.6540 F       1  UNL1       -0.2018
     22 C           4.2666   -4.1844   20.8224 C.ar    1  UNL1        0.0466
     23 S           7.1855   -4.4420   28.2427 S.O2    1  UNL1        0.0655
     24 O           8.3527   -3.5083   28.1166 O.2     1  UNL1       -0.1527
     25 O           6.0183   -5.3756   28.3689 O.2     1  UNL1       -0.1527
     26 N           6.7963   -3.7813   29.5319 N.3     1  UNL1       -0.1553
     27 C           6.9203   -4.5300   30.8257 C.3     1  UNL1        0.0983
     28 C           6.5311   -3.8693   32.1149 C.3     1  UNL1        0.0484
     29 C           6.0179   -2.4598   32.1103 C.3     1  UNL1        0.1134
     30 O           5.6287   -1.7991   33.3995 O.3     1  UNL1       -0.3844
     31 C           5.8938   -1.7111   30.8165 C.3     1  UNL1        0.0484
     32 C           6.2831   -2.3718   29.5273 C.3     1  UNL1        0.0983
     33 H           4.9595   -2.3379   33.8498 H       1  UNL1        0.2103
@<TRIPOS>BOND
     1     1     2    1
     2     2     3   ar
     3     3     4   ar
     4     4     5    1
     5     4     6   ar
     6     6    23    1
     7    23    24    2
     8    23    25    2
     9    23    26    1
    10    26    27    1
    11    27    28    1
    12    28    29    1
    13    29    30    1
    14    29    31    1
    15    31    32    1
    16     6     7   ar
    17     7     8   ar
    18     8    11    1
    19    11    12    2
    20    11    13   am
    21    13    15    1
    22    15    16   ar
    23    16    17   ar
    24    17    18   ar
    25    18    19    1
    26    18    20   ar
    27    20    21    1
    28    20    22   ar
    29     8     2   ar
    30    22    15   ar
    31    32    26    1
    32     1     9    1
    33     1    10    1
    34    30    33    1
    35    13    14    1
@<TRIPOS>MOLECULE
*****
 33 35 0 0 0
SMALL
GASTEIGER

@<TRIPOS>ATOM
      1 N           1.1153    2.5259   24.1637 N.pl3   1  UNL1       -0.3568
      2 C          -0.1389    2.8874   23.4245 C.ar    1  UNL1        0.0482
      3 C          -1.2524    3.5952   24.1379 C.ar    1  UNL1        0.0452
      4 C          -2.5065    3.9567   23.3987 C.ar    1  UNL1        0.1598
      5 F          -3.6200    4.6646   24.1123 F       1  UNL1       -0.2027
      6 C          -2.6471    3.6105   21.9461 C.ar    1  UNL1        0.1497
      7 C          -1.5336    2.9026   21.2326 C.ar    1  UNL1        0.0280
      8 C          -0.2795    2.5411   21.9718 C.ar    1  UNL1        0.0680
      9 H           1.2076    2.7531   25.1171 H       1  UNL1        0.1424
     10 H           1.8461    2.0613   23.6954 H       1  UNL1        0.1424
     11 C           0.8340    1.8333   21.2583 C.2     1  UNL1        0.2507
     12 O           2.2496    2.2992   21.4285 O.2     1  UNL1       -0.2698
     13 N           0.5319    0.6595   20.3746 N.am    1  UNL1       -0.2803
     14 H          -0.3972    0.3536   20.2629 H       1  UNL1        0.1552
     15 C           1.6454   -0.0484   19.6611 C.ar    1  UNL1        0.0529
     16 C           2.1464    0.4746   18.3475 C.ar    1  UNL1        0.0171
     17 C           3.2599   -0.2333   17.6340 C.ar    1  UNL1        0.0332
     18 C           3.8723   -1.4641   18.2340 C.ar    1  UNL1        0.1675
     19 F           4.9858   -2.1720   17.5205 F       1  UNL1       -0.2018
     20 C           3.3713   -1.9871   19.5476 C.ar    1  UNL1        0.1686
     21 F           3.9837   -3.2178   20.1477 F       1  UNL1       -0.2018
     22 C           2.2578   -1.2792   20.2611 C.ar    1  UNL1        0.0466
     23 S          -3.9013    3.9720   21.2069 S.O2    1  UNL1        0.0655
     24 O          -3.3402    5.3334   20.9208 O.2     1  UNL1       -0.1527
     25 O          -4.4624    2.6106   21.4930 O.2     1  UNL1       -0.1527
     26 N          -5.1554    4.3335   20.4677 N.3     1  UNL1       -0.1553
     27 C          -5.6867    3.4221   19.4014 C.3     1  UNL1        0.0983
     28 C          -6.9409    3.7836   18.6622 C.3     1  UNL1        0.0484
     29 C          -7.6637    5.0566   18.9893 C.3     1  UNL1        0.1134
     30 O          -8.9179    5.4181   18.2501 O.3     1  UNL1       -0.3844
     31 C          -7.1325    5.9680   20.0556 C.3     1  UNL1        0.0484
     32 C          -5.8783    5.6065   20.7948 C.3     1  UNL1        0.0983
     33 H          -8.7375    5.4370   17.2972 H       1  UNL1        0.2103
@<TRIPOS>BOND
     1     1     2    1
     2     2     3   ar
     3     3     4   ar
     4     4     5    1
     5     4     6   ar
     6     6    23    1
     7    23    24    2
     8    23    25    2
     9    23    26    1
    10    26    27    1
    11    27    28    1
    12    28    29    1
    13    29    30    1
    14    29    31    1
    15    31    32    1
    16     6     7   ar
    17     7     8   ar
    18     8    11    1
    19    11    12    2
    20    11    13   am
    21    13    15    1
    22    15    16   ar
    23    16    17   ar
    24    17    18   ar
    25    18    19    1
    26    18    20   ar
    27    20    21    1
    28    20    22   ar
    29     8     2   ar
    30    22    15   ar
    31    32    26    1
    32     1     9    1
    33     1    10    1
    34    30    33    1
    35    13    14    1
@<TRIPOS>MOLECULE
*****
 33 35 0 0 0
SMALL
GASTEIGER

@<TRIPOS>ATOM
      1 N          -2.1501    4.1565   24.9528 N.pl3   1  UNL1       -0.3568
      2 C          -1.3153    3.3700   23.9861 C.ar    1  UNL1        0.0482
      3 C          -1.4853    3.5738   22.5098 C.ar    1  UNL1        0.0452
      4 C          -0.6506    2.7873   21.5430 C.ar    1  UNL1        0.1598
      5 F          -0.8206    2.9911   20.0666 F       1  UNL1       -0.2027
      6 C           0.3542    1.7970   22.0526 C.ar    1  UNL1        0.1497
      7 C           0.5242    1.5933   23.5289 C.ar    1  UNL1        0.0280
      8 C          -0.3105    2.3798   24.4956 C.ar    1  UNL1        0.0680
      9 H          -2.8096    4.8065   24.6183 H       1  UNL1        0.1424
     10 H          -2.0385    4.0228   25.9218 H       1  UNL1        0.1424
     11 C          -0.1405    2.1760   25.9720 C.2     1  UNL1        0.2507
     12 O          -1.3457    2.0865   26.8605 O.2     1  UNL1       -0.2698
     13 N           1.2348    2.0617   26.5598 N.am    1  UNL1       -0.2803
     14 H           2.0258    2.1204   25.9767 H       1  UNL1        0.1552
     15 C           1.4049    1.8579   28.0361 C.ar    1  UNL1        0.0529
     16 C           1.2332    3.0130   28.9774 C.ar    1  UNL1        0.0171
     17 C           1.4033    2.8092   30.4538 C.ar    1  UNL1        0.0332
     18 C           1.7451    1.4502   30.9888 C.ar    1  UNL1        0.1675
     19 F           1.9152    1.2464   32.4651 F       1  UNL1       -0.2018
     20 C           1.9169    0.2950   30.0475 C.ar    1  UNL1        0.1686
     21 F           2.2588   -1.0639   30.5825 F       1  UNL1       -0.2018
     22 C           1.7468    0.4988   28.5712 C.ar    1  UNL1        0.0466
     23 S           1.1890    1.0105   21.0859 S.O2    1  UNL1        0.0655
     24 O           0.0249    0.1029   20.8191 O.2     1  UNL1       -0.1527
     25 O           2.3531    1.9181   21.3527 O.2     1  UNL1       -0.1527
     26 N           2.0238    0.2240   20.1192 N.3     1  UNL1       -0.1553
     27 C           2.3710    0.8066   18.7813 C.3     1  UNL1        0.0983
     28 C           3.2058    0.0201   17.8145 C.3     1  UNL1        0.0484
     29 C           3.6933   -1.3490   18.1857 C.3     1  UNL1        0.1134
     30 O           4.5281   -2.1355   17.2190 O.3     1  UNL1       -0.3844
     31 C           3.3462   -1.9316   19.5236 C.3     1  UNL1        0.0484
     32 C           2.5114   -1.1451   20.4903 C.3     1  UNL1        0.0983
     33 H           4.0504   -2.2278   16.3798 H       1  UNL1        0.2103
@<TRIPOS>BOND
     1     1     2    1
     2     2     3   ar
     3     3     4   ar
     4     4     5    1
     5     4     6   ar
     6     6    23    1
     7    23    24    2
     8    23    25    2
     9    23    26    1
    10    26    27    1
    11    27    28    1
    12    28    29    1
    13    29    30    1
    14    29    31    1
    15    31    32    1
    16     6     7   ar
    17     7     8   ar
    18     8    11    1
    19    11    12    2
    20    11    13   am
    21    13    15    1
    22    15    16   ar
    23    16    17   ar
    24    17    18   ar
    25    18    19    1
    26    18    20   ar
    27    20    21    1
    28    20    22   ar
    29     8     2   ar
    30    22    15   ar
    31    32    26    1
    32     1     9    1
    33     1    10    1
    34    30    33    1
    35    13    14    1
@<TRIPOS>MOLECULE
*****
 33 35 0 0 0
SMALL
GASTEIGER

@<TRIPOS>ATOM
      1 N          -8.6367  -15.1986   26.9133 N.pl3   1  UNL1       -0.3568
      2 C          -7.5170  -15.6047   26.0015 C.ar    1  UNL1        0.0482
      3 C          -6.0928  -15.4208   26.4347 C.ar    1  UNL1        0.0452
      4 C          -4.9731  -15.8269   25.5229 C.ar    1  UNL1        0.1598
      5 F          -3.5488  -15.6430   25.9562 F       1  UNL1       -0.2027
      6 C          -5.2776  -16.4169   24.1779 C.ar    1  UNL1        0.1497
      7 C          -6.7019  -16.6008   23.7447 C.ar    1  UNL1        0.0280
      8 C          -7.8216  -16.1947   24.6565 C.ar    1  UNL1        0.0680
      9 H          -8.4368  -14.8114   27.7961 H       1  UNL1        0.1424
     10 H          -9.5715  -15.3193   26.6290 H       1  UNL1        0.1424
     11 C          -9.2458  -16.3786   24.2232 C.2     1  UNL1        0.2507
     12 O         -10.1990  -15.2213   24.2685 O.2     1  UNL1       -0.2698
     13 N          -9.7169  -17.7199   23.7446 N.am    1  UNL1       -0.2803
     14 H          -9.0913  -18.4795   23.7149 H       1  UNL1        0.1552
     15 C         -11.1411  -17.9039   23.3114 C.ar    1  UNL1        0.0529
     16 C         -11.4948  -17.8501   21.8547 C.ar    1  UNL1        0.0171
     17 C         -12.9191  -18.0340   21.4214 C.ar    1  UNL1        0.0332
     18 C         -13.9896  -18.2718   22.4449 C.ar    1  UNL1        0.1675
     19 F         -15.4138  -18.4558   22.0116 F       1  UNL1       -0.2018
     20 C         -13.6359  -18.3256   23.9016 C.ar    1  UNL1        0.1686
     21 F         -14.7064  -18.5634   24.9250 F       1  UNL1       -0.2018
     22 C         -12.2117  -18.1417   24.3348 C.ar    1  UNL1        0.0466
     23 S          -4.1580  -16.8230   23.2661 S.O2    1  UNL1        0.0655
     24 O          -4.2798  -18.2386   23.7470 O.2     1  UNL1       -0.1527
     25 O          -4.0361  -15.4074   22.7852 O.2     1  UNL1       -0.1527
     26 N          -3.0383  -17.2291   22.3543 N.3     1  UNL1       -0.1553
     27 C          -2.1404  -16.1858   21.7584 C.3     1  UNL1        0.0983
     28 C          -1.0207  -16.5919   20.8466 C.3     1  UNL1        0.0484
     29 C          -0.7989  -18.0414   20.5307 C.3     1  UNL1        0.1134
     30 O           0.3208  -18.4475   19.6189 O.3     1  UNL1       -0.3844
     31 C          -1.6968  -19.0847   21.1266 C.3     1  UNL1        0.0484
     32 C          -2.8165  -18.6786   22.0384 C.3     1  UNL1        0.0983
     33 H           0.2289  -17.9880   18.7696 H       1  UNL1        0.2103
@<TRIPOS>BOND
     1     1     2    1
     2     2     3   ar
     3     3     4   ar
     4     4     5    1
     5     4     6   ar
     6     6    23    1
     7    23    24    2
     8    23    25    2
     9    23    26    1
    10    26    27    1
    11    27    28    1
    12    28    29    1
    13    29    30    1
    14    29    31    1
    15    31    32    1
    16     6     7   ar
    17     7     8   ar
    18     8    11    1
    19    11    12    2
    20    11    13   am
    21    13    15    1
    22    15    16   ar
    23    16    17   ar
    24    17    18   ar
    25    18    19    1
    26    18    20   ar
    27    20    21    1
    28    20    22   ar
    29     8     2   ar
    30    22    15   ar
    31    32    26    1
    32     1     9    1
    33     1    10    1
    34    30    33    1
    35    13    14    1
@<TRIPOS>MOLECULE
*****
 33 35 0 0 0
SMALL
GASTEIGER

@<TRIPOS>ATOM
      1 N          -2.0842    3.6458   22.7800 N.pl3   1  UNL1       -0.3568
      2 C          -0.9751    2.9030   22.0958 C.ar    1  UNL1        0.0482
      3 C          -0.9568    2.7935   20.6000 C.ar    1  UNL1        0.0452
      4 C           0.1523    2.0507   19.9158 C.ar    1  UNL1        0.1598
      5 F           0.1706    1.9413   18.4199 F       1  UNL1       -0.2027
      6 C           1.2432    1.4174   20.7275 C.ar    1  UNL1        0.1497
      7 C           1.2249    1.5269   22.2234 C.ar    1  UNL1        0.0280
      8 C           0.1158    2.2697   22.9075 C.ar    1  UNL1        0.0680
      9 H          -2.8002    4.0615   22.2472 H       1  UNL1        0.1424
     10 H          -2.0962    3.7177   23.7618 H       1  UNL1        0.1424
     11 C           0.0975    2.3792   24.4035 C.2     1  UNL1        0.2507
     12 O          -0.2632    3.6808   25.0559 O.2     1  UNL1       -0.2698
     13 N           0.4400    1.1870   25.2469 N.am    1  UNL1       -0.2803
     14 H           0.6767    0.3327   24.8187 H       1  UNL1        0.1552
     15 C           0.4218    1.2964   26.7428 C.ar    1  UNL1        0.0529
     16 C           1.5539    1.9708   27.4593 C.ar    1  UNL1        0.0171
     17 C           1.5356    2.0802   28.9553 C.ar    1  UNL1        0.0332
     18 C           0.3853    1.5152   29.7346 C.ar    1  UNL1        0.1675
     19 F           0.3670    1.6246   31.2304 F       1  UNL1       -0.2018
     20 C          -0.7468    0.8408   29.0180 C.ar    1  UNL1        0.1686
     21 F          -1.8972    0.2757   29.7974 F       1  UNL1       -0.2018
     22 C          -0.7286    0.7313   27.5222 C.ar    1  UNL1        0.0466
     23 S           2.3523    0.6746   20.0434 S.O2    1  UNL1        0.0655
     24 O           3.2027    1.9096   20.0810 O.2     1  UNL1       -0.1527
     25 O           1.5019   -0.5605   20.0057 O.2     1  UNL1       -0.1527
     26 N           3.4614   -0.0682   19.3592 N.3     1  UNL1       -0.1553
     27 C           3.5544   -0.0650   17.8621 C.3     1  UNL1        0.0983
     28 C           4.6636   -0.8078   17.1780 C.3     1  UNL1        0.0484
     29 C           5.6797   -1.5539   17.9909 C.3     1  UNL1        0.1134
     30 O           6.7888   -2.2967   17.3067 O.3     1  UNL1       -0.3844
     31 C           5.5866   -1.5571   19.4880 C.3     1  UNL1        0.0484
     32 C           4.4775   -0.8143   20.1721 C.3     1  UNL1        0.0983
     33 H           6.4125   -2.9331   16.6788 H       1  UNL1        0.2103
@<TRIPOS>BOND
     1     1     2    1
     2     2     3   ar
     3     3     4   ar
     4     4     5    1
     5     4     6   ar
     6     6    23    1
     7    23    24    2
     8    23    25    2
     9    23    26    1
    10    26    27    1
    11    27    28    1
    12    28    29    1
    13    29    30    1
    14    29    31    1
    15    31    32    1
    16     6     7   ar
    17     7     8   ar
    18     8    11    1
    19    11    12    2
    20    11    13   am
    21    13    15    1
    22    15    16   ar
    23    16    17   ar
    24    17    18   ar
    25    18    19    1
    26    18    20   ar
    27    20    21    1
    28    20    22   ar
    29     8     2   ar
    30    22    15   ar
    31    32    26    1
    32     1     9    1
    33     1    10    1
    34    30    33    1
    35    13    14    1
@<TRIPOS>MOLECULE
*****
 33 35 0 0 0
SMALL
GASTEIGER

@<TRIPOS>ATOM
      1 N           2.5512    4.7907   17.3994 N.pl3   1  UNL1       -0.3568
      2 C           1.2317    4.6780   18.1039 C.ar    1  UNL1        0.0482
      3 C           0.2348    5.7950   18.0123 C.ar    1  UNL1        0.0452
      4 C          -1.0847    5.6823   18.7169 C.ar    1  UNL1        0.1598
      5 F          -2.0817    6.7993   18.6252 F       1  UNL1       -0.2027
      6 C          -1.4071    4.4526   19.5130 C.ar    1  UNL1        0.1497
      7 C          -0.4102    3.3357   19.6047 C.ar    1  UNL1        0.0280
      8 C           0.9093    3.4484   18.9001 C.ar    1  UNL1        0.0680
      9 H           2.7628    5.5978   16.8768 H       1  UNL1        0.1424
     10 H           3.2055    4.0576   17.4595 H       1  UNL1        0.1424
     11 C           1.9063    2.3314   18.9918 C.2     1  UNL1        0.2507
     12 O           3.2517    2.5757   19.6082 O.2     1  UNL1       -0.2698
     13 N           1.5577    0.9701   18.4670 N.am    1  UNL1       -0.2803
     14 H           0.6746    0.8097   18.0625 H       1  UNL1        0.1552
     15 C           2.5546   -0.1469   18.5587 C.ar    1  UNL1        0.0529
     16 C           3.4932   -0.4099   17.4186 C.ar    1  UNL1        0.0171
     17 C           4.4902   -1.5270   17.5103 C.ar    1  UNL1        0.0332
     18 C           4.5485   -2.3810   18.7420 C.ar    1  UNL1        0.1675
     19 F           5.5454   -3.4980   18.8337 F       1  UNL1       -0.2018
     20 C           3.6098   -2.1180   19.8821 C.ar    1  UNL1        0.1686
     21 F           3.6681   -2.9720   21.1139 F       1  UNL1       -0.2018
     22 C           2.6129   -1.0010   19.7905 C.ar    1  UNL1        0.0466
     23 S          -2.7266    4.3399   20.2176 S.O2    1  UNL1        0.0655
     24 O          -3.3696    3.8858   18.9407 O.2     1  UNL1       -0.1527
     25 O          -2.0836    4.7941   21.4944 O.2     1  UNL1       -0.1527
     26 N          -4.0460    4.2272   20.9221 N.3     1  UNL1       -0.1553
     27 C          -4.1241    3.5682   22.2673 C.3     1  UNL1        0.0983
     28 C          -5.4435    3.4555   22.9718 C.3     1  UNL1        0.0484
     29 C          -6.6849    4.0018   22.3312 C.3     1  UNL1        0.1134
     30 O          -8.0043    3.8891   23.0358 O.3     1  UNL1       -0.3844
     31 C          -6.6068    4.6609   20.9861 C.3     1  UNL1        0.0484
     32 C          -5.2874    4.7736   20.2815 C.3     1  UNL1        0.0983
     33 H          -8.1830    2.9580   23.2405 H       1  UNL1        0.2103
@<TRIPOS>BOND
     1     1     2    1
     2     2     3   ar
     3     3     4   ar
     4     4     5    1
     5     4     6   ar
     6     6    23    1
     7    23    24    2
     8    23    25    2
     9    23    26    1
    10    26    27    1
    11    27    28    1
    12    28    29    1
    13    29    30    1
    14    29    31    1
    15    31    32    1
    16     6     7   ar
    17     7     8   ar
    18     8    11    1
    19    11    12    2
    20    11    13   am
    21    13    15    1
    22    15    16   ar
    23    16    17   ar
    24    17    18   ar
    25    18    19    1
    26    18    20   ar
    27    20    21    1
    28    20    22   ar
    29     8     2   ar
    30    22    15   ar
    31    32    26    1
    32     1     9    1
    33     1    10    1
    34    30    33    1
    35    13    14    1
@<TRIPOS>MOLECULE
*****
 33 35 0 0 0
SMALL
GASTEIGER

@<TRIPOS>ATOM
      1 N          -1.5973    3.5398   21.9561 N.pl3   1  UNL1       -0.3568
      2 C          -1.0454    3.0751   23.2712 C.ar    1  UNL1        0.0482
      3 C          -1.5630    3.6616   24.5510 C.ar    1  UNL1        0.0452
      4 C          -1.0111    3.1969   25.8662 C.ar    1  UNL1        0.1598
      5 F          -1.5288    3.7835   27.1461 F       1  UNL1       -0.2027
      6 C           0.0583    2.1458   25.9014 C.ar    1  UNL1        0.1497
      7 C           0.5759    1.5593   24.6216 C.ar    1  UNL1        0.0280
      8 C           0.0241    2.0240   23.3064 C.ar    1  UNL1        0.0680
      9 H          -2.2992    4.2297   21.9329 H       1  UNL1        0.1424
     10 H          -1.2575    3.1548   21.1160 H       1  UNL1        0.1424
     11 C           0.5417    1.4374   22.0265 C.2     1  UNL1        0.2507
     12 O          -0.3931    1.2017   20.8775 O.2     1  UNL1       -0.2698
     13 N           1.9943    1.0867   21.8958 N.am    1  UNL1       -0.2803
     14 H           2.6078    1.2414   22.6500 H       1  UNL1        0.1552
     15 C           2.5119    0.5002   20.6160 C.ar    1  UNL1        0.0529
     16 C           2.8699    1.3991   19.4698 C.ar    1  UNL1        0.0171
     17 C           3.3876    0.8125   18.1899 C.ar    1  UNL1        0.0332
     18 C           3.5473   -0.6729   18.0563 C.ar    1  UNL1        0.1675
     19 F           4.0650   -1.2594   16.7765 F       1  UNL1       -0.2018
     20 C           3.1893   -1.5719   19.2025 C.ar    1  UNL1        0.1686
     21 F           3.3490   -3.0573   19.0688 F       1  UNL1       -0.2018
     22 C           2.6716   -0.9854   20.4823 C.ar    1  UNL1        0.0466
     23 S           0.6102    1.6811   27.2165 S.O2    1  UNL1        0.0655
     24 O           1.8002    2.5757   27.0333 O.2     1  UNL1       -0.1527
     25 O          -0.5798    0.7865   27.3998 O.2     1  UNL1       -0.1527
     26 N           1.1621    1.2164   28.5316 N.3     1  UNL1       -0.1553
     27 C           1.8278   -0.1238   28.6342 C.3     1  UNL1        0.0983
     28 C           2.3797   -0.5885   29.9493 C.3     1  UNL1        0.0484
     29 C           2.2658    0.2871   31.1619 C.3     1  UNL1        0.1134
     30 O           2.8176   -0.1776   32.4770 O.3     1  UNL1       -0.3844
     31 C           1.6000    1.6273   31.0593 C.3     1  UNL1        0.0484
     32 C           1.0482    2.0920   29.7442 C.3     1  UNL1        0.0983
     33 H           2.4202   -1.0309   32.7111 H       1  UNL1        0.2103
@<TRIPOS>BOND
     1     1     2    1
     2     2     3   ar
     3     3     4   ar
     4     4     5    1
     5     4     6   ar
     6     6    23    1
     7    23    24    2
     8    23    25    2
     9    23    26    1
    10    26    27    1
    11    27    28    1
    12    28    29    1
    13    29    30    1
    14    29    31    1
    15    31    32    1
    16     6     7   ar
    17     7     8   ar
    18     8    11    1
    19    11    12    2
    20    11    13   am
    21    13    15    1
    22    15    16   ar
    23    16    17   ar
    24    17    18   ar
    25    18    19    1
    26    18    20   ar
    27    20    21    1
    28    20    22   ar
    29     8     2   ar
    30    22    15   ar
    31    32    26    1
    32     1     9    1
    33     1    10    1
    34    30    33    1
    35    13    14    1
