@<TRIPOS>MOLECULE
*****
 32 36 0 0 0
SMALL
GASTEIGER

@<TRIPOS>ATOM
      1 C           3.1918    2.4077   35.8002 C.ar    1  UNL1        0.1663
      2 N           3.8558    1.3913   34.9193 N.ar    1  UNL1       -0.2222
      3 C           3.0975    1.3325   33.6264 C.ar    1  UNL1        0.1305
      4 C           3.2920    0.5130   32.3852 C.ar    1  UNL1        0.0765
      5 C           2.3538    0.6737   31.2258 C.ar    1  UNL1        0.0664
      6 BR          2.5483   -0.1457   29.9845 Br      1  UNL1       -0.0461
      7 C           1.2213    1.6537   31.3077 C.ar    1  UNL1        0.0816
      8 N           1.0267    2.4731   32.5489 N.ar    1  UNL1       -0.3357
      9 C           1.9648    2.3125   33.7083 C.ar    1  UNL1        0.1613
     10 N           2.0232    2.9771   35.0518 N.ar    1  UNL1       -0.2081
     11 H           0.2834    3.1164   32.6027 H       1  UNL1        0.1675
     12 C           2.2414    0.9621   38.5672 C.3     1  UNL1        0.0541
     13 C           3.1842    2.1236   38.4580 C.ar    1  UNL1        0.0830
     14 N           3.8558    2.8245   39.6016 N.ar    1  UNL1       -0.1738
     15 N           4.7077    3.9222   39.0366 N.ar    1  UNL1       -0.2531
     16 C           5.5557    4.8751   39.8257 C.3     1  UNL1        0.1533
     17 C           4.5627    3.8997   37.5437 C.ar    1  UNL1        0.0601
     18 C           5.2402    4.8261   36.5780 C.3     1  UNL1        0.0518
     19 C           3.6211    2.7881   37.1862 C.ar    1  UNL1        0.0642
     20 N           4.4246   -0.4670   32.3032 N.pl3   1  UNL1       -0.3030
     21 C           5.7256   -0.0591   31.6781 C.3     1  UNL1        0.1082
     22 C           6.8582   -1.0393   31.5961 C.3     1  UNL1        0.0941
     23 N           6.6896   -2.4272   32.1394 N.3     1  UNL1       -0.2659
     24 C           5.3886   -2.8351   32.7646 C.3     1  UNL1        0.0941
     25 C           4.2561   -1.8550   32.8465 C.3     1  UNL1        0.1082
     26 C           7.8221   -3.4074   32.0575 C.3     1  UNL1        0.1008
     27 C           7.8344   -4.4510   30.9800 C.ar    1  UNL1        0.0130
     28 C           6.8383   -4.3849   29.8605 C.ar    1  UNL1        0.0002
     29 C           6.8505   -5.4284   28.7831 C.ar    1  UNL1        0.0204
     30 C           7.8588   -6.5382   28.8253 C.ar    1  UNL1        0.0989
     31 N           8.8549   -6.6043   29.9448 N.ar    1  UNL1       -0.2426
     32 C           8.8427   -5.5608   31.0222 C.ar    1  UNL1        0.0959
@<TRIPOS>BOND
     1    12    13    1
     2    13    14   ar
     3    14    15   ar
     4    15    16    1
     5    15    17   ar
     6    17    18    1
     7    17    19   ar
     8    19     1    1
     9     1     2   ar
    10     2     3   ar
    11     3     4   ar
    12     4    20    1
    13    20    21    1
    14    21    22    1
    15    22    23    1
    16    23    26    1
    17    26    27    1
    18    27    28   ar
    19    28    29   ar
    20    29    30   ar
    21    30    31   ar
    22    31    32   ar
    23    23    24    1
    24    24    25    1
    25     4     5   ar
    26     5     6    1
    27     5     7   ar
    28     7     8   ar
    29     8     9   ar
    30     9    10   ar
    31    19    13   ar
    32    10     1   ar
    33     9     3    1
    34    25    20    1
    35    32    27   ar
    36     8    11    1
@<TRIPOS>MOLECULE
*****
 32 36 0 0 0
SMALL
GASTEIGER

@<TRIPOS>ATOM
      1 C           1.3996    1.3237   30.1642 C.ar    1  UNL1        0.1663
      2 N           2.5595    0.5358   30.6970 N.ar    1  UNL1       -0.2222
      3 C           2.7414    0.8981   32.1412 C.ar    1  UNL1        0.1305
      4 C           3.7256    0.4373   33.1752 C.ar    1  UNL1        0.0765
      5 C           3.6622    0.9884   34.5689 C.ar    1  UNL1        0.0664
      6 BR          4.6464    0.5276   35.6030 Br      1  UNL1       -0.0461
      7 C           2.6149    2.0000   34.9286 C.ar    1  UNL1        0.0816
      8 N           1.6307    2.4607   33.8946 N.ar    1  UNL1       -0.3357
      9 C           1.6940    1.9098   32.5009 C.ar    1  UNL1        0.1613
     10 N           0.8647    2.1728   31.2790 N.ar    1  UNL1       -0.2081
     11 H           0.9433    3.1248   34.1307 H       1  UNL1        0.1675
     12 C          -1.5443    0.2371   29.2685 C.3     1  UNL1        0.0541
     13 C          -0.4853    0.7721   28.3509 C.ar    1  UNL1        0.0830
     14 N          -0.5935    0.9017   26.8604 N.ar    1  UNL1       -0.1738
     15 N           0.6928    1.4812   26.3508 N.ar    1  UNL1       -0.2531
     16 C           1.0187    1.7797   24.9175 C.3     1  UNL1        0.1533
     17 C           1.5960    1.7099   27.5265 C.ar    1  UNL1        0.0601
     18 C           2.9837    2.2771   27.4751 C.3     1  UNL1        0.0518
     19 C           0.8679    1.2716   28.7625 C.ar    1  UNL1        0.0642
     20 N           4.7730   -0.5744   32.8156 N.pl3   1  UNL1       -0.3030
     21 C           6.0717   -0.1275   32.2126 C.3     1  UNL1        0.1082
     22 C           7.1191   -1.1393   31.8530 C.3     1  UNL1        0.0941
     23 N           6.8677   -2.5979   32.0964 N.3     1  UNL1       -0.2659
     24 C           5.5690   -3.0448   32.6994 C.3     1  UNL1        0.0941
     25 C           4.5217   -2.0330   33.0590 C.3     1  UNL1        0.1082
     26 C           7.9151   -3.6097   31.7368 C.3     1  UNL1        0.1008
     27 C           7.7356   -4.4772   30.5263 C.ar    1  UNL1        0.0130
     28 C           6.8099   -4.0483   29.4267 C.ar    1  UNL1        0.0002
     29 C           6.6303   -4.9157   28.2163 C.ar    1  UNL1        0.0204
     30 C           7.3766   -6.2122   28.1054 C.ar    1  UNL1        0.0989
     31 N           8.3023   -6.6411   29.2049 N.ar    1  UNL1       -0.2426
     32 C           8.4819   -5.7737   30.4154 C.ar    1  UNL1        0.0959
@<TRIPOS>BOND
     1    12    13    1
     2    13    14   ar
     3    14    15   ar
     4    15    16    1
     5    15    17   ar
     6    17    18    1
     7    17    19   ar
     8    19     1    1
     9     1     2   ar
    10     2     3   ar
    11     3     4   ar
    12     4    20    1
    13    20    21    1
    14    21    22    1
    15    22    23    1
    16    23    26    1
    17    26    27    1
    18    27    28   ar
    19    28    29   ar
    20    29    30   ar
    21    30    31   ar
    22    31    32   ar
    23    23    24    1
    24    24    25    1
    25     4     5   ar
    26     5     6    1
    27     5     7   ar
    28     7     8   ar
    29     8     9   ar
    30     9    10   ar
    31    19    13   ar
    32    10     1   ar
    33     9     3    1
    34    25    20    1
    35    32    27   ar
    36     8    11    1
@<TRIPOS>MOLECULE
*****
 32 36 0 0 0
SMALL
GASTEIGER

@<TRIPOS>ATOM
      1 C           1.6575    2.1978   31.4687 C.ar    1  UNL1        0.1663
      2 N           2.7470    1.2159   31.7832 N.ar    1  UNL1       -0.2222
      3 C           3.0357    1.2988   33.2528 C.ar    1  UNL1        0.1305
      4 C           4.0105    0.5670   34.1270 C.ar    1  UNL1        0.0765
      5 C           4.0742    0.8684   35.5950 C.ar    1  UNL1        0.0664
      6 BR          5.0490    0.1366   36.4693 Br      1  UNL1       -0.0461
      7 C           3.1632    1.9015   36.1888 C.ar    1  UNL1        0.0816
      8 N           2.1884    2.6334   35.3146 N.ar    1  UNL1       -0.3357
      9 C           2.1247    2.3320   33.8466 C.ar    1  UNL1        0.1613
     10 N           1.2729    2.8876   32.7440 N.ar    1  UNL1       -0.2081
     11 H           1.5905    3.3115   35.7044 H       1  UNL1        0.1675
     12 C           1.0455    5.1191   30.1493 C.3     1  UNL1        0.0541
     13 C           0.7766    3.7891   29.5100 C.ar    1  UNL1        0.0830
     14 N           0.1792    3.5684   28.1519 N.ar    1  UNL1       -0.1738
     15 N           0.0912    2.0892   27.9190 N.ar    1  UNL1       -0.2531
     16 C          -0.4455    1.4209   26.6881 C.3     1  UNL1        0.1533
     17 C           0.6343    1.3957   29.1332 C.ar    1  UNL1        0.0601
     18 C           0.7360   -0.0879   29.3296 C.3     1  UNL1        0.0518
     19 C           1.0579    2.4463   30.1164 C.ar    1  UNL1        0.0642
     20 N           4.9215   -0.4662   33.5332 N.pl3   1  UNL1       -0.3030
     21 C           6.2778   -0.0699   33.0299 C.3     1  UNL1        0.1082
     22 C           7.1888   -1.1031   32.4362 C.3     1  UNL1        0.0941
     23 N           6.7435   -2.5326   32.3458 N.3     1  UNL1       -0.2659
     24 C           5.3872   -2.9290   32.8491 C.3     1  UNL1        0.0941
     25 C           4.4762   -1.8957   33.4428 C.3     1  UNL1        0.1082
     26 C           7.6544   -3.5659   31.7521 C.3     1  UNL1        0.1008
     27 C           7.3202   -4.1893   30.4293 C.ar    1  UNL1        0.0130
     28 C           6.6510   -3.3733   29.3633 C.ar    1  UNL1        0.0002
     29 C           6.3167   -3.9966   28.0405 C.ar    1  UNL1        0.0204
     30 C           6.6517   -5.4360   27.7838 C.ar    1  UNL1        0.0989
     31 N           7.3209   -6.2520   28.8497 N.ar    1  UNL1       -0.2426
     32 C           7.6552   -5.6287   30.1725 C.ar    1  UNL1        0.0959
@<TRIPOS>BOND
     1    12    13    1
     2    13    14   ar
     3    14    15   ar
     4    15    16    1
     5    15    17   ar
     6    17    18    1
     7    17    19   ar
     8    19     1    1
     9     1     2   ar
    10     2     3   ar
    11     3     4   ar
    12     4    20    1
    13    20    21    1
    14    21    22    1
    15    22    23    1
    16    23    26    1
    17    26    27    1
    18    27    28   ar
    19    28    29   ar
    20    29    30   ar
    21    30    31   ar
    22    31    32   ar
    23    23    24    1
    24    24    25    1
    25     4     5   ar
    26     5     6    1
    27     5     7   ar
    28     7     8   ar
    29     8     9   ar
    30     9    10   ar
    31    19    13   ar
    32    10     1   ar
    33     9     3    1
    34    25    20    1
    35    32    27   ar
    36     8    11    1
@<TRIPOS>MOLECULE
*****
 32 36 0 0 0
SMALL
GASTEIGER

@<TRIPOS>ATOM
      1 C           0.1586    1.5927   26.6245 C.ar    1  UNL1        0.1663
      2 N           0.6635    1.4800   25.2166 N.ar    1  UNL1       -0.2222
      3 C          -0.2600    2.2607   24.3291 C.ar    1  UNL1        0.1305
      4 C          -0.2604    2.5065   22.8494 C.ar    1  UNL1        0.0765
      5 C          -1.3366    3.3476   22.2292 C.ar    1  UNL1        0.0664
      6 BR         -1.3370    3.5935   20.7494 Br      1  UNL1       -0.0461
      7 C          -2.4121    3.9428   23.0887 C.ar    1  UNL1        0.0816
      8 N          -2.4117    3.6970   24.5684 N.ar    1  UNL1       -0.3357
      9 C          -1.3357    2.8559   25.1886 C.ar    1  UNL1        0.1613
     10 N          -1.0769    2.4431   26.6073 N.ar    1  UNL1       -0.2081
     11 H          -3.1177    4.0877   25.1325 H       1  UNL1        0.1675
     12 C          -1.3253   -0.4303   28.7113 C.3     1  UNL1        0.0541
     13 C           0.0980    0.0353   28.7961 C.ar    1  UNL1        0.0830
     14 N           1.0891   -0.3472   29.8550 N.ar    1  UNL1       -0.1738
     15 N           2.3839    0.3463   29.5504 N.ar    1  UNL1       -0.2531
     16 C           3.6476    0.2462   30.3521 C.3     1  UNL1        0.1533
     17 C           2.1928    1.1574   28.3030 C.ar    1  UNL1        0.0601
     18 C           3.2321    2.0109   27.6386 C.3     1  UNL1        0.0518
     19 C           0.7801    0.9652   27.8370 C.ar    1  UNL1        0.0642
     20 N           0.8152    1.9114   21.9899 N.pl3   1  UNL1       -0.3030
     21 C           0.5656    0.6254   21.2591 C.3     1  UNL1        0.1082
     22 C           1.6413    0.0303   20.3996 C.3     1  UNL1        0.0941
     23 N           2.9665    0.7211   20.2709 N.3     1  UNL1       -0.2659
     24 C           3.2161    2.0071   21.0016 C.3     1  UNL1        0.0941
     25 C           2.1404    2.6022   21.8611 C.3     1  UNL1        0.1082
     26 C           4.0422    0.1260   19.4113 C.3     1  UNL1        0.1008
     27 C           4.4322   -1.3119   19.5861 C.ar    1  UNL1        0.0130
     28 C           4.3637   -2.2544   18.4212 C.ar    1  UNL1        0.0002
     29 C           4.7536   -3.6922   18.5958 C.ar    1  UNL1        0.0204
     30 C           5.2121   -4.1875   19.9354 C.ar    1  UNL1        0.0989
     31 N           5.2805   -3.2450   21.1003 N.ar    1  UNL1       -0.2426
     32 C           4.8906   -1.8072   20.9257 C.ar    1  UNL1        0.0959
@<TRIPOS>BOND
     1    12    13    1
     2    13    14   ar
     3    14    15   ar
     4    15    16    1
     5    15    17   ar
     6    17    18    1
     7    17    19   ar
     8    19     1    1
     9     1     2   ar
    10     2     3   ar
    11     3     4   ar
    12     4    20    1
    13    20    21    1
    14    21    22    1
    15    22    23    1
    16    23    26    1
    17    26    27    1
    18    27    28   ar
    19    28    29   ar
    20    29    30   ar
    21    30    31   ar
    22    31    32   ar
    23    23    24    1
    24    24    25    1
    25     4     5   ar
    26     5     6    1
    27     5     7   ar
    28     7     8   ar
    29     8     9   ar
    30     9    10   ar
    31    19    13   ar
    32    10     1   ar
    33     9     3    1
    34    25    20    1
    35    32    27   ar
    36     8    11    1
@<TRIPOS>MOLECULE
*****
 32 36 0 0 0
SMALL
GASTEIGER

@<TRIPOS>ATOM
      1 C           6.4627   -2.9761   21.1261 C.ar    1  UNL1        0.1663
      2 N           6.0972   -2.3536   22.4410 N.ar    1  UNL1       -0.2222
      3 C           6.5252   -3.2899   23.5319 C.ar    1  UNL1        0.1305
      4 C           6.4226   -3.2039   25.0259 C.ar    1  UNL1        0.0765
      5 C           6.9500   -4.3191   25.8793 C.ar    1  UNL1        0.0664
      6 BR          6.8475   -4.2331   27.3734 Br      1  UNL1       -0.0461
      7 C           7.5799   -5.5202   25.2387 C.ar    1  UNL1        0.0816
      8 N           7.6824   -5.6063   23.7447 N.ar    1  UNL1       -0.3357
      9 C           7.1551   -4.4911   22.8913 C.ar    1  UNL1        0.1613
     10 N           7.1164   -4.2972   21.4044 N.ar    1  UNL1       -0.2081
     11 H           8.0959   -6.3946   23.3243 H       1  UNL1        0.1675
     12 C           8.7396   -2.2941   18.8901 C.3     1  UNL1        0.0541
     13 C           7.2640   -2.0685   18.7430 C.ar    1  UNL1        0.0830
     14 N           6.5760   -1.4898   17.5424 N.ar    1  UNL1       -0.1738
     15 N           5.1041   -1.4455   17.8280 N.ar    1  UNL1       -0.2531
     16 C           4.0406   -0.9389   16.8996 C.3     1  UNL1        0.1533
     17 C           4.8825   -1.9970   19.2054 C.ar    1  UNL1        0.0601
     18 C           3.5584   -2.1385   19.8959 C.3     1  UNL1        0.0518
     19 C           6.2174   -2.3820   19.7708 C.ar    1  UNL1        0.0642
     20 N           5.7927   -2.0027   25.6666 N.pl3   1  UNL1       -0.3030
     21 C           4.3006   -1.9160   25.7930 C.3     1  UNL1        0.1082
     22 C           3.6708   -0.7148   26.4337 C.3     1  UNL1        0.0941
     23 N           4.5331    0.3996   26.9480 N.3     1  UNL1       -0.2659
     24 C           6.0252    0.3129   26.8216 C.3     1  UNL1        0.0941
     25 C           6.6551   -0.8883   26.1809 C.3     1  UNL1        0.1082
     26 C           3.9033    1.6008   27.5887 C.3     1  UNL1        0.1008
     27 C           2.5568    1.4843   28.2395 C.ar    1  UNL1        0.0130
     28 C           1.3238    1.8948   27.4904 C.ar    1  UNL1        0.0002
     29 C          -0.0227    1.7784   28.1411 C.ar    1  UNL1        0.0204
     30 C          -0.1361    1.2513   29.5408 C.ar    1  UNL1        0.0989
     31 N           1.0969    0.8408   30.2899 N.ar    1  UNL1       -0.2426
     32 C           2.4434    0.9573   29.6392 C.ar    1  UNL1        0.0959
@<TRIPOS>BOND
     1    12    13    1
     2    13    14   ar
     3    14    15   ar
     4    15    16    1
     5    15    17   ar
     6    17    18    1
     7    17    19   ar
     8    19     1    1
     9     1     2   ar
    10     2     3   ar
    11     3     4   ar
    12     4    20    1
    13    20    21    1
    14    21    22    1
    15    22    23    1
    16    23    26    1
    17    26    27    1
    18    27    28   ar
    19    28    29   ar
    20    29    30   ar
    21    30    31   ar
    22    31    32   ar
    23    23    24    1
    24    24    25    1
    25     4     5   ar
    26     5     6    1
    27     5     7   ar
    28     7     8   ar
    29     8     9   ar
    30     9    10   ar
    31    19    13   ar
    32    10     1   ar
    33     9     3    1
    34    25    20    1
    35    32    27   ar
    36     8    11    1
@<TRIPOS>MOLECULE
*****
 32 36 0 0 0
SMALL
GASTEIGER

@<TRIPOS>ATOM
      1 C           5.0868   -1.7415   31.9708 C.ar    1  UNL1        0.1663
      2 N           5.7311   -2.0111   30.6434 N.ar    1  UNL1       -0.2222
      3 C           6.4008   -3.3513   30.7169 C.ar    1  UNL1        0.1305
      4 C           7.1906   -4.1352   29.7110 C.ar    1  UNL1        0.0765
      5 C           7.7500   -5.4777   30.0782 C.ar    1  UNL1        0.0664
      6 BR          8.5399   -6.2616   29.0723 Br      1  UNL1       -0.0461
      7 C           7.5196   -6.0364   31.4510 C.ar    1  UNL1        0.0816
      8 N           6.7297   -5.2525   32.4568 N.ar    1  UNL1       -0.3357
      9 C           6.1703   -3.9100   32.0898 C.ar    1  UNL1        0.1613
     10 N           5.3583   -2.9151   32.8648 N.ar    1  UNL1       -0.2081
     11 H           6.5785   -5.6192   33.3579 H       1  UNL1        0.1675
     12 C           5.7363    0.2664   34.4600 C.3     1  UNL1        0.0541
     13 C           4.6064    0.4091   33.4838 C.ar    1  UNL1        0.0830
     14 N           3.5766    1.4997   33.4804 N.ar    1  UNL1       -0.1738
     15 N           2.6416    1.2509   32.3341 N.ar    1  UNL1       -0.2531
     16 C           1.4619    2.0978   31.9588 C.3     1  UNL1        0.1533
     17 C           3.0936    0.0064   31.6291 C.ar    1  UNL1        0.0601
     18 C           2.4451   -0.6097   30.4249 C.3     1  UNL1        0.0518
     19 C           4.3078   -0.5139   32.3396 C.ar    1  UNL1        0.0642
     20 N           7.4211   -3.5766   28.3381 N.pl3   1  UNL1       -0.3030
     21 C           6.4426   -3.8628   27.2379 C.3     1  UNL1        0.1082
     22 C           6.6731   -3.3042   25.8651 C.3     1  UNL1        0.0941
     23 N           7.8822   -2.4593   25.5924 N.3     1  UNL1       -0.2659
     24 C           8.8608   -2.1731   26.6926 C.3     1  UNL1        0.0941
     25 C           8.6302   -2.7317   28.0655 C.3     1  UNL1        0.1082
     26 C           8.1128   -1.9007   24.2196 C.3     1  UNL1        0.1008
     27 C           7.4292   -2.5164   23.0347 C.ar    1  UNL1        0.0130
     28 C           6.2517   -1.8304   22.4080 C.ar    1  UNL1        0.0002
     29 C           5.5681   -2.4460   21.2233 C.ar    1  UNL1        0.0204
     30 C           6.0621   -3.7478   20.6652 C.ar    1  UNL1        0.0989
     31 N           7.2397   -4.4338   21.2919 N.ar    1  UNL1       -0.2426
     32 C           7.9232   -3.8182   22.4766 C.ar    1  UNL1        0.0959
@<TRIPOS>BOND
     1    12    13    1
     2    13    14   ar
     3    14    15   ar
     4    15    16    1
     5    15    17   ar
     6    17    18    1
     7    17    19   ar
     8    19     1    1
     9     1     2   ar
    10     2     3   ar
    11     3     4   ar
    12     4    20    1
    13    20    21    1
    14    21    22    1
    15    22    23    1
    16    23    26    1
    17    26    27    1
    18    27    28   ar
    19    28    29   ar
    20    29    30   ar
    21    30    31   ar
    22    31    32   ar
    23    23    24    1
    24    24    25    1
    25     4     5   ar
    26     5     6    1
    27     5     7   ar
    28     7     8   ar
    29     8     9   ar
    30     9    10   ar
    31    19    13   ar
    32    10     1   ar
    33     9     3    1
    34    25    20    1
    35    32    27   ar
    36     8    11    1
@<TRIPOS>MOLECULE
*****
 32 36 0 0 0
SMALL
GASTEIGER

@<TRIPOS>ATOM
      1 C           6.6453   -3.5267   29.0953 C.ar    1  UNL1        0.1663
      2 N           6.9518   -3.4275   27.6303 N.ar    1  UNL1       -0.2222
      3 C           7.2870   -4.8023   27.1328 C.ar    1  UNL1        0.1305
      4 C           7.6698   -5.3127   25.7752 C.ar    1  UNL1        0.0765
      5 C           7.9533   -6.7720   25.5752 C.ar    1  UNL1        0.0664
      6 BR          8.3361   -7.2825   24.2176 Br      1  UNL1       -0.0461
      7 C           7.8540   -7.7209   26.7326 C.ar    1  UNL1        0.0816
      8 N           7.4712   -7.2105   28.0901 N.ar    1  UNL1       -0.3357
      9 C           7.1877   -5.7512   28.2902 C.ar    1  UNL1        0.1613
     10 N           6.7911   -4.9629   29.5032 N.ar    1  UNL1       -0.2081
     11 H           7.4060   -7.8333   28.8498 H       1  UNL1        0.1675
     12 C           4.5252   -1.1505   28.3828 C.3     1  UNL1        0.0541
     13 C           5.2860   -1.2973   29.6671 C.ar    1  UNL1        0.0830
     14 N           5.2060   -0.3776   30.8494 N.ar    1  UNL1       -0.1738
     15 N           6.1311   -0.9014   31.9076 N.ar    1  UNL1       -0.2531
     16 C           6.3635   -0.2894   33.2571 C.3     1  UNL1        0.1533
     17 C           6.7828   -2.1449   31.3793 C.ar    1  UNL1        0.0601
     18 C           7.7815   -2.9946   32.1079 C.3     1  UNL1        0.0518
     19 C           6.2606   -2.3895   29.9946 C.ar    1  UNL1        0.0642
     20 N           7.7691   -4.3638   24.6177 N.pl3   1  UNL1       -0.3030
     21 C           9.0356   -3.5945   24.3851 C.3     1  UNL1        0.1082
     22 C           9.1348   -2.6456   23.2275 C.3     1  UNL1        0.0941
     23 N           7.9676   -2.4662   22.3027 N.3     1  UNL1       -0.2659
     24 C           6.7011   -3.2355   22.5353 C.3     1  UNL1        0.0941
     25 C           6.6019   -4.1843   23.6928 C.3     1  UNL1        0.1082
     26 C           8.0668   -1.5174   21.1451 C.3     1  UNL1        0.1008
     27 C           7.0341   -1.5504   20.0576 C.ar    1  UNL1        0.0130
     28 C           5.7772   -0.7430   20.1921 C.ar    1  UNL1        0.0002
     29 C           4.7445   -0.7760   19.1047 C.ar    1  UNL1        0.0204
     30 C           4.9689   -1.6165   17.8827 C.ar    1  UNL1        0.0989
     31 N           6.2259   -2.4238   17.7481 N.ar    1  UNL1       -0.2426
     32 C           7.2585   -2.3908   18.8356 C.ar    1  UNL1        0.0959
@<TRIPOS>BOND
     1    12    13    1
     2    13    14   ar
     3    14    15   ar
     4    15    16    1
     5    15    17   ar
     6    17    18    1
     7    17    19   ar
     8    19     1    1
     9     1     2   ar
    10     2     3   ar
    11     3     4   ar
    12     4    20    1
    13    20    21    1
    14    21    22    1
    15    22    23    1
    16    23    26    1
    17    26    27    1
    18    27    28   ar
    19    28    29   ar
    20    29    30   ar
    21    30    31   ar
    22    31    32   ar
    23    23    24    1
    24    24    25    1
    25     4     5   ar
    26     5     6    1
    27     5     7   ar
    28     7     8   ar
    29     8     9   ar
    30     9    10   ar
    31    19    13   ar
    32    10     1   ar
    33     9     3    1
    34    25    20    1
    35    32    27   ar
    36     8    11    1
@<TRIPOS>MOLECULE
*****
 32 36 0 0 0
SMALL
GASTEIGER

@<TRIPOS>ATOM
      1 C           4.8114   -1.5781   32.2208 C.ar    1  UNL1        0.1663
      2 N           5.4660   -1.7536   30.8827 N.ar    1  UNL1       -0.2222
      3 C           6.1704   -3.0780   30.8815 C.ar    1  UNL1        0.1305
      4 C           6.9832   -3.7815   29.8354 C.ar    1  UNL1        0.0765
      5 C           7.5767   -5.1280   30.1267 C.ar    1  UNL1        0.0664
      6 BR          8.3894   -5.8316   29.0805 Br      1  UNL1       -0.0461
      7 C           7.3574   -5.7709   31.4640 C.ar    1  UNL1        0.0816
      8 N           6.5447   -5.0673   32.5101 N.ar    1  UNL1       -0.3357
      9 C           5.9512   -3.7209   32.2189 C.ar    1  UNL1        0.1613
     10 N           5.1113   -2.7938   33.0467 N.ar    1  UNL1       -0.2081
     11 H           6.4008   -5.4893   33.3879 H       1  UNL1        0.1675
     12 C           2.4645   -0.1181   30.4859 C.3     1  UNL1        0.0541
     13 C           2.9208    0.2765   31.8592 C.ar    1  UNL1        0.0830
     14 N           2.3784    1.4116   32.6761 N.ar    1  UNL1       -0.1738
     15 N           3.1219    1.4421   33.9786 N.ar    1  UNL1       -0.2531
     16 C           2.9021    2.4175   35.0966 C.3     1  UNL1        0.1533
     17 C           4.1239    0.3258   33.9665 C.ar    1  UNL1        0.0601
     18 C           5.0819   -0.0109   35.0705 C.3     1  UNL1        0.0518
     19 C           3.9996   -0.3945   32.6567 C.ar    1  UNL1        0.0642
     20 N           7.2025   -3.1387   28.4979 N.pl3   1  UNL1       -0.3030
     21 C           6.2997   -3.4735   27.3478 C.3     1  UNL1        0.1082
     22 C           6.5191   -2.8306   26.0104 C.3     1  UNL1        0.0941
     23 N           7.6412   -1.8530   25.8232 N.3     1  UNL1       -0.2659
     24 C           8.5440   -1.5182   26.9733 C.3     1  UNL1        0.0941
     25 C           8.3246   -2.1610   28.3107 C.3     1  UNL1        0.1082
     26 C           7.8606   -1.2101   24.4858 C.3     1  UNL1        0.1008
     27 C           6.6863   -0.8560   23.6222 C.ar    1  UNL1        0.0130
     28 C           5.7384    0.2244   24.0513 C.ar    1  UNL1        0.0002
     29 C           4.5642    0.5786   23.1878 C.ar    1  UNL1        0.0204
     30 C           4.3378   -0.1478   21.8951 C.ar    1  UNL1        0.0989
     31 N           5.2857   -1.2282   21.4659 N.ar    1  UNL1       -0.2426
     32 C           6.4599   -1.5824   22.3294 C.ar    1  UNL1        0.0959
@<TRIPOS>BOND
     1    12    13    1
     2    13    14   ar
     3    14    15   ar
     4    15    16    1
     5    15    17   ar
     6    17    18    1
     7    17    19   ar
     8    19     1    1
     9     1     2   ar
    10     2     3   ar
    11     3     4   ar
    12     4    20    1
    13    20    21    1
    14    21    22    1
    15    22    23    1
    16    23    26    1
    17    26    27    1
    18    27    28   ar
    19    28    29   ar
    20    29    30   ar
    21    30    31   ar
    22    31    32   ar
    23    23    24    1
    24    24    25    1
    25     4     5   ar
    26     5     6    1
    27     5     7   ar
    28     7     8   ar
    29     8     9   ar
    30     9    10   ar
    31    19    13   ar
    32    10     1   ar
    33     9     3    1
    34    25    20    1
    35    32    27   ar
    36     8    11    1
@<TRIPOS>MOLECULE
*****
 32 36 0 0 0
SMALL
GASTEIGER

@<TRIPOS>ATOM
      1 C           0.9902    4.0420   33.3930 C.ar    1  UNL1        0.1663
      2 N           0.7515    3.6479   31.9655 N.ar    1  UNL1       -0.2222
      3 C           1.4861    2.3655   31.7096 C.ar    1  UNL1        0.1305
      4 C           1.6138    1.5091   30.4848 C.ar    1  UNL1        0.0765
      5 C           2.4343    0.2541   30.5294 C.ar    1  UNL1        0.0664
      6 BR          2.5620   -0.6024   29.3044 Br      1  UNL1       -0.0461
      7 C           3.1270   -0.1444   31.7986 C.ar    1  UNL1        0.0816
      8 N           2.9993    0.7119   33.0235 N.ar    1  UNL1       -0.3357
      9 C           2.1789    1.9669   32.9790 C.ar    1  UNL1        0.1613
     10 N           1.8724    3.0031   34.0194 N.ar    1  UNL1       -0.2081
     11 H           3.4540    0.4504   33.8566 H       1  UNL1        0.1675
     12 C          -0.9157    6.3109   32.0257 C.3     1  UNL1        0.0541
     13 C          -0.4332    6.3039   33.4459 C.ar    1  UNL1        0.0830
     14 N          -0.7421    7.3385   34.4871 N.ar    1  UNL1       -0.1738
     15 N          -0.0571    6.9351   35.7591 N.ar    1  UNL1       -0.2531
     16 C          -0.0972    7.6842   37.0580 C.3     1  UNL1        0.1533
     17 C           0.6753    5.6511   35.5040 C.ar    1  UNL1        0.0601
     18 C           1.4960    4.8907   36.5032 C.3     1  UNL1        0.0518
     19 C           0.4428    5.2610   34.0745 C.ar    1  UNL1        0.0642
     20 N           0.9211    1.9076   29.2154 N.pl3   1  UNL1       -0.3030
     21 C           1.4768    3.0185   28.3746 C.3     1  UNL1        0.1082
     22 C           0.7840    3.4169   27.1052 C.3     1  UNL1        0.0941
     23 N          -0.4645    2.7044   26.6767 N.3     1  UNL1       -0.2659
     24 C          -1.0202    1.5934   27.5174 C.3     1  UNL1        0.0941
     25 C          -0.3274    1.1950   28.7868 C.3     1  UNL1        0.1082
     26 C          -1.1573    3.1028   25.4073 C.3     1  UNL1        0.1008
     27 C          -2.5904    3.5447   25.4419 C.ar    1  UNL1        0.0130
     28 C          -3.1620    4.1387   26.6950 C.ar    1  UNL1        0.0002
     29 C          -4.5950    4.5806   26.7296 C.ar    1  UNL1        0.0204
     30 C          -5.4564    4.4284   25.5110 C.ar    1  UNL1        0.0989
     31 N          -4.8847    3.8344   24.2579 N.ar    1  UNL1       -0.2426
     32 C          -3.4517    3.3925   24.2233 C.ar    1  UNL1        0.0959
@<TRIPOS>BOND
     1    12    13    1
     2    13    14   ar
     3    14    15   ar
     4    15    16    1
     5    15    17   ar
     6    17    18    1
     7    17    19   ar
     8    19     1    1
     9     1     2   ar
    10     2     3   ar
    11     3     4   ar
    12     4    20    1
    13    20    21    1
    14    21    22    1
    15    22    23    1
    16    23    26    1
    17    26    27    1
    18    27    28   ar
    19    28    29   ar
    20    29    30   ar
    21    30    31   ar
    22    31    32   ar
    23    23    24    1
    24    24    25    1
    25     4     5   ar
    26     5     6    1
    27     5     7   ar
    28     7     8   ar
    29     8     9   ar
    30     9    10   ar
    31    19    13   ar
    32    10     1   ar
    33     9     3    1
    34    25    20    1
    35    32    27   ar
    36     8    11    1
