@<TRIPOS>MOLECULE
*****
 31 34 0 0 0
SMALL
GASTEIGER

@<TRIPOS>ATOM
      1 N           6.4762   -2.4791   28.0136 N.am    1  UNL1       -0.2534
      2 C           5.1927   -1.9857   27.4144 C.2     1  UNL1        0.3087
      3 O           4.0005   -1.7418   28.2915 O.2     1  UNL1       -0.2522
      4 N           5.1013   -1.7362   25.9381 N.am    1  UNL1       -0.2639
      5 C           6.2039   -1.9339   24.9406 C.3     1  UNL1        0.0950
      6 C           5.6752   -1.5650   23.5862 C.3     1  UNL1        0.0219
      7 C           6.0299   -1.4593   22.1326 C.3     1  UNL1        0.0061
      8 C           4.8198   -0.9682   21.3946 C.3     1  UNL1        0.0224
      9 C           3.7171   -0.7705   22.3922 C.3     1  UNL1        0.0061
     10 C           4.2458   -1.1394   23.7466 C.3     1  UNL1        0.0219
     11 C           3.8911   -1.2452   25.2002 C.3     1  UNL1        0.0950
     12 H           7.2587   -2.6392   27.4379 H       1  UNL1        0.1578
     13 C           6.7248   -4.1284   30.0056 C.ar    1  UNL1        0.0458
     14 C           6.8163   -4.3778   31.4819 C.ar    1  UNL1        0.0055
     15 C           6.7507   -3.2276   32.4423 C.ar    1  UNL1        0.0208
     16 C           6.5937   -1.8278   31.9266 C.ar    1  UNL1        0.1003
     17 N           6.5022   -1.5784   30.4504 N.ar    1  UNL1       -0.2289
     18 C           6.5677   -2.7287   29.4899 C.ar    1  UNL1        0.1363
     19 O           5.7780   -5.3952   27.9443 O.co2   1  UNL1       -0.5445
     20 C           6.7903   -5.2787   29.0451 C.2     1  UNL1        0.0756
     21 O           7.8682   -6.3124   29.1854 O.co2   1  UNL1       -0.5445
     22 C           4.7284   -0.7187   19.9184 C.ar    1  UNL1       -0.0186
     23 C           5.0272    0.6443   19.3682 C.ar    1  UNL1       -0.0043
     24 C           4.9357    0.8939   17.8919 C.ar    1  UNL1       -0.0003
     25 C           4.5455   -0.2196   16.9658 C.ar    1  UNL1       -0.0001
     26 C           4.2466   -1.5828   17.5161 C.ar    1  UNL1        0.0035
     27 C           4.3381   -1.8323   18.9922 C.ar    1  UNL1        0.0675
     28 C           4.0393   -3.1954   19.5424 C.3     1  UNL1        0.4183
     29 F           3.7405   -4.5584   20.0926 F       1  UNL1       -0.1659
     30 F           2.5948   -2.8190   19.6905 F       1  UNL1       -0.1659
     31 F           5.4837   -3.5718   19.3944 F       1  UNL1       -0.1659
@<TRIPOS>UNITY_ATOM_ATTR
19 1
charge -1
@<TRIPOS>BOND
     1    19    20   ar
     2    20    21   ar
     3    20    13    1
     4    13    14   ar
     5    14    15   ar
     6    15    16   ar
     7    16    17   ar
     8    17    18   ar
     9    18     1    1
    10     1     2   am
    11     2     3    2
    12     2     4   am
    13     4     5    1
    14     6     5    1
    15     6     7    1
    16     7     8    1
    17     8    22    1
    18    22    23   ar
    19    23    24   ar
    20    24    25   ar
    21    25    26   ar
    22    26    27   ar
    23    27    28    1
    24    28    29    1
    25    28    30    1
    26    28    31    1
    27     8     9    1
    28    10     9    1
    29    10    11    1
    30    18    13   ar
    31    11     4    1
    32    10     6    1
    33    27    22   ar
    34     1    12    1
@<TRIPOS>MOLECULE
*****
 31 34 0 0 0
SMALL
GASTEIGER

@<TRIPOS>ATOM
      1 N          -2.9364    2.6080   20.5720 N.am    1  UNL1       -0.2534
      2 C          -1.7199    3.3236   20.0642 C.2     1  UNL1        0.3087
      3 O          -1.8239    4.7490   19.6085 O.2     1  UNL1       -0.2522
      4 N          -0.3994    2.6140   20.0121 N.am    1  UNL1       -0.2639
      5 C          -0.1429    1.1969   20.4314 C.3     1  UNL1        0.0950
      6 C           1.3114    0.9040   20.2099 C.3     1  UNL1        0.0219
      7 C           2.3688   -0.1529   20.3322 C.3     1  UNL1        0.0061
      8 C           3.6647    0.4300   19.8515 C.3     1  UNL1        0.0224
      9 C           3.4081    1.8472   19.4321 C.3     1  UNL1        0.0061
     10 C           1.9538    2.1401   19.6536 C.3     1  UNL1        0.0219
     11 C           0.8964    3.1970   19.5314 C.3     1  UNL1        0.0950
     12 H          -2.8682    1.6725   20.8711 H       1  UNL1        0.1578
     13 C          -4.7619    3.8677   21.9251 C.ar    1  UNL1        0.0458
     14 C          -6.0824    4.5773   21.9772 C.ar    1  UNL1        0.0055
     15 C          -6.8980    4.7366   20.7284 C.ar    1  UNL1        0.0208
     16 C          -6.3931    4.1864   19.4276 C.ar    1  UNL1        0.1003
     17 N          -5.0726    3.4769   19.3755 N.ar    1  UNL1       -0.2289
     18 C          -4.2570    3.3176   20.6242 C.ar    1  UNL1        0.1363
     19 O          -4.5488    3.0616   24.3857 O.co2   1  UNL1       -0.5445
     20 C          -3.9463    3.7084   23.1739 C.2     1  UNL1        0.0756
     21 O          -2.5282    4.1959   23.2107 O.co2   1  UNL1       -0.5445
     22 C           4.9851   -0.2796   19.7993 C.ar    1  UNL1       -0.0186
     23 C           5.8968   -0.2559   20.9902 C.ar    1  UNL1       -0.0043
     24 C           7.2174   -0.9655   20.9381 C.ar    1  UNL1       -0.0003
     25 C           7.6262   -1.6988   19.6950 C.ar    1  UNL1       -0.0001
     26 C           6.7144   -1.7225   18.5041 C.ar    1  UNL1        0.0035
     27 C           5.3939   -1.0129   18.5563 C.ar    1  UNL1        0.0675
     28 C           4.4822   -1.0366   17.3654 C.3     1  UNL1        0.4183
     29 F           3.5705   -1.0602   16.1746 F       1  UNL1       -0.1659
     30 F           3.7641   -2.2221   17.9388 F       1  UNL1       -0.1659
     31 F           5.2003    0.1490   16.7920 F       1  UNL1       -0.1659
@<TRIPOS>UNITY_ATOM_ATTR
19 1
charge -1
@<TRIPOS>BOND
     1    19    20   ar
     2    20    21   ar
     3    20    13    1
     4    13    14   ar
     5    14    15   ar
     6    15    16   ar
     7    16    17   ar
     8    17    18   ar
     9    18     1    1
    10     1     2   am
    11     2     3    2
    12     2     4   am
    13     4     5    1
    14     6     5    1
    15     6     7    1
    16     7     8    1
    17     8    22    1
    18    22    23   ar
    19    23    24   ar
    20    24    25   ar
    21    25    26   ar
    22    26    27   ar
    23    27    28    1
    24    28    29    1
    25    28    30    1
    26    28    31    1
    27     8     9    1
    28    10     9    1
    29    10    11    1
    30    18    13   ar
    31    11     4    1
    32    10     6    1
    33    27    22   ar
    34     1    12    1
@<TRIPOS>MOLECULE
*****
 31 34 0 0 0
SMALL
GASTEIGER

@<TRIPOS>ATOM
      1 N          -2.6803    2.5053   20.5002 N.am    1  UNL1       -0.2534
      2 C          -1.3366    2.9644   20.9835 C.2     1  UNL1        0.3087
      3 O          -1.1753    4.3426   21.5533 O.2     1  UNL1       -0.2522
      4 N          -0.1542    2.0455   20.8971 N.am    1  UNL1       -0.2639
      5 C          -0.1622    0.6471   20.3544 C.3     1  UNL1        0.0950
      6 C           1.2309    0.1010   20.4600 C.3     1  UNL1        0.0219
      7 C           2.0869   -1.1008   20.1899 C.3     1  UNL1        0.0061
      8 C           3.4849   -0.7827   20.6310 C.3     1  UNL1        0.0224
      9 C           3.4929    0.6157   21.1737 C.3     1  UNL1        0.0061
     10 C           2.0998    1.1618   21.0680 C.3     1  UNL1        0.0219
     11 C           1.2438    2.3636   21.3381 C.3     1  UNL1        0.0950
     12 H          -2.7861    1.6007   20.1263 H       1  UNL1        0.1578
     13 C          -4.3516    4.1348   19.3595 C.ar    1  UNL1        0.0458
     14 C          -5.5340    5.0537   19.4461 C.ar    1  UNL1        0.0055
     15 C          -6.2276    5.2619   20.7597 C.ar    1  UNL1        0.0208
     16 C          -5.7387    4.5512   21.9869 C.ar    1  UNL1        0.1003
     17 N          -4.5562    3.6323   21.9003 N.ar    1  UNL1       -0.2289
     18 C          -3.8627    3.4242   20.5867 C.ar    1  UNL1        0.1363
     19 O          -4.3911    3.2877   16.9037 O.co2   1  UNL1       -0.5445
     20 C          -3.6581    3.9266   18.0459 C.2     1  UNL1        0.0756
     21 O          -2.2315    4.3573   17.8744 O.co2   1  UNL1       -0.5445
     22 C           4.6673   -1.7016   20.5445 C.ar    1  UNL1       -0.0186
     23 C           5.0262   -2.5737   21.7109 C.ar    1  UNL1       -0.0043
     24 C           6.2087   -3.4927   21.6245 C.ar    1  UNL1       -0.0003
     25 C           7.0321   -3.5395   20.3716 C.ar    1  UNL1       -0.0001
     26 C           6.6731   -2.6673   19.2051 C.ar    1  UNL1        0.0035
     27 C           5.4908   -1.7484   19.2916 C.ar    1  UNL1        0.0675
     28 C           5.1318   -0.8763   18.1252 C.3     1  UNL1        0.4183
     29 F           4.7728   -0.0042   16.9588 F       1  UNL1       -0.1659
     30 F           4.2309   -1.9532   17.5972 F       1  UNL1       -0.1659
     31 F           6.0327    0.2006   18.6531 F       1  UNL1       -0.1659
@<TRIPOS>UNITY_ATOM_ATTR
19 1
charge -1
@<TRIPOS>BOND
     1    19    20   ar
     2    20    21   ar
     3    20    13    1
     4    13    14   ar
     5    14    15   ar
     6    15    16   ar
     7    16    17   ar
     8    17    18   ar
     9    18     1    1
    10     1     2   am
    11     2     3    2
    12     2     4   am
    13     4     5    1
    14     6     5    1
    15     6     7    1
    16     7     8    1
    17     8    22    1
    18    22    23   ar
    19    23    24   ar
    20    24    25   ar
    21    25    26   ar
    22    26    27   ar
    23    27    28    1
    24    28    29    1
    25    28    30    1
    26    28    31    1
    27     8     9    1
    28    10     9    1
    29    10    11    1
    30    18    13   ar
    31    11     4    1
    32    10     6    1
    33    27    22   ar
    34     1    12    1
@<TRIPOS>MOLECULE
*****
 31 34 0 0 0
SMALL
GASTEIGER

@<TRIPOS>ATOM
      1 N           2.0982    1.3381   27.9085 N.am    1  UNL1       -0.2534
      2 C           3.0587    0.1950   27.7647 C.2     1  UNL1        0.3087
      3 O           3.7307   -0.3771   28.9776 O.2     1  UNL1       -0.2522
      4 N           3.3472   -0.3761   26.4079 N.am    1  UNL1       -0.2639
      5 C           2.7543    0.0894   25.1111 C.3     1  UNL1        0.0950
      6 C           3.3200   -0.7597   24.0116 C.3     1  UNL1        0.0219
      7 C           3.3031   -0.9968   22.5306 C.3     1  UNL1        0.0061
      8 C           4.2353   -2.1336   22.2324 C.3     1  UNL1        0.0224
      9 C           4.8282   -2.5991   23.5293 C.3     1  UNL1        0.0061
     10 C           4.2625   -1.7500   24.6288 C.3     1  UNL1        0.0219
     11 C           4.2794   -1.5129   26.1099 C.3     1  UNL1        0.0950
     12 H           1.6571    1.7135   27.1124 H       1  UNL1        0.1578
     13 C           0.4629    1.7057   29.8936 C.ar    1  UNL1        0.0458
     14 C           0.1744    2.2769   31.2503 C.ar    1  UNL1        0.0055
     15 C           1.2326    3.0514   31.9785 C.ar    1  UNL1        0.0208
     16 C           2.5793    3.2548   31.3501 C.ar    1  UNL1        0.1003
     17 N           2.8678    2.6837   29.9934 N.ar    1  UNL1       -0.2289
     18 C           1.8096    1.9092   29.2652 C.ar    1  UNL1        0.1363
     19 O          -0.9505    1.2916   27.7533 O.co2   1  UNL1       -0.5445
     20 C          -0.5953    0.9312   29.1654 C.2     1  UNL1        0.0756
     21 O          -1.2984   -0.2037   29.8493 O.co2   1  UNL1       -0.5445
     22 C           4.5238   -2.7046   20.8758 C.ar    1  UNL1       -0.0186
     23 C           3.9141   -4.0129   20.4675 C.ar    1  UNL1       -0.0043
     24 C           4.2026   -4.5840   19.1108 C.ar    1  UNL1       -0.0003
     25 C           5.1009   -3.8468   18.1624 C.ar    1  UNL1       -0.0001
     26 C           5.7106   -2.5384   18.5706 C.ar    1  UNL1        0.0035
     27 C           5.4221   -1.9674   19.9272 C.ar    1  UNL1        0.0675
     28 C           6.0318   -0.6592   20.3355 C.3     1  UNL1        0.4183
     29 F           6.6415    0.6491   20.7438 F       1  UNL1       -0.1659
     30 F           4.8704    0.0713   19.7293 F       1  UNL1       -0.1659
     31 F           7.1933   -1.3896   20.9417 F       1  UNL1       -0.1659
@<TRIPOS>UNITY_ATOM_ATTR
19 1
charge -1
@<TRIPOS>BOND
     1    19    20   ar
     2    20    21   ar
     3    20    13    1
     4    13    14   ar
     5    14    15   ar
     6    15    16   ar
     7    16    17   ar
     8    17    18   ar
     9    18     1    1
    10     1     2   am
    11     2     3    2
    12     2     4   am
    13     4     5    1
    14     6     5    1
    15     6     7    1
    16     7     8    1
    17     8    22    1
    18    22    23   ar
    19    23    24   ar
    20    24    25   ar
    21    25    26   ar
    22    26    27   ar
    23    27    28    1
    24    28    29    1
    25    28    30    1
    26    28    31    1
    27     8     9    1
    28    10     9    1
    29    10    11    1
    30    18    13   ar
    31    11     4    1
    32    10     6    1
    33    27    22   ar
    34     1    12    1
@<TRIPOS>MOLECULE
*****
 31 34 0 0 0
SMALL
GASTEIGER

@<TRIPOS>ATOM
      1 N           6.1400   -3.5462   27.5232 N.am    1  UNL1       -0.2534
      2 C           7.0787   -3.7418   26.3697 C.2     1  UNL1        0.3087
      3 O           8.3775   -4.4637   26.5739 O.2     1  UNL1       -0.2522
      4 N           6.7185   -3.2154   25.0121 N.am    1  UNL1       -0.2639
      5 C           5.4616   -2.4775   24.6575 C.3     1  UNL1        0.0950
      6 C           5.5183   -2.1406   23.1969 C.3     1  UNL1        0.0219
      7 C           4.7766   -1.4763   22.0751 C.3     1  UNL1        0.0061
      8 C           5.6100   -1.5955   20.8336 C.3     1  UNL1        0.0224
      9 C           6.8669   -2.3335   21.1882 C.3     1  UNL1        0.0061
     10 C           6.8102   -2.6704   22.6488 C.3     1  UNL1        0.0219
     11 C           7.5519   -3.3346   23.7706 C.3     1  UNL1        0.0950
     12 H           5.2875   -3.0723   27.3892 H       1  UNL1        0.1578
     13 C           6.4146   -3.1754   30.0800 C.ar    1  UNL1        0.0458
     14 C           6.7747   -3.7018   31.4377 C.ar    1  UNL1        0.0055
     15 C           7.2203   -5.1253   31.5962 C.ar    1  UNL1        0.0208
     16 C           7.3058   -6.0224   30.3971 C.ar    1  UNL1        0.1003
     17 N           6.9457   -5.4960   29.0395 N.ar    1  UNL1       -0.2289
     18 C           6.5001   -4.0725   28.8809 C.ar    1  UNL1        0.1363
     19 O           4.8673   -1.2104   30.7837 O.co2   1  UNL1       -0.5445
     20 C           5.9689   -1.7519   29.9215 C.2     1  UNL1        0.0756
     21 O           6.6249   -0.8699   28.9008 O.co2   1  UNL1       -0.5445
     22 C           5.2498   -1.0692   19.4760 C.ar    1  UNL1       -0.0186
     23 C           5.7651    0.2666   19.0285 C.ar    1  UNL1       -0.0043
     24 C           5.4050    0.7930   17.6708 C.ar    1  UNL1       -0.0003
     25 C           4.5295   -0.0165   16.7606 C.ar    1  UNL1       -0.0001
     26 C           4.0142   -1.3523   17.2082 C.ar    1  UNL1        0.0035
     27 C           4.3744   -1.8786   18.5657 C.ar    1  UNL1        0.0675
     28 C           3.8591   -3.2143   19.0132 C.3     1  UNL1        0.4183
     29 F           3.3438   -4.5501   19.4607 F       1  UNL1       -0.1659
     30 F           2.6806   -2.5446   19.6555 F       1  UNL1       -0.1659
     31 F           5.0376   -3.8841   18.3710 F       1  UNL1       -0.1659
@<TRIPOS>UNITY_ATOM_ATTR
19 1
charge -1
@<TRIPOS>BOND
     1    19    20   ar
     2    20    21   ar
     3    20    13    1
     4    13    14   ar
     5    14    15   ar
     6    15    16   ar
     7    16    17   ar
     8    17    18   ar
     9    18     1    1
    10     1     2   am
    11     2     3    2
    12     2     4   am
    13     4     5    1
    14     6     5    1
    15     6     7    1
    16     7     8    1
    17     8    22    1
    18    22    23   ar
    19    23    24   ar
    20    24    25   ar
    21    25    26   ar
    22    26    27   ar
    23    27    28    1
    24    28    29    1
    25    28    30    1
    26    28    31    1
    27     8     9    1
    28    10     9    1
    29    10    11    1
    30    18    13   ar
    31    11     4    1
    32    10     6    1
    33    27    22   ar
    34     1    12    1
@<TRIPOS>MOLECULE
*****
 31 34 0 0 0
SMALL
GASTEIGER

@<TRIPOS>ATOM
      1 N           7.2793   -4.9958   26.8993 N.am    1  UNL1       -0.2534
      2 C           8.0617   -4.1835   25.9104 C.2     1  UNL1        0.3087
      3 O           9.5360   -3.9847   26.1026 O.2     1  UNL1       -0.2522
      4 N           7.3698   -3.5700   24.7294 N.am    1  UNL1       -0.2639
      5 C           5.9091   -3.6816   24.4073 C.3     1  UNL1        0.0950
      6 C           5.6537   -2.9177   23.1419 C.3     1  UNL1        0.0219
      7 C           4.5931   -2.5146   22.1608 C.3     1  UNL1        0.0061
      8 C           5.2405   -1.6817   21.0944 C.3     1  UNL1        0.0224
      9 C           6.7013   -1.5700   21.4165 C.3     1  UNL1        0.0061
     10 C           6.9566   -2.3339   22.6819 C.3     1  UNL1        0.0219
     11 C           8.0173   -2.7370   23.6630 C.3     1  UNL1        0.0950
     12 H           6.3117   -5.1263   26.7732 H       1  UNL1        0.1578
     13 C           8.4300   -7.0363   28.0229 C.ar    1  UNL1        0.0458
     14 C           9.1218   -7.6498   29.2040 C.ar    1  UNL1        0.0055
     15 C           9.3547   -6.8363   30.4426 C.ar    1  UNL1        0.0208
     16 C           8.8958   -5.4095   30.5001 C.ar    1  UNL1        0.1003
     17 N           8.2040   -4.7960   29.3190 N.ar    1  UNL1       -0.2289
     18 C           7.9711   -5.6094   28.0804 C.ar    1  UNL1        0.1363
     19 O           7.4271   -9.1345   26.8645 O.co2   1  UNL1       -0.5445
     20 C           8.1971   -7.8497   26.7843 C.2     1  UNL1        0.0756
     21 O           8.7343   -7.3784   25.4655 O.co2   1  UNL1       -0.5445
     22 C           4.5486   -1.0682   19.9134 C.ar    1  UNL1       -0.0186
     23 C           4.1604    0.3804   19.9408 C.ar    1  UNL1       -0.0043
     24 C           3.4685    0.9940   18.7598 C.ar    1  UNL1       -0.0003
     25 C           3.1649    0.1589   17.5513 C.ar    1  UNL1       -0.0001
     26 C           3.5532   -1.2898   17.5239 C.ar    1  UNL1        0.0035
     27 C           4.2450   -1.9033   18.7049 C.ar    1  UNL1        0.0675
     28 C           4.6333   -3.3519   18.6775 C.3     1  UNL1        0.4183
     29 F           5.0216   -4.8005   18.6501 F       1  UNL1       -0.1659
     30 F           5.9968   -2.9769   18.1773 F       1  UNL1       -0.1659
     31 F           3.2697   -3.7268   19.1776 F       1  UNL1       -0.1659
@<TRIPOS>UNITY_ATOM_ATTR
19 1
charge -1
@<TRIPOS>BOND
     1    19    20   ar
     2    20    21   ar
     3    20    13    1
     4    13    14   ar
     5    14    15   ar
     6    15    16   ar
     7    16    17   ar
     8    17    18   ar
     9    18     1    1
    10     1     2   am
    11     2     3    2
    12     2     4   am
    13     4     5    1
    14     6     5    1
    15     6     7    1
    16     7     8    1
    17     8    22    1
    18    22    23   ar
    19    23    24   ar
    20    24    25   ar
    21    25    26   ar
    22    26    27   ar
    23    27    28    1
    24    28    29    1
    25    28    30    1
    26    28    31    1
    27     8     9    1
    28    10     9    1
    29    10    11    1
    30    18    13   ar
    31    11     4    1
    32    10     6    1
    33    27    22   ar
    34     1    12    1
@<TRIPOS>MOLECULE
*****
 31 34 0 0 0
SMALL
GASTEIGER

@<TRIPOS>ATOM
      1 N           2.2023    1.8727   27.9045 N.am    1  UNL1       -0.2534
      2 C           2.7207    0.5692   27.3733 C.2     1  UNL1        0.3087
      3 O           3.0032   -0.5647   28.3137 O.2     1  UNL1       -0.2522
      4 N           2.9566    0.3997   25.9017 N.am    1  UNL1       -0.2639
      5 C           2.7212    1.4385   24.8455 C.3     1  UNL1        0.0950
      6 C           3.0885    0.8424   23.5190 C.3     1  UNL1        0.0219
      7 C           3.1700    1.1160   22.0464 C.3     1  UNL1        0.0061
      8 C           3.6828   -0.1222   21.3725 C.3     1  UNL1        0.0224
      9 C           3.9182   -1.1610   22.4287 C.3     1  UNL1        0.0061
     10 C           3.5509   -0.5649   23.7553 C.3     1  UNL1        0.0219
     11 C           3.4694   -0.8385   25.2278 C.3     1  UNL1        0.0950
     12 H           2.0168    2.6169   27.2872 H       1  UNL1        0.1578
     13 C           0.6596    1.6202   29.9797 C.ar    1  UNL1        0.0458
     14 C           0.4238    1.7899   31.4513 C.ar    1  UNL1        0.0055
     15 C           1.4945    2.3816   32.3192 C.ar    1  UNL1        0.0208
     16 C           2.8012    2.8036   31.7156 C.ar    1  UNL1        0.1003
     17 N           3.0371    2.6340   30.2440 N.ar    1  UNL1       -0.2289
     18 C           1.9663    2.0423   29.3761 C.ar    1  UNL1        0.1363
     19 O          -0.8754    1.7618   27.8883 O.co2   1  UNL1       -0.5445
     20 C          -0.4112    1.0285   29.1118 C.2     1  UNL1        0.0756
     21 O          -1.0178   -0.2965   29.4673 O.co2   1  UNL1       -0.5445
     22 C           3.9187   -0.2917   19.9010 C.ar    1  UNL1       -0.0186
     23 C           5.3075   -0.5293   19.3866 C.ar    1  UNL1       -0.0043
     24 C           5.5435   -0.6989   17.9149 C.ar    1  UNL1       -0.0003
     25 C           4.3906   -0.6308   16.9578 C.ar    1  UNL1       -0.0001
     26 C           3.0017   -0.3932   17.4723 C.ar    1  UNL1        0.0035
     27 C           2.7657   -0.2236   18.9438 C.ar    1  UNL1        0.0675
     28 C           1.3769    0.0140   19.4582 C.3     1  UNL1        0.4183
     29 F          -0.0119    0.2517   19.9727 F       1  UNL1       -0.1659
     30 F           1.3030   -1.4120   19.9174 F       1  UNL1       -0.1659
     31 F           1.4509    1.4401   18.9991 F       1  UNL1       -0.1659
@<TRIPOS>UNITY_ATOM_ATTR
19 1
charge -1
@<TRIPOS>BOND
     1    19    20   ar
     2    20    21   ar
     3    20    13    1
     4    13    14   ar
     5    14    15   ar
     6    15    16   ar
     7    16    17   ar
     8    17    18   ar
     9    18     1    1
    10     1     2   am
    11     2     3    2
    12     2     4   am
    13     4     5    1
    14     6     5    1
    15     6     7    1
    16     7     8    1
    17     8    22    1
    18    22    23   ar
    19    23    24   ar
    20    24    25   ar
    21    25    26   ar
    22    26    27   ar
    23    27    28    1
    24    28    29    1
    25    28    30    1
    26    28    31    1
    27     8     9    1
    28    10     9    1
    29    10    11    1
    30    18    13   ar
    31    11     4    1
    32    10     6    1
    33    27    22   ar
    34     1    12    1
@<TRIPOS>MOLECULE
*****
 31 34 0 0 0
SMALL
GASTEIGER

@<TRIPOS>ATOM
      1 N           2.3668    1.7539   27.7492 N.am    1  UNL1       -0.2534
      2 C           1.7108    1.8765   26.4058 C.2     1  UNL1        0.3087
      3 O           0.5992    2.8626   26.2012 O.2     1  UNL1       -0.2522
      4 N           2.1664    1.0129   25.2671 N.am    1  UNL1       -0.2639
      5 C           3.2599   -0.0125   25.3209 C.3     1  UNL1        0.0950
      6 C           3.3778   -0.6360   23.9617 C.3     1  UNL1        0.0219
      7 C           4.1265   -1.6551   23.1549 C.3     1  UNL1        0.0061
      8 C           3.5687   -1.6449   21.7625 C.3     1  UNL1        0.0224
      9 C           2.4752   -0.6194   21.7088 C.3     1  UNL1        0.0061
     10 C           2.3573    0.0041   23.0679 C.3     1  UNL1        0.0219
     11 C           1.6086    1.0232   23.8747 C.3     1  UNL1        0.0950
     12 H           3.0964    1.1067   27.8835 H       1  UNL1        0.1578
     13 C           0.9531    2.0729   29.9055 C.ar    1  UNL1        0.0458
     14 C           0.4976    2.9365   31.0443 C.ar    1  UNL1        0.0055
     15 C           1.0002    4.3446   31.1654 C.ar    1  UNL1        0.0208
     16 C           1.9583    4.8891   30.1479 C.ar    1  UNL1        0.1003
     17 N           2.4138    4.0255   29.0091 N.ar    1  UNL1       -0.2289
     18 C           1.9112    2.6175   28.8880 C.ar    1  UNL1        0.1363
     19 O           1.4218   -0.4776   29.7466 O.co2   1  UNL1       -0.5445
     20 C           0.4505    0.6648   29.7844 C.2     1  UNL1        0.0756
     21 O          -1.0234    0.3991   29.7011 O.co2   1  UNL1       -0.5445
     22 C           4.0243   -2.5084   20.6238 C.ar    1  UNL1       -0.0186
     23 C           3.7230   -3.9778   20.6296 C.ar    1  UNL1       -0.0043
     24 C           4.1786   -4.8414   19.4909 C.ar    1  UNL1       -0.0003
     25 C           4.9355   -4.2355   18.3463 C.ar    1  UNL1       -0.0001
     26 C           5.2368   -2.7660   18.3405 C.ar    1  UNL1        0.0035
     27 C           4.7812   -1.9025   19.4792 C.ar    1  UNL1        0.0675
     28 C           5.0825   -0.4331   19.4734 C.3     1  UNL1        0.4183
     29 F           5.3838    1.0363   19.4676 F       1  UNL1       -0.1659
     30 F           3.8373   -0.1809   18.6760 F       1  UNL1       -0.1659
     31 F           6.3277   -0.6853   20.2708 F       1  UNL1       -0.1659
@<TRIPOS>UNITY_ATOM_ATTR
19 1
charge -1
@<TRIPOS>BOND
     1    19    20   ar
     2    20    21   ar
     3    20    13    1
     4    13    14   ar
     5    14    15   ar
     6    15    16   ar
     7    16    17   ar
     8    17    18   ar
     9    18     1    1
    10     1     2   am
    11     2     3    2
    12     2     4   am
    13     4     5    1
    14     6     5    1
    15     6     7    1
    16     7     8    1
    17     8    22    1
    18    22    23   ar
    19    23    24   ar
    20    24    25   ar
    21    25    26   ar
    22    26    27   ar
    23    27    28    1
    24    28    29    1
    25    28    30    1
    26    28    31    1
    27     8     9    1
    28    10     9    1
    29    10    11    1
    30    18    13   ar
    31    11     4    1
    32    10     6    1
    33    27    22   ar
    34     1    12    1
@<TRIPOS>MOLECULE
*****
 31 34 0 0 0
SMALL
GASTEIGER

@<TRIPOS>ATOM
      1 N           6.5946   -4.7098   30.5782 N.am    1  UNL1       -0.2534
      2 C           6.9633   -3.2568   30.6315 C.2     1  UNL1        0.3087
      3 O           7.9331   -2.6922   29.6362 O.2     1  UNL1       -0.2522
      4 N           6.3622   -2.3685   31.6801 N.am    1  UNL1       -0.2639
      5 C           5.3837   -2.7888   32.7364 C.3     1  UNL1        0.0950
      6 C           5.0509   -1.5839   33.5656 C.3     1  UNL1        0.0219
      7 C           4.2404   -1.0990   34.7310 C.3     1  UNL1        0.0061
      8 C           4.5123    0.3656   34.9073 C.3     1  UNL1        0.0224
      9 C           5.4909    0.7858   33.8509 C.3     1  UNL1        0.0061
     10 C           5.8237   -0.4190   33.0217 C.3     1  UNL1        0.0219
     11 C           6.6341   -0.9039   31.8564 C.3     1  UNL1        0.0950
     12 H           5.9581   -5.0804   31.2314 H       1  UNL1        0.1578
     13 C           8.4174   -6.4096   29.8444 C.ar    1  UNL1        0.0458
     14 C           9.0183   -7.2979   28.7957 C.ar    1  UNL1        0.0055
     15 C           8.3976   -7.3750   27.4324 C.ar    1  UNL1        0.0208
     16 C           7.1759   -6.5636   27.1176 C.ar    1  UNL1        0.1003
     17 N           6.5749   -5.6753   28.1662 N.ar    1  UNL1       -0.2289
     18 C           7.1957   -5.5983   29.5296 C.ar    1  UNL1        0.1363
     19 O           9.5360   -5.0183   31.7320 O.co2   1  UNL1       -0.5445
     20 C           9.0381   -6.3326   31.2077 C.2     1  UNL1        0.0756
     21 O           9.1610   -7.5698   32.0468 O.co2   1  UNL1       -0.5445
     22 C           3.9113    1.2539   35.9559 C.ar    1  UNL1       -0.0186
     23 C           4.1216    0.9473   37.4091 C.ar    1  UNL1       -0.0043
     24 C           3.5205    1.8357   38.4577 C.ar    1  UNL1       -0.0003
     25 C           2.7091    3.0306   38.0531 C.ar    1  UNL1       -0.0001
     26 C           2.4987    3.3372   36.5998 C.ar    1  UNL1        0.0035
     27 C           3.0998    2.4489   35.5513 C.ar    1  UNL1        0.0675
     28 C           2.8894    2.7554   34.0981 C.3     1  UNL1        0.4183
     29 F           2.6791    3.0620   32.6449 F       1  UNL1       -0.1659
     30 F           4.0271    3.7321   34.1395 F       1  UNL1       -0.1659
     31 F           1.7517    1.7787   34.0568 F       1  UNL1       -0.1659
@<TRIPOS>UNITY_ATOM_ATTR
19 1
charge -1
@<TRIPOS>BOND
     1    19    20   ar
     2    20    21   ar
     3    20    13    1
     4    13    14   ar
     5    14    15   ar
     6    15    16   ar
     7    16    17   ar
     8    17    18   ar
     9    18     1    1
    10     1     2   am
    11     2     3    2
    12     2     4   am
    13     4     5    1
    14     6     5    1
    15     6     7    1
    16     7     8    1
    17     8    22    1
    18    22    23   ar
    19    23    24   ar
    20    24    25   ar
    21    25    26   ar
    22    26    27   ar
    23    27    28    1
    24    28    29    1
    25    28    30    1
    26    28    31    1
    27     8     9    1
    28    10     9    1
    29    10    11    1
    30    18    13   ar
    31    11     4    1
    32    10     6    1
    33    27    22   ar
    34     1    12    1
