@<TRIPOS>MOLECULE
*****
 43 46 0 0 0
SMALL
GASTEIGER

@<TRIPOS>ATOM
      1 C           3.1478   -0.0451   26.6197 C.3     1  UNL1        0.1035
      2 C           2.7921   -0.9229   27.7829 C.3     1  UNL1        0.0933
      3 N           3.7200   -0.1362   28.6604 N.3     1  UNL1       -0.2711
      4 C           4.0757    0.7417   27.4972 C.3     1  UNL1        0.0933
      5 C           4.1247   -0.2006   30.1033 C.3     1  UNL1        0.0578
      6 C           5.2732   -1.0698   30.5221 C.3     1  UNL1        0.0187
      7 C           5.6778   -1.1341   31.9651 C.3     1  UNL1        0.0326
      8 C           4.9339   -0.3293   32.9892 C.3     1  UNL1        0.1085
      9 O           5.9462   -0.9999   33.8699 O.3     1  UNL1       -0.3826
     10 C           3.7854    0.5399   32.5704 C.3     1  UNL1        0.0326
     11 C           3.3808    0.6043   31.1275 C.3     1  UNL1        0.0187
     12 H           6.5160   -1.5706   33.3310 H       1  UNL1        0.2107
     13 C           4.5416    0.2427   34.3193 C.ar    1  UNL1        0.0211
     14 C           5.1233   -0.3241   35.5804 C.ar    1  UNL1        0.0043
     15 C           4.7310    0.2479   36.9104 C.ar    1  UNL1        0.0575
     16 C           3.7569    1.3866   36.9793 C.ar    1  UNL1        0.2251
     17 N           3.1753    1.9533   35.7182 N.ar    1  UNL1       -0.2104
     18 C           3.5676    1.3814   34.3881 C.ar    1  UNL1        0.1000
     19 O           3.3647    1.9585   38.3093 O.3     1  UNL1       -0.4509
     20 C           1.9301    1.9257   38.7462 C.3     1  UNL1        0.3095
     21 C           1.3524    0.6707   39.3304 C.3     1  UNL1        0.4381
     22 F           0.7746   -0.5842   39.9145 F       1  UNL1       -0.1663
     23 F           2.7364    0.1606   39.6034 F       1  UNL1       -0.1663
     24 F          -0.0315    1.1807   39.0574 F       1  UNL1       -0.1663
     25 O           0.8372    1.6768   25.7851 O.2     1  UNL1       -0.2733
     26 C           1.5878    0.8802   24.7595 C.2     1  UNL1        0.2426
     27 N           2.7431    0.0193   25.1767 N.am    1  UNL1       -0.3018
     28 H           3.2357   -0.5036   24.5036 H       1  UNL1        0.1495
     29 C           1.1832    0.9445   23.3166 C.3     1  UNL1        0.1759
     30 N           2.1088    0.4296   22.2544 N.am    1  UNL1       -0.2931
     31 C           1.5541   -0.0629   20.9506 C.2     1  UNL1        0.2462
     32 O           0.0739   -0.0405   20.7090 O.2     1  UNL1       -0.2701
     33 H           3.0803    0.4148   22.4129 H       1  UNL1        0.1502
     34 C           2.4797   -0.5778   19.8884 C.ar    1  UNL1        0.0533
     35 C           2.9850    0.3471   18.8211 C.ar    1  UNL1        0.0045
     36 C           3.9105   -0.1679   17.7590 C.ar    1  UNL1        0.0001
     37 C           4.3308   -1.6078   17.7642 C.ar    1  UNL1        0.0039
     38 C           3.8256   -2.5327   18.8315 C.ar    1  UNL1        0.0716
     39 C           2.9001   -2.0177   19.8936 C.ar    1  UNL1        0.0084
     40 C           4.2459   -3.9726   18.8367 C.3     1  UNL1        0.4186
     41 F           4.6663   -5.4125   18.8418 F       1  UNL1       -0.1659
     42 F           5.6853   -3.5526   18.7956 F       1  UNL1       -0.1659
     43 F           2.8065   -4.3926   18.8777 F       1  UNL1       -0.1659
@<TRIPOS>BOND
     1    25    26    2
     2    26    29    1
     3    29    30    1
     4    30    31   am
     5    31    32    2
     6    31    34    1
     7    34    35   ar
     8    35    36   ar
     9    36    37   ar
    10    37    38   ar
    11    38    40    1
    12    40    41    1
    13    40    42    1
    14    40    43    1
    15    38    39   ar
    16    26    27   am
    17    27     1    1
    18     1     2    1
    19     2     3    1
    20     5     3    1
    21     5     6    1
    22     6     7    1
    23     7     8    1
    24     8     9    1
    25     8    13    1
    26    13    14   ar
    27    14    15   ar
    28    15    16   ar
    29    16    19    1
    30    19    20    1
    31    20    21    1
    32    21    22    1
    33    21    23    1
    34    21    24    1
    35    16    17   ar
    36    17    18   ar
    37     8    10    1
    38    10    11    1
    39     3     4    1
    40    39    34   ar
    41     4     1    1
    42    11     5    1
    43    18    13   ar
    44    30    33    1
    45    27    28    1
    46     9    12    1
@<TRIPOS>MOLECULE
*****
 43 46 0 0 0
SMALL
GASTEIGER

@<TRIPOS>ATOM
      1 C           7.2149   -2.9880   24.7904 C.3     1  UNL1        0.1035
      2 C           8.0729   -3.3745   25.9585 C.3     1  UNL1        0.0933
      3 N           6.9258   -3.1110   26.8884 N.3     1  UNL1       -0.2711
      4 C           6.0677   -2.7245   25.7203 C.3     1  UNL1        0.0933
      5 C           6.7213   -3.1979   28.3718 C.3     1  UNL1        0.0578
      6 C           7.0572   -4.4643   29.1022 C.3     1  UNL1        0.0187
      7 C           6.8527   -4.5512   30.5858 C.3     1  UNL1        0.0326
      8 C           6.3124   -3.3718   31.3387 C.3     1  UNL1        0.1085
      9 O           6.4809   -4.3460   32.4667 O.3     1  UNL1       -0.3826
     10 C           5.9765   -2.1054   30.6083 C.3     1  UNL1        0.0326
     11 C           6.1809   -2.0185   29.1249 C.3     1  UNL1        0.0187
     12 H           6.8336   -5.1814   32.1224 H       1  UNL1        0.2107
     13 C           5.8306   -2.5307   32.4835 C.ar    1  UNL1        0.0211
     14 C           6.7064   -1.4467   33.0384 C.ar    1  UNL1        0.0043
     15 C           6.2246   -0.6056   34.1831 C.ar    1  UNL1        0.0575
     16 C           4.8670   -0.8485   34.7729 C.ar    1  UNL1        0.2251
     17 N           3.9912   -1.9325   34.2181 N.ar    1  UNL1       -0.2104
     18 C           4.4729   -2.7736   33.0733 C.ar    1  UNL1        0.1000
     19 O           4.3852   -0.0074   35.9177 O.3     1  UNL1       -0.4509
     20 C           5.3402    0.4079   36.9972 C.3     1  UNL1        0.3095
     21 C           4.8616    1.2604   38.1348 C.3     1  UNL1        0.4381
     22 F           4.3829    2.1129   39.2724 F       1  UNL1       -0.1663
     23 F           6.2562    1.7746   38.3364 F       1  UNL1       -0.1663
     24 F           3.4670    0.7463   37.9333 F       1  UNL1       -0.1663
     25 O           7.4115   -5.4946   23.1539 O.2     1  UNL1       -0.2733
     26 C           7.5177   -4.1543   22.4887 C.2     1  UNL1        0.2426
     27 N           7.4194   -2.9011   23.3069 N.am    1  UNL1       -0.3018
     28 H           7.4891   -2.0214   22.8704 H       1  UNL1        0.1495
     29 C           7.7222   -4.0674   21.0053 C.3     1  UNL1        0.1759
     30 N           6.9398   -3.0749   20.1972 N.am    1  UNL1       -0.2931
     31 C           5.4483   -3.1982   20.0976 C.2     1  UNL1        0.2462
     32 O           4.7390   -4.3140   20.8061 O.2     1  UNL1       -0.2701
     33 H           7.4053   -2.3425   19.7322 H       1  UNL1        0.1502
     34 C           4.6659   -2.2057   19.2896 C.ar    1  UNL1        0.0533
     35 C           5.1872   -1.7424   17.9616 C.ar    1  UNL1        0.0045
     36 C           4.4048   -0.7499   17.1536 C.ar    1  UNL1        0.0001
     37 C           3.1011   -0.2209   17.6736 C.ar    1  UNL1        0.0039
     38 C           2.5797   -0.6842   19.0015 C.ar    1  UNL1        0.0716
     39 C           3.3621   -1.6766   19.8095 C.ar    1  UNL1        0.0084
     40 C           1.2760   -0.1551   19.5214 C.3     1  UNL1        0.4186
     41 F          -0.0277    0.3739   20.0414 F       1  UNL1       -0.1659
     42 F           1.0746    0.6043   18.2437 F       1  UNL1       -0.1659
     43 F           1.4774   -0.9146   20.7992 F       1  UNL1       -0.1659
@<TRIPOS>BOND
     1    25    26    2
     2    26    29    1
     3    29    30    1
     4    30    31   am
     5    31    32    2
     6    31    34    1
     7    34    35   ar
     8    35    36   ar
     9    36    37   ar
    10    37    38   ar
    11    38    40    1
    12    40    41    1
    13    40    42    1
    14    40    43    1
    15    38    39   ar
    16    26    27   am
    17    27     1    1
    18     1     2    1
    19     2     3    1
    20     5     3    1
    21     5     6    1
    22     6     7    1
    23     7     8    1
    24     8     9    1
    25     8    13    1
    26    13    14   ar
    27    14    15   ar
    28    15    16   ar
    29    16    19    1
    30    19    20    1
    31    20    21    1
    32    21    22    1
    33    21    23    1
    34    21    24    1
    35    16    17   ar
    36    17    18   ar
    37     8    10    1
    38    10    11    1
    39     3     4    1
    40    39    34   ar
    41     4     1    1
    42    11     5    1
    43    18    13   ar
    44    30    33    1
    45    27    28    1
    46     9    12    1
@<TRIPOS>MOLECULE
*****
 43 46 0 0 0
SMALL
GASTEIGER

@<TRIPOS>ATOM
      1 C           0.7857    1.5872   25.7834 C.3     1  UNL1        0.1035
      2 C          -0.1426    1.6477   26.9602 C.3     1  UNL1        0.0933
      3 N           0.8986    2.3912   27.7433 N.3     1  UNL1       -0.2711
      4 C           1.8269    2.3307   26.5665 C.3     1  UNL1        0.0933
      5 C           0.9785    2.9597   29.1290 C.3     1  UNL1        0.0578
      6 C           0.5136    4.3612   29.3927 C.3     1  UNL1        0.0187
      7 C           0.5935    4.9297   30.7786 C.3     1  UNL1        0.0326
      8 C           1.1383    4.0966   31.9007 C.3     1  UNL1        0.1085
      9 O           0.8248    5.3613   32.6436 O.3     1  UNL1       -0.3826
     10 C           1.6032    2.6950   31.6370 C.3     1  UNL1        0.0326
     11 C           1.5233    2.1266   30.2512 C.3     1  UNL1        0.0187
     12 H           0.4537    6.0138   32.0292 H       1  UNL1        0.2107
     13 C           1.5742    3.7027   33.2808 C.ar    1  UNL1        0.0211
     14 C           2.3516    2.4369   33.4892 C.ar    1  UNL1        0.0043
     15 C           2.7875    2.0430   34.8693 C.ar    1  UNL1        0.0575
     16 C           2.4460    2.9150   36.0411 C.ar    1  UNL1        0.2251
     17 N           1.6688    4.1808   35.8328 N.ar    1  UNL1       -0.2104
     18 C           1.2328    4.5748   34.4526 C.ar    1  UNL1        0.1000
     19 O           2.8820    2.5211   37.4213 O.3     1  UNL1       -0.4509
     20 C           1.8746    2.4305   38.5289 C.3     1  UNL1        0.3095
     21 C           1.4602    1.0895   39.0581 C.3     1  UNL1        0.4381
     22 F           1.0459   -0.2515   39.5873 F       1  UNL1       -0.1663
     23 F           0.0537    1.5864   39.2159 F       1  UNL1       -0.1663
     24 F           2.8666    0.5926   38.9002 F       1  UNL1       -0.1663
     25 O           0.6038    3.4226   23.4173 O.2     1  UNL1       -0.2733
     26 C           0.6148    1.9364   23.2146 C.2     1  UNL1        0.2426
     27 N           0.7057    1.0187   24.3976 N.am    1  UNL1       -0.3018
     28 H           0.7130    0.0433   24.2645 H       1  UNL1        0.1495
     29 C           0.5349    1.3678   21.8288 C.3     1  UNL1        0.1759
     30 N           1.6465    0.5068   21.3061 N.am    1  UNL1       -0.2931
     31 C           1.7022    0.1570   19.8486 C.2     1  UNL1        0.2462
     32 O           0.6463    0.6681   18.9137 O.2     1  UNL1       -0.2701
     33 H           2.3394    0.1714   21.9197 H       1  UNL1        0.1502
     34 C           2.8137   -0.7040   19.3259 C.ar    1  UNL1        0.0533
     35 C           3.9274   -0.0900   18.5305 C.ar    1  UNL1        0.0045
     36 C           5.0389   -0.9510   18.0079 C.ar    1  UNL1        0.0001
     37 C           5.0367   -2.4260   18.2805 C.ar    1  UNL1        0.0039
     38 C           3.9230   -3.0401   19.0758 C.ar    1  UNL1        0.0716
     39 C           2.8115   -2.1791   19.5985 C.ar    1  UNL1        0.0084
     40 C           3.9207   -4.5151   19.3485 C.3     1  UNL1        0.4186
     41 F           3.9185   -5.9901   19.6211 F       1  UNL1       -0.1659
     42 F           2.5499   -4.6237   18.7493 F       1  UNL1       -0.1659
     43 F           5.2916   -4.4064   19.9476 F       1  UNL1       -0.1659
@<TRIPOS>BOND
     1    25    26    2
     2    26    29    1
     3    29    30    1
     4    30    31   am
     5    31    32    2
     6    31    34    1
     7    34    35   ar
     8    35    36   ar
     9    36    37   ar
    10    37    38   ar
    11    38    40    1
    12    40    41    1
    13    40    42    1
    14    40    43    1
    15    38    39   ar
    16    26    27   am
    17    27     1    1
    18     1     2    1
    19     2     3    1
    20     5     3    1
    21     5     6    1
    22     6     7    1
    23     7     8    1
    24     8     9    1
    25     8    13    1
    26    13    14   ar
    27    14    15   ar
    28    15    16   ar
    29    16    19    1
    30    19    20    1
    31    20    21    1
    32    21    22    1
    33    21    23    1
    34    21    24    1
    35    16    17   ar
    36    17    18   ar
    37     8    10    1
    38    10    11    1
    39     3     4    1
    40    39    34   ar
    41     4     1    1
    42    11     5    1
    43    18    13   ar
    44    30    33    1
    45    27    28    1
    46     9    12    1
@<TRIPOS>MOLECULE
*****
 43 46 0 0 0
SMALL
GASTEIGER

@<TRIPOS>ATOM
      1 C           6.3251   -3.3139   28.4003 C.3     1  UNL1        0.1035
      2 C           6.2794   -1.9074   28.9196 C.3     1  UNL1        0.0933
      3 N           6.5526   -2.4103   30.3061 N.3     1  UNL1       -0.2711
      4 C           6.5982   -3.8169   29.7868 C.3     1  UNL1        0.0933
      5 C           6.7134   -1.7714   31.6536 C.3     1  UNL1        0.0578
      6 C           8.0790   -1.6281   32.2575 C.3     1  UNL1        0.0187
      7 C           8.2398   -0.9891   33.6051 C.3     1  UNL1        0.0326
      8 C           7.0351   -0.4936   34.3488 C.3     1  UNL1        0.1085
      9 O           8.1121   -0.1349   35.3291 O.3     1  UNL1       -0.3826
     10 C           5.6695   -0.6370   33.7449 C.3     1  UNL1        0.0326
     11 C           5.5087   -1.2759   32.3973 C.3     1  UNL1        0.0187
     12 H           8.9743   -0.4029   34.9746 H       1  UNL1        0.2107
     13 C           6.2044    0.1265   35.4329 C.ar    1  UNL1        0.0211
     14 C           6.6962    1.3503   36.1474 C.ar    1  UNL1        0.0043
     15 C           5.8655    1.9704   37.2316 C.ar    1  UNL1        0.0575
     16 C           4.5430    1.3667   37.6012 C.ar    1  UNL1        0.2251
     17 N           4.0512    0.1431   36.8868 N.ar    1  UNL1       -0.2104
     18 C           4.8819   -0.4772   35.8026 C.ar    1  UNL1        0.1000
     19 O           3.7124    1.9869   38.6854 O.3     1  UNL1       -0.4509
     20 C           2.4899    1.2799   39.1910 C.3     1  UNL1        0.3095
     21 C           1.1631    1.9794   39.1861 C.3     1  UNL1        0.4381
     22 F          -0.1638    2.6790   39.1812 F       1  UNL1       -0.1663
     23 F           0.6381    0.9908   40.1847 F       1  UNL1       -0.1663
     24 F           1.6879    2.9681   38.1876 F       1  UNL1       -0.1663
     25 O           8.4951   -3.0487   26.3458 O.2     1  UNL1       -0.2733
     26 C           7.2492   -3.8202   26.0255 C.2     1  UNL1        0.2426
     27 N           6.1642   -3.9528   27.0527 N.am    1  UNL1       -0.3018
     28 H           5.3465   -4.4591   26.8424 H       1  UNL1        0.1495
     29 C           7.0883   -4.4590   24.6780 C.3     1  UNL1        0.1759
     30 N           6.0482   -3.9484   23.7252 N.am    1  UNL1       -0.2931
     31 C           6.2695   -4.0554   22.2455 C.2     1  UNL1        0.2462
     32 O           7.5308   -4.6730   21.7185 O.2     1  UNL1       -0.2701
     33 H           5.2204   -3.5431   24.0711 H       1  UNL1        0.1502
     34 C           5.2295   -3.5448   21.2928 C.ar    1  UNL1        0.0533
     35 C           5.1011   -4.1514   19.9269 C.ar    1  UNL1        0.0045
     36 C           4.0611   -3.6408   18.9743 C.ar    1  UNL1        0.0001
     37 C           3.1494   -2.5236   19.3874 C.ar    1  UNL1        0.0039
     38 C           3.2778   -1.9170   20.7532 C.ar    1  UNL1        0.0716
     39 C           4.3178   -2.4276   21.7059 C.ar    1  UNL1        0.0084
     40 C           2.3661   -0.7998   21.1664 C.3     1  UNL1        0.4186
     41 F           1.4544    0.3174   21.5795 F       1  UNL1       -0.1659
     42 F           3.2642   -0.4969   22.3290 F       1  UNL1       -0.1659
     43 F           1.4680   -1.1028   20.0038 F       1  UNL1       -0.1659
@<TRIPOS>BOND
     1    25    26    2
     2    26    29    1
     3    29    30    1
     4    30    31   am
     5    31    32    2
     6    31    34    1
     7    34    35   ar
     8    35    36   ar
     9    36    37   ar
    10    37    38   ar
    11    38    40    1
    12    40    41    1
    13    40    42    1
    14    40    43    1
    15    38    39   ar
    16    26    27   am
    17    27     1    1
    18     1     2    1
    19     2     3    1
    20     5     3    1
    21     5     6    1
    22     6     7    1
    23     7     8    1
    24     8     9    1
    25     8    13    1
    26    13    14   ar
    27    14    15   ar
    28    15    16   ar
    29    16    19    1
    30    19    20    1
    31    20    21    1
    32    21    22    1
    33    21    23    1
    34    21    24    1
    35    16    17   ar
    36    17    18   ar
    37     8    10    1
    38    10    11    1
    39     3     4    1
    40    39    34   ar
    41     4     1    1
    42    11     5    1
    43    18    13   ar
    44    30    33    1
    45    27    28    1
    46     9    12    1
@<TRIPOS>MOLECULE
*****
 43 46 0 0 0
SMALL
GASTEIGER

@<TRIPOS>ATOM
      1 C           6.6905   -2.8819   28.5586 C.3     1  UNL1        0.1035
      2 C           5.6792   -2.9284   27.4518 C.3     1  UNL1        0.0933
      3 N           6.7717   -3.2182   26.4657 N.3     1  UNL1       -0.2711
      4 C           7.7830   -3.1718   27.5726 C.3     1  UNL1        0.0933
      5 C           6.8292   -3.4561   24.9858 C.3     1  UNL1        0.0578
      6 C           7.6640   -4.5754   24.4379 C.3     1  UNL1        0.0187
      7 C           7.7214   -4.8132   22.9579 C.3     1  UNL1        0.0326
      8 C           6.9440   -3.9317   22.0260 C.3     1  UNL1        0.1085
      9 O           7.5863   -4.8564   21.0349 O.3     1  UNL1       -0.3826
     10 C           6.1092   -2.8124   22.5739 C.3     1  UNL1        0.0326
     11 C           6.0518   -2.5746   24.0538 C.3     1  UNL1        0.0187
     12 H           8.1370   -5.5020   21.5048 H       1  UNL1        0.2107
     13 C           6.3897   -3.3713   20.7498 C.ar    1  UNL1        0.0211
     14 C           5.0295   -3.7896   20.2754 C.ar    1  UNL1        0.0043
     15 C           4.4752   -3.2292   18.9992 C.ar    1  UNL1        0.0575
     16 C           5.2811   -2.2506   18.1974 C.ar    1  UNL1        0.2251
     17 N           6.6411   -1.8323   18.6717 N.ar    1  UNL1       -0.2104
     18 C           7.1956   -2.3926   19.9480 C.ar    1  UNL1        0.1000
     19 O           4.7267   -1.6902   16.9212 O.3     1  UNL1       -0.4509
     20 C           3.6405   -0.6567   16.9652 C.3     1  UNL1        0.3095
     21 C           3.5818    0.3219   18.1005 C.3     1  UNL1        0.4381
     22 F           3.5231    1.3004   19.2359 F       1  UNL1       -0.1663
     23 F           4.7745    1.0406   17.5429 F       1  UNL1       -0.1663
     24 F           2.3892   -0.3968   18.6583 F       1  UNL1       -0.1663
     25 O           6.6514   -5.2090   30.4515 O.2     1  UNL1       -0.2733
     26 C           6.6135   -3.8076   30.9850 C.2     1  UNL1        0.2426
     27 N           6.6330   -2.6441   30.0386 N.am    1  UNL1       -0.3018
     28 H           6.6081   -1.7243   30.3887 H       1  UNL1        0.1495
     29 C           6.5560   -3.5698   32.4649 C.3     1  UNL1        0.1759
     30 N           6.1235   -2.2343   32.9936 N.am    1  UNL1       -0.2931
     31 C           4.7571   -2.0707   33.5905 C.2     1  UNL1        0.2462
     32 O           3.8232   -3.2425   33.6587 O.2     1  UNL1       -0.2701
     33 H           6.7364   -1.4651   32.9489 H       1  UNL1        0.1502
     34 C           4.3246   -0.7352   34.1192 C.ar    1  UNL1        0.0533
     35 C           3.6154    0.2336   33.2201 C.ar    1  UNL1        0.0045
     36 C           3.1830    1.5690   33.7489 C.ar    1  UNL1        0.0001
     37 C           3.4597    1.9356   35.1768 C.ar    1  UNL1        0.0039
     38 C           4.1689    0.9669   36.0759 C.ar    1  UNL1        0.0716
     39 C           4.6014   -0.3685   35.5472 C.ar    1  UNL1        0.0084
     40 C           4.4456    1.3335   37.5039 C.3     1  UNL1        0.4186
     41 F           4.7224    1.7002   38.9318 F       1  UNL1       -0.1659
     42 F           3.0110    1.0660   37.8506 F       1  UNL1       -0.1659
     43 F           5.8803    1.6011   37.1571 F       1  UNL1       -0.1659
@<TRIPOS>BOND
     1    25    26    2
     2    26    29    1
     3    29    30    1
     4    30    31   am
     5    31    32    2
     6    31    34    1
     7    34    35   ar
     8    35    36   ar
     9    36    37   ar
    10    37    38   ar
    11    38    40    1
    12    40    41    1
    13    40    42    1
    14    40    43    1
    15    38    39   ar
    16    26    27   am
    17    27     1    1
    18     1     2    1
    19     2     3    1
    20     5     3    1
    21     5     6    1
    22     6     7    1
    23     7     8    1
    24     8     9    1
    25     8    13    1
    26    13    14   ar
    27    14    15   ar
    28    15    16   ar
    29    16    19    1
    30    19    20    1
    31    20    21    1
    32    21    22    1
    33    21    23    1
    34    21    24    1
    35    16    17   ar
    36    17    18   ar
    37     8    10    1
    38    10    11    1
    39     3     4    1
    40    39    34   ar
    41     4     1    1
    42    11     5    1
    43    18    13   ar
    44    30    33    1
    45    27    28    1
    46     9    12    1
@<TRIPOS>MOLECULE
*****
 43 46 0 0 0
SMALL
GASTEIGER

@<TRIPOS>ATOM
      1 C           3.3371    0.0194   30.8420 C.3     1  UNL1        0.1035
      2 C           3.9490    0.8722   29.7704 C.3     1  UNL1        0.0933
      3 N           3.0418    0.2454   28.7535 N.3     1  UNL1       -0.2711
      4 C           2.4299   -0.6074   29.8251 C.3     1  UNL1        0.0933
      5 C           2.8330    0.4053   27.2768 C.3     1  UNL1        0.0578
      6 C           1.6994    1.2444   26.7661 C.3     1  UNL1        0.0187
      7 C           1.4906    1.4042   25.2893 C.3     1  UNL1        0.0326
      8 C           2.4154    0.7250   24.3232 C.3     1  UNL1        0.1085
      9 O           1.4916    1.4109   23.3610 O.3     1  UNL1       -0.3826
     10 C           3.5490   -0.1141   24.8339 C.3     1  UNL1        0.0326
     11 C           3.7579   -0.2740   26.3106 C.3     1  UNL1        0.0187
     12 H           0.8192    1.9055   23.8551 H       1  UNL1        0.2107
     13 C           3.0194    0.2839   23.0230 C.ar    1  UNL1        0.0211
     14 C           2.3312   -0.7577   22.1914 C.ar    1  UNL1        0.0043
     15 C           2.9352   -1.1988   20.8911 C.ar    1  UNL1        0.0575
     16 C           4.2274   -0.5982   20.4224 C.ar    1  UNL1        0.2251
     17 N           4.9155    0.4433   21.2539 N.ar    1  UNL1       -0.2104
     18 C           4.3116    0.8845   22.5543 C.ar    1  UNL1        0.1000
     19 O           4.8313   -1.0393   19.1222 O.3     1  UNL1       -0.4509
     20 C           4.1482   -2.0879   18.2954 C.3     1  UNL1        0.3095
     21 C           4.5433   -3.5282   18.4347 C.3     1  UNL1        0.4381
     22 F           4.9384   -4.9685   18.5741 F       1  UNL1       -0.1663
     23 F           5.9234   -3.1966   17.9495 F       1  UNL1       -0.1663
     24 F           3.1633   -3.8599   18.9199 F       1  UNL1       -0.1663
     25 O           5.2168   -2.0794   31.8727 O.2     1  UNL1       -0.2733
     26 C           4.4858   -1.1898   32.8341 C.2     1  UNL1        0.2426
     27 N           3.5460   -0.1405   32.3188 N.am    1  UNL1       -0.3018
     28 H           3.0663    0.4434   32.9498 H       1  UNL1        0.1495
     29 C           4.6946   -1.3496   34.3109 C.3     1  UNL1        0.1759
     30 N           4.2046   -0.2931   35.2563 N.am    1  UNL1       -0.2931
     31 C           5.0027    0.0470   36.4799 C.2     1  UNL1        0.2462
     32 O           6.2908   -0.6694   36.7582 O.2     1  UNL1       -0.2701
     33 H           3.3591    0.1771   35.0736 H       1  UNL1        0.1502
     34 C           4.5126    1.1034   37.4254 C.ar    1  UNL1        0.0533
     35 C           5.4872    2.0452   38.0681 C.ar    1  UNL1        0.0045
     36 C           4.9971    3.1017   39.0134 C.ar    1  UNL1        0.0001
     37 C           3.5325    3.2163   39.3161 C.ar    1  UNL1        0.0039
     38 C           2.5579    2.2745   38.6734 C.ar    1  UNL1        0.0716
     39 C           3.0480    1.2180   37.7281 C.ar    1  UNL1        0.0084
     40 C           1.0932    2.3891   38.9761 C.3     1  UNL1        0.4186
     41 F          -0.3715    2.5037   39.2788 F       1  UNL1       -0.1659
     42 F           0.9867    3.5430   38.0237 F       1  UNL1       -0.1659
     43 F           1.1997    1.2351   39.9285 F       1  UNL1       -0.1659
@<TRIPOS>BOND
     1    25    26    2
     2    26    29    1
     3    29    30    1
     4    30    31   am
     5    31    32    2
     6    31    34    1
     7    34    35   ar
     8    35    36   ar
     9    36    37   ar
    10    37    38   ar
    11    38    40    1
    12    40    41    1
    13    40    42    1
    14    40    43    1
    15    38    39   ar
    16    26    27   am
    17    27     1    1
    18     1     2    1
    19     2     3    1
    20     5     3    1
    21     5     6    1
    22     6     7    1
    23     7     8    1
    24     8     9    1
    25     8    13    1
    26    13    14   ar
    27    14    15   ar
    28    15    16   ar
    29    16    19    1
    30    19    20    1
    31    20    21    1
    32    21    22    1
    33    21    23    1
    34    21    24    1
    35    16    17   ar
    36    17    18   ar
    37     8    10    1
    38    10    11    1
    39     3     4    1
    40    39    34   ar
    41     4     1    1
    42    11     5    1
    43    18    13   ar
    44    30    33    1
    45    27    28    1
    46     9    12    1
@<TRIPOS>MOLECULE
*****
 43 46 0 0 0
SMALL
GASTEIGER

@<TRIPOS>ATOM
      1 C           6.2676   -3.2700   26.8301 C.3     1  UNL1        0.1035
      2 C           6.5810   -3.7603   28.2126 C.3     1  UNL1        0.0933
      3 N           6.3718   -2.3760   28.7510 N.3     1  UNL1       -0.2711
      4 C           6.0584   -1.8857   27.3684 C.3     1  UNL1        0.0933
      5 C           6.4455   -1.7438   30.1092 C.3     1  UNL1        0.0578
      6 C           7.7772   -1.5287   30.7651 C.3     1  UNL1        0.0187
      7 C           7.8508   -0.8965   32.1234 C.3     1  UNL1        0.0326
      8 C           6.5928   -0.4794   32.8258 C.3     1  UNL1        0.1085
      9 O           7.6103   -0.0701   33.8490 O.3     1  UNL1       -0.3826
     10 C           5.2611   -0.6946   32.1699 C.3     1  UNL1        0.0326
     11 C           5.1874   -1.3267   30.8116 C.3     1  UNL1        0.0187
     12 H           8.4991   -0.2841   33.5247 H       1  UNL1        0.2107
     13 C           5.6881    0.0798   33.8835 C.ar    1  UNL1        0.0211
     14 C           5.5270   -0.6398   35.1897 C.ar    1  UNL1        0.0043
     15 C           4.6223   -0.0806   36.2475 C.ar    1  UNL1        0.0575
     16 C           3.8787    1.1982   35.9989 C.ar    1  UNL1        0.2251
     17 N           4.0398    1.9178   34.6928 N.ar    1  UNL1       -0.2104
     18 C           4.9445    1.3586   33.6349 C.ar    1  UNL1        0.1000
     19 O           2.9740    1.7574   37.0567 O.3     1  UNL1       -0.4509
     20 C           2.8470    1.0617   38.3795 C.3     1  UNL1        0.3095
     21 C           1.6065    1.2385   39.2039 C.3     1  UNL1        0.4381
     22 F           0.3659    1.4152   40.0284 F       1  UNL1       -0.1663
     23 F           1.9287    2.6932   39.3771 F       1  UNL1       -0.1663
     24 F           1.2841   -0.2162   39.0308 F       1  UNL1       -0.1663
     25 O           8.5543   -2.9725   24.9110 O.2     1  UNL1       -0.2733
     26 C           7.3373   -3.7535   24.5123 C.2     1  UNL1        0.2426
     27 N           6.1940   -3.9023   25.4718 N.am    1  UNL1       -0.3018
     28 H           5.3952   -4.4149   25.2101 H       1  UNL1        0.1495
     29 C           7.2636   -4.3858   23.1540 C.3     1  UNL1        0.1759
     30 N           6.8008   -3.5806   21.9760 N.am    1  UNL1       -0.2931
     31 C           5.3365   -3.3325   21.7658 C.2     1  UNL1        0.2462
     32 O           4.3349   -3.8895   22.7336 O.2     1  UNL1       -0.2701
     33 H           7.4581   -3.2150   21.3409 H       1  UNL1        0.1502
     34 C           4.8737   -2.5274   20.5878 C.ar    1  UNL1        0.0533
     35 C           5.7555   -2.3865   19.3827 C.ar    1  UNL1        0.0045
     36 C           5.2927   -1.5813   18.2047 C.ar    1  UNL1        0.0001
     37 C           3.9481   -0.9171   18.2320 C.ar    1  UNL1        0.0039
     38 C           3.0663   -1.0580   19.4372 C.ar    1  UNL1        0.0716
     39 C           3.5291   -1.8631   20.6151 C.ar    1  UNL1        0.0084
     40 C           1.7217   -0.3937   19.4644 C.3     1  UNL1        0.4186
     41 F           0.3770    0.2705   19.4917 F       1  UNL1       -0.1659
     42 F           1.4629   -0.9732   20.8235 F       1  UNL1       -0.1659
     43 F           1.9804    0.1858   18.1053 F       1  UNL1       -0.1659
@<TRIPOS>BOND
     1    25    26    2
     2    26    29    1
     3    29    30    1
     4    30    31   am
     5    31    32    2
     6    31    34    1
     7    34    35   ar
     8    35    36   ar
     9    36    37   ar
    10    37    38   ar
    11    38    40    1
    12    40    41    1
    13    40    42    1
    14    40    43    1
    15    38    39   ar
    16    26    27   am
    17    27     1    1
    18     1     2    1
    19     2     3    1
    20     5     3    1
    21     5     6    1
    22     6     7    1
    23     7     8    1
    24     8     9    1
    25     8    13    1
    26    13    14   ar
    27    14    15   ar
    28    15    16   ar
    29    16    19    1
    30    19    20    1
    31    20    21    1
    32    21    22    1
    33    21    23    1
    34    21    24    1
    35    16    17   ar
    36    17    18   ar
    37     8    10    1
    38    10    11    1
    39     3     4    1
    40    39    34   ar
    41     4     1    1
    42    11     5    1
    43    18    13   ar
    44    30    33    1
    45    27    28    1
    46     9    12    1
@<TRIPOS>MOLECULE
*****
 43 46 0 0 0
SMALL
GASTEIGER

@<TRIPOS>ATOM
      1 C           7.3832   -6.9254   25.4436 C.3     1  UNL1        0.1035
      2 C           8.1310   -6.6588   24.1709 C.3     1  UNL1        0.0933
      3 N           7.8078   -5.1986   24.2869 N.3     1  UNL1       -0.2711
      4 C           7.0600   -5.4652   25.5596 C.3     1  UNL1        0.0933
      5 C           8.1080   -3.9777   23.4690 C.3     1  UNL1        0.0578
      6 C           9.0454   -2.9327   23.9976 C.3     1  UNL1        0.0187
      7 C           9.3456   -1.7116   23.1796 C.3     1  UNL1        0.0326
      8 C           8.7085   -1.5356   21.8331 C.3     1  UNL1        0.1085
      9 O           9.5228   -0.2779   21.9024 O.3     1  UNL1       -0.3826
     10 C           7.7712   -2.5806   21.3045 C.3     1  UNL1        0.0326
     11 C           7.4709   -3.8016   22.1224 C.3     1  UNL1        0.0187
     12 H          10.0052   -0.2509   22.7435 H       1  UNL1        0.2107
     13 C           8.3542   -0.9228   20.5106 C.ar    1  UNL1        0.0211
     14 C           7.0627   -1.2841   19.8385 C.ar    1  UNL1        0.0043
     15 C           6.7084   -0.6713   18.5161 C.ar    1  UNL1        0.0575
     16 C           7.6456    0.3028   17.8657 C.ar    1  UNL1        0.2251
     17 N           8.9369    0.6641   18.5377 N.ar    1  UNL1       -0.2104
     18 C           9.2913    0.0513   19.8603 C.ar    1  UNL1        0.1000
     19 O           7.2912    0.9156   16.5433 O.3     1  UNL1       -0.4509
     20 C           6.6003    2.2461   16.4941 C.3     1  UNL1        0.3095
     21 C           6.1209    2.8896   17.7614 C.3     1  UNL1        0.4381
     22 F           5.6415    3.5332   19.0286 F       1  UNL1       -0.1663
     23 F           4.8263    2.1397   17.6525 F       1  UNL1       -0.1663
     24 F           7.4154    3.6395   17.8703 F       1  UNL1       -0.1663
     25 O           9.5039   -8.1106   27.2038 O.2     1  UNL1       -0.2733
     26 C           8.1433   -8.7390   27.1416 C.2     1  UNL1        0.2426
     27 N           7.0830   -8.1465   26.2615 N.am    1  UNL1       -0.3018
     28 H           6.1900   -8.5589   26.2207 H       1  UNL1        0.1495
     29 C           7.8430   -9.9600   27.9594 C.3     1  UNL1        0.1759
     30 N           6.5190  -10.6507   27.8178 N.am    1  UNL1       -0.2931
     31 C           6.4141  -12.1277   28.0578 C.2     1  UNL1        0.2462
     32 O           7.6331  -12.9139   28.4396 O.2     1  UNL1       -0.2701
     33 H           5.7189  -10.1347   27.5672 H       1  UNL1        0.1502
     34 C           5.0901  -12.8184   27.9162 C.ar    1  UNL1        0.0533
     35 C           4.7891  -13.6172   26.6828 C.ar    1  UNL1        0.0045
     36 C           3.4651  -14.3078   26.5411 C.ar    1  UNL1        0.0001
     37 C           2.4422  -14.1997   27.6329 C.ar    1  UNL1        0.0039
     38 C           2.7432  -13.4009   28.8663 C.ar    1  UNL1        0.0716
     39 C           4.0672  -12.7102   29.0079 C.ar    1  UNL1        0.0084
     40 C           1.7203  -13.2927   29.9580 C.3     1  UNL1        0.4186
     41 F           0.6973  -13.1846   31.0498 F       1  UNL1       -0.1659
     42 F           0.9065  -14.3686   29.3021 F       1  UNL1       -0.1659
     43 F           2.5341  -12.2168   30.6139 F       1  UNL1       -0.1659
@<TRIPOS>BOND
     1    25    26    2
     2    26    29    1
     3    29    30    1
     4    30    31   am
     5    31    32    2
     6    31    34    1
     7    34    35   ar
     8    35    36   ar
     9    36    37   ar
    10    37    38   ar
    11    38    40    1
    12    40    41    1
    13    40    42    1
    14    40    43    1
    15    38    39   ar
    16    26    27   am
    17    27     1    1
    18     1     2    1
    19     2     3    1
    20     5     3    1
    21     5     6    1
    22     6     7    1
    23     7     8    1
    24     8     9    1
    25     8    13    1
    26    13    14   ar
    27    14    15   ar
    28    15    16   ar
    29    16    19    1
    30    19    20    1
    31    20    21    1
    32    21    22    1
    33    21    23    1
    34    21    24    1
    35    16    17   ar
    36    17    18   ar
    37     8    10    1
    38    10    11    1
    39     3     4    1
    40    39    34   ar
    41     4     1    1
    42    11     5    1
    43    18    13   ar
    44    30    33    1
    45    27    28    1
    46     9    12    1
@<TRIPOS>MOLECULE
*****
 43 46 0 0 0
SMALL
GASTEIGER

@<TRIPOS>ATOM
      1 C           1.6240    0.7935   27.5377 C.3     1  UNL1        0.1035
      2 C           1.4527   -0.1434   28.6966 C.3     1  UNL1        0.0933
      3 N           2.4126    0.6796   29.5037 N.3     1  UNL1       -0.2711
      4 C           2.5839    1.6164   28.3448 C.3     1  UNL1        0.0933
      5 C           2.9702    0.5991   30.8939 C.3     1  UNL1        0.0578
      6 C           4.2044   -0.2104   31.1612 C.3     1  UNL1        0.0187
      7 C           4.7620   -0.2909   32.5514 C.3     1  UNL1        0.0326
      8 C           4.0855    0.4381   33.6742 C.3     1  UNL1        0.1085
      9 O           5.2217   -0.1946   34.4216 O.3     1  UNL1       -0.3826
     10 C           2.8513    1.2476   33.4069 C.3     1  UNL1        0.0326
     11 C           2.2937    1.3281   32.0168 C.3     1  UNL1        0.0187
     12 H           5.7633   -0.7143   33.8072 H       1  UNL1        0.2107
     13 C           3.8035    0.9474   35.0567 C.ar    1  UNL1        0.0211
     14 C           4.4968    0.3348   36.2375 C.ar    1  UNL1        0.0043
     15 C           4.2148    0.8442   37.6199 C.ar    1  UNL1        0.0575
     16 C           3.2396    1.9660   37.8215 C.ar    1  UNL1        0.2251
     17 N           2.5464    2.5784   36.6408 N.ar    1  UNL1       -0.2104
     18 C           2.8283    2.0692   35.2582 C.ar    1  UNL1        0.1000
     19 O           2.9577    2.4752   39.2039 O.3     1  UNL1       -0.4509
     20 C           3.5587    3.7705   39.6632 C.3     1  UNL1        0.3095
     21 C           4.9871    4.0919   39.3372 C.3     1  UNL1        0.4381
     22 F           6.4155    4.4135   39.0112 F       1  UNL1       -0.1663
     23 F           5.4445    3.0395   40.3032 F       1  UNL1       -0.1663
     24 F           4.5298    5.1444   38.3712 F       1  UNL1       -0.1663
     25 O           3.4296    0.4110   25.1727 O.2     1  UNL1       -0.2733
     26 C           1.9691    0.6827   24.9650 C.2     1  UNL1        0.2426
     27 N           1.0663    0.8740   26.1475 N.am    1  UNL1       -0.3018
     28 H           0.1077    1.0523   26.0113 H       1  UNL1        0.1495
     29 C           1.4114    0.7632   23.5749 C.3     1  UNL1        0.1759
     30 N           2.2377    0.3101   22.4079 N.am    1  UNL1       -0.2931
     31 C           1.5782    0.0032   21.0961 C.2     1  UNL1        0.2462
     32 O           0.0924    0.1494   20.9513 O.2     1  UNL1       -0.2701
     33 H           3.2129    0.2142   22.5029 H       1  UNL1        0.1502
     34 C           2.4046   -0.4499   19.9290 C.ar    1  UNL1        0.0533
     35 C           2.6977    0.4984   18.8045 C.ar    1  UNL1        0.0045
     36 C           3.5240    0.0453   17.6375 C.ar    1  UNL1        0.0001
     37 C           4.0571   -1.3561   17.5951 C.ar    1  UNL1        0.0039
     38 C           3.7640   -2.3044   18.7196 C.ar    1  UNL1        0.0716
     39 C           2.9377   -1.8513   19.8866 C.ar    1  UNL1        0.0084
     40 C           4.2971   -3.7059   18.6772 C.3     1  UNL1        0.4186
     41 F           4.8302   -5.1073   18.6348 F       1  UNL1       -0.1659
     42 F           5.4918   -3.2280   17.9064 F       1  UNL1       -0.1659
     43 F           3.1023   -4.1837   19.4481 F       1  UNL1       -0.1659
@<TRIPOS>BOND
     1    25    26    2
     2    26    29    1
     3    29    30    1
     4    30    31   am
     5    31    32    2
     6    31    34    1
     7    34    35   ar
     8    35    36   ar
     9    36    37   ar
    10    37    38   ar
    11    38    40    1
    12    40    41    1
    13    40    42    1
    14    40    43    1
    15    38    39   ar
    16    26    27   am
    17    27     1    1
    18     1     2    1
    19     2     3    1
    20     5     3    1
    21     5     6    1
    22     6     7    1
    23     7     8    1
    24     8     9    1
    25     8    13    1
    26    13    14   ar
    27    14    15   ar
    28    15    16   ar
    29    16    19    1
    30    19    20    1
    31    20    21    1
    32    21    22    1
    33    21    23    1
    34    21    24    1
    35    16    17   ar
    36    17    18   ar
    37     8    10    1
    38    10    11    1
    39     3     4    1
    40    39    34   ar
    41     4     1    1
    42    11     5    1
    43    18    13   ar
    44    30    33    1
    45    27    28    1
    46     9    12    1
