@<TRIPOS>MOLECULE
*****
 29 32 0 0 0
SMALL
GASTEIGER

@<TRIPOS>ATOM
      1 C         -13.9635   -4.8680   18.6426 C.3     1  UNL1        0.0510
      2 C         -15.0372   -5.8973   18.4483 C.3     1  UNL1        0.0489
      3 C         -14.6756   -7.3502   18.3568 C.3     1  UNL1        0.1364
      4 C         -16.1108   -6.9266   18.2540 C.3     1  UNL1        0.0571
      5 C         -17.1844   -7.9559   18.0598 C.3     1  UNL1        0.0722
      6 N         -16.8228   -9.4088   17.9683 N.3     1  UNL1       -0.2973
      7 C         -15.3876   -9.8324   18.0710 C.3     1  UNL1        0.0722
      8 C         -14.3140   -8.8031   18.2653 C.3     1  UNL1        0.0571
      9 O         -13.2402   -7.7737   18.4595 O.3     1  UNL1       -0.4828
     10 C         -12.1666   -6.7444   18.6538 C.ar    1  UNL1        0.1345
     11 C         -10.7313   -7.1680   18.7566 C.ar    1  UNL1        0.0366
     12 C          -9.6576   -6.1387   18.9508 C.ar    1  UNL1        0.0031
     13 C         -10.0192   -4.6858   19.0424 C.ar    1  UNL1       -0.0001
     14 C         -11.4545   -4.2622   18.9396 C.ar    1  UNL1       -0.0010
     15 C         -12.5282   -5.2915   18.7453 C.ar    1  UNL1        0.0156
     16 H         -17.1640   -9.7409   17.0662 H       1  UNL1        0.1233
     17 C         -15.0483   -0.5093   18.9171 C.ar    1  UNL1        0.0536
     18 C         -14.6677   -1.1056   17.5944 C.ar    1  UNL1        0.0042
     19 C         -14.3061   -2.5585   17.5029 C.ar    1  UNL1       -0.0038
     20 C         -14.3251   -3.4151   18.7341 C.ar    1  UNL1       -0.0182
     21 C         -14.7057   -2.8188   20.0569 C.ar    1  UNL1       -0.0038
     22 C         -15.0673   -1.3659   20.1484 C.ar    1  UNL1        0.0042
     23 N         -16.8508    1.3600   18.9957 N.am    1  UNL1       -0.2761
     24 C         -15.4099    0.9435   19.0086 C.2     1  UNL1        0.2490
     25 O         -14.3305    1.9800   19.1130 O.2     1  UNL1       -0.2699
     26 C         -17.3149    3.4773   20.4282 C.3     1  UNL1        0.0233
     27 C         -17.2124    2.8129   19.0872 C.3     1  UNL1        0.0938
     28 C         -17.9302    0.3236   18.8913 C.3     1  UNL1        0.0938
     29 C         -18.6091   -0.1797   20.1305 C.3     1  UNL1        0.0233
@<TRIPOS>BOND
     1    26    27    1
     2    27    23    1
     3    23    28    1
     4    28    29    1
     5    23    24   am
     6    24    25    2
     7    24    17    1
     8    17    18   ar
     9    18    19   ar
    10    19    20   ar
    11     1    20    1
    12     1     2    1
    13     2     3    1
    14     3     4    1
    15     4     5    1
    16     5     6    1
    17     6     7    1
    18     7     8    1
    19     3     9    1
    20     9    10    1
    21    10    11   ar
    22    11    12   ar
    23    12    13   ar
    24    13    14   ar
    25    14    15   ar
    26    20    21   ar
    27    21    22   ar
    28    22    17   ar
    29    15     1    1
    30     8     3    1
    31    15    10   ar
    32     6    16    1
@<TRIPOS>MOLECULE
*****
 29 32 0 0 0
SMALL
GASTEIGER

@<TRIPOS>ATOM
      1 C          -7.5768  -17.2074   23.0351 C.3     1  UNL1        0.0510
      2 C          -8.7858  -17.4394   22.1779 C.3     1  UNL1        0.0489
      3 C         -10.1337  -16.9704   22.6396 C.3     1  UNL1        0.1364
      4 C          -9.9947  -17.6714   21.3208 C.3     1  UNL1        0.0571
      5 C         -11.2036  -17.9033   20.4637 C.3     1  UNL1        0.0722
      6 N         -12.5515  -17.4343   20.9253 N.3     1  UNL1       -0.2973
      7 C         -12.6905  -16.7333   22.2441 C.3     1  UNL1        0.0722
      8 C         -11.4816  -16.5013   23.1012 C.3     1  UNL1        0.0571
      9 O         -10.2727  -16.2693   23.9584 O.3     1  UNL1       -0.4828
     10 C          -9.0638  -16.0373   24.8155 C.ar    1  UNL1        0.1345
     11 C          -9.2027  -15.3363   26.1344 C.ar    1  UNL1        0.0366
     12 C          -7.9938  -15.1043   26.9915 C.ar    1  UNL1        0.0031
     13 C          -6.6459  -15.5733   26.5298 C.ar    1  UNL1       -0.0001
     14 C          -6.5069  -16.2743   25.2111 C.ar    1  UNL1       -0.0010
     15 C          -7.7159  -16.5063   24.3539 C.ar    1  UNL1        0.0156
     16 H         -13.1522  -18.2578   20.9648 H       1  UNL1        0.1233
     17 C          -3.5331  -18.6144   21.6501 C.ar    1  UNL1        0.0536
     18 C          -4.7767  -19.1830   21.0336 C.ar    1  UNL1        0.0042
     19 C          -6.1246  -18.7140   21.4953 C.ar    1  UNL1       -0.0038
     20 C          -6.2289  -17.6764   22.5734 C.ar    1  UNL1       -0.0182
     21 C          -4.9853  -17.1077   23.1899 C.ar    1  UNL1       -0.0038
     22 C          -3.6373  -17.5767   22.7283 C.ar    1  UNL1        0.0042
     23 N          -1.3928  -18.2538   20.2222 N.am    1  UNL1       -0.2761
     24 C          -2.1852  -19.0835   21.1884 C.2     1  UNL1        0.2490
     25 O          -1.6296  -20.3822   21.6931 O.2     1  UNL1       -0.2699
     26 C           1.1858  -17.9494   20.1312 C.3     1  UNL1        0.0233
     27 C          -0.0449  -18.7228   19.7605 C.3     1  UNL1        0.0938
     28 C          -1.9483  -16.9550   19.7175 C.3     1  UNL1        0.0938
     29 C          -2.7768  -16.9289   18.4674 C.3     1  UNL1        0.0233
@<TRIPOS>BOND
     1    26    27    1
     2    27    23    1
     3    23    28    1
     4    28    29    1
     5    23    24   am
     6    24    25    2
     7    24    17    1
     8    17    18   ar
     9    18    19   ar
    10    19    20   ar
    11     1    20    1
    12     1     2    1
    13     2     3    1
    14     3     4    1
    15     4     5    1
    16     5     6    1
    17     6     7    1
    18     7     8    1
    19     3     9    1
    20     9    10    1
    21    10    11   ar
    22    11    12   ar
    23    12    13   ar
    24    13    14   ar
    25    14    15   ar
    26    20    21   ar
    27    21    22   ar
    28    22    17   ar
    29    15     1    1
    30     8     3    1
    31    15    10   ar
    32     6    16    1
@<TRIPOS>MOLECULE
*****
 29 32 0 0 0
SMALL
GASTEIGER

@<TRIPOS>ATOM
      1 C           6.7375   -3.7807   25.2663 C.3     1  UNL1        0.0510
      2 C           6.4205   -3.1551   26.5924 C.3     1  UNL1        0.0489
      3 C           6.7632   -3.8757   27.8626 C.3     1  UNL1        0.1364
      4 C           6.1035   -2.5297   27.9184 C.3     1  UNL1        0.0571
      5 C           5.7866   -1.9043   29.2444 C.3     1  UNL1        0.0722
      6 N           6.1293   -2.6248   30.5146 N.3     1  UNL1       -0.2973
      7 C           6.7889   -3.9708   30.4587 C.3     1  UNL1        0.0722
      8 C           7.1059   -4.5962   29.1327 C.3     1  UNL1        0.0571
      9 O           7.4228   -5.2217   27.8067 O.3     1  UNL1       -0.4828
     10 C           7.7398   -5.8472   26.4807 C.ar    1  UNL1        0.1345
     11 C           8.3995   -7.1932   26.4248 C.ar    1  UNL1        0.0366
     12 C           8.7164   -7.8187   25.0988 C.ar    1  UNL1        0.0031
     13 C           8.3737   -7.0981   23.8286 C.ar    1  UNL1       -0.0001
     14 C           7.7141   -5.7521   23.8845 C.ar    1  UNL1       -0.0010
     15 C           7.3971   -5.1266   25.2105 C.ar    1  UNL1        0.0156
     16 H           5.2569   -2.7456   31.0291 H       1  UNL1        0.1233
     17 C           5.7094   -1.6190   21.4558 C.ar    1  UNL1        0.0536
     18 C           7.0957   -1.5251   22.0207 C.ar    1  UNL1        0.0042
     19 C           7.4384   -2.2457   23.2909 C.ar    1  UNL1       -0.0038
     20 C           6.3948   -3.0601   23.9961 C.ar    1  UNL1       -0.0182
     21 C           5.0083   -3.1540   23.4312 C.ar    1  UNL1       -0.0038
     22 C           4.6656   -2.4335   22.1610 C.ar    1  UNL1        0.0042
     23 N           5.4293   -1.6215   18.8728 N.am    1  UNL1       -0.2761
     24 C           5.3667   -0.8985   20.1856 C.2     1  UNL1        0.2490
     25 O           4.9614    0.5452   20.2282 O.2     1  UNL1       -0.2699
     26 C           3.6570   -0.8002   17.1598 C.3     1  UNL1        0.0233
     27 C           5.0866   -0.9009   17.6027 C.3     1  UNL1        0.0938
     28 C           5.8346   -3.0651   18.8302 C.3     1  UNL1        0.0938
     29 C           4.7869   -4.1368   18.7697 C.3     1  UNL1        0.0233
@<TRIPOS>BOND
     1    26    27    1
     2    27    23    1
     3    23    28    1
     4    28    29    1
     5    23    24   am
     6    24    25    2
     7    24    17    1
     8    17    18   ar
     9    18    19   ar
    10    19    20   ar
    11     1    20    1
    12     1     2    1
    13     2     3    1
    14     3     4    1
    15     4     5    1
    16     5     6    1
    17     6     7    1
    18     7     8    1
    19     3     9    1
    20     9    10    1
    21    10    11   ar
    22    11    12   ar
    23    12    13   ar
    24    13    14   ar
    25    14    15   ar
    26    20    21   ar
    27    21    22   ar
    28    22    17   ar
    29    15     1    1
    30     8     3    1
    31    15    10   ar
    32     6    16    1
@<TRIPOS>MOLECULE
*****
 29 32 0 0 0
SMALL
GASTEIGER

@<TRIPOS>ATOM
      1 C           2.3730   -0.0614   22.5771 C.3     1  UNL1        0.0510
      2 C           3.2420   -1.2779   22.4545 C.3     1  UNL1        0.0489
      3 C           3.5390   -1.8541   21.1018 C.3     1  UNL1        0.1364
      4 C           4.1110   -2.4943   22.3318 C.3     1  UNL1        0.0571
      5 C           4.9800   -3.7107   22.2092 C.3     1  UNL1        0.0722
      6 N           5.2770   -4.2870   20.8565 N.3     1  UNL1       -0.2973
      7 C           4.7050   -3.6468   19.6265 C.3     1  UNL1        0.0722
      8 C           3.8360   -2.4304   19.7492 C.3     1  UNL1        0.0571
      9 O           2.9670   -1.2139   19.8718 O.3     1  UNL1       -0.4828
     10 C           2.0980    0.0025   19.9944 C.ar    1  UNL1        0.1345
     11 C           1.5260    0.6428   18.7644 C.ar    1  UNL1        0.0366
     12 C           0.6570    1.8592   18.8871 C.ar    1  UNL1        0.0031
     13 C           0.3600    2.4355   20.2397 C.ar    1  UNL1       -0.0001
     14 C           0.9320    1.7953   21.4697 C.ar    1  UNL1       -0.0010
     15 C           1.8010    0.5788   21.3471 C.ar    1  UNL1        0.0156
     16 H           4.9451   -5.2514   20.8680 H       1  UNL1        0.1233
     17 C           1.4820    1.6674   26.6351 C.ar    1  UNL1        0.0536
     18 C           2.8821    1.2585   26.2850 C.ar    1  UNL1        0.0042
     19 C           3.1791    0.6822   24.9324 C.ar    1  UNL1       -0.0038
     20 C           2.0760    0.5149   23.9298 C.ar    1  UNL1       -0.0182
     21 C           0.6759    0.9238   24.2799 C.ar    1  UNL1       -0.0038
     22 C           0.3789    1.5001   25.6325 C.ar    1  UNL1        0.0042
     23 N           0.5882    1.3778   29.0573 N.am    1  UNL1       -0.2761
     24 C           1.1850    2.2437   27.9878 C.2     1  UNL1        0.2490
     25 O           1.4849    3.6859   28.2709 O.2     1  UNL1       -0.2699
     26 C           1.3498    1.9573   31.4727 C.3     1  UNL1        0.0233
     27 C           0.2912    1.9540   30.4100 C.3     1  UNL1        0.0938
     28 C           0.2883   -0.0645   28.7742 C.3     1  UNL1        0.0938
     29 C          -1.1324   -0.5454   28.7554 C.3     1  UNL1        0.0233
@<TRIPOS>BOND
     1    26    27    1
     2    27    23    1
     3    23    28    1
     4    28    29    1
     5    23    24   am
     6    24    25    2
     7    24    17    1
     8    17    18   ar
     9    18    19   ar
    10    19    20   ar
    11     1    20    1
    12     1     2    1
    13     2     3    1
    14     3     4    1
    15     4     5    1
    16     5     6    1
    17     6     7    1
    18     7     8    1
    19     3     9    1
    20     9    10    1
    21    10    11   ar
    22    11    12   ar
    23    12    13   ar
    24    13    14   ar
    25    14    15   ar
    26    20    21   ar
    27    21    22   ar
    28    22    17   ar
    29    15     1    1
    30     8     3    1
    31    15    10   ar
    32     6    16    1
@<TRIPOS>MOLECULE
*****
 29 32 0 0 0
SMALL
GASTEIGER

@<TRIPOS>ATOM
      1 C          -8.7231  -18.4055   21.6234 C.3     1  UNL1        0.0510
      2 C          -9.4662  -17.4509   20.7364 C.3     1  UNL1        0.0489
      3 C         -10.9372  -17.2337   20.9342 C.3     1  UNL1        0.1364
      4 C         -10.2093  -16.4964   19.8495 C.3     1  UNL1        0.0571
      5 C         -10.9524  -15.5418   18.9627 C.3     1  UNL1        0.0722
      6 N         -12.4233  -15.3246   19.1604 N.3     1  UNL1       -0.2973
      7 C         -13.1512  -16.0619   20.2451 C.3     1  UNL1        0.0722
      8 C         -12.4081  -17.0164   21.1320 C.3     1  UNL1        0.0571
      9 O         -11.6650  -17.9710   22.0189 O.3     1  UNL1       -0.4828
     10 C         -10.9219  -18.9256   22.9058 C.ar    1  UNL1        0.1345
     11 C         -11.6498  -19.6630   23.9906 C.ar    1  UNL1        0.0366
     12 C         -10.9067  -20.6175   24.8775 C.ar    1  UNL1        0.0031
     13 C          -9.4358  -20.8347   24.6797 C.ar    1  UNL1       -0.0001
     14 C          -8.7079  -20.0974   23.5950 C.ar    1  UNL1       -0.0010
     15 C          -9.4510  -19.1428   22.7081 C.ar    1  UNL1        0.0156
     16 H         -12.8781  -15.5702   18.2811 H       1  UNL1        0.1233
     17 C          -4.3103  -19.0572   21.0301 C.ar    1  UNL1        0.0536
     18 C          -4.8092  -18.3950   22.2801 C.ar    1  UNL1        0.0042
     19 C          -6.2802  -18.1778   22.4779 C.ar    1  UNL1       -0.0038
     20 C          -7.2522  -18.6227   21.4257 C.ar    1  UNL1       -0.0182
     21 C          -6.7532  -19.2849   20.1756 C.ar    1  UNL1       -0.0038
     22 C          -5.2823  -19.5022   19.9778 C.ar    1  UNL1        0.0042
     23 N          -2.0441  -18.3117   20.0012 N.am    1  UNL1       -0.2761
     24 C          -2.8393  -19.2744   20.8324 C.2     1  UNL1        0.2490
     25 O          -2.1636  -20.4544   21.4658 O.2     1  UNL1       -0.2699
     26 C           0.3903  -17.4052   20.0467 C.3     1  UNL1        0.0233
     27 C          -0.5731  -18.5290   19.8035 C.3     1  UNL1        0.0938
     28 C          -2.7198  -17.1318   19.3678 C.3     1  UNL1        0.0938
     29 C          -2.7440  -16.9939   17.8744 C.3     1  UNL1        0.0233
@<TRIPOS>BOND
     1    26    27    1
     2    27    23    1
     3    23    28    1
     4    28    29    1
     5    23    24   am
     6    24    25    2
     7    24    17    1
     8    17    18   ar
     9    18    19   ar
    10    19    20   ar
    11     1    20    1
    12     1     2    1
    13     2     3    1
    14     3     4    1
    15     4     5    1
    16     5     6    1
    17     6     7    1
    18     7     8    1
    19     3     9    1
    20     9    10    1
    21    10    11   ar
    22    11    12   ar
    23    12    13   ar
    24    13    14   ar
    25    14    15   ar
    26    20    21   ar
    27    21    22   ar
    28    22    17   ar
    29    15     1    1
    30     8     3    1
    31    15    10   ar
    32     6    16    1
@<TRIPOS>MOLECULE
*****
 29 32 0 0 0
SMALL
GASTEIGER

@<TRIPOS>ATOM
      1 C           3.3918   -1.2284   21.8765 C.3     1  UNL1        0.0510
      2 C           3.8079   -1.3873   23.3090 C.3     1  UNL1        0.0489
      3 C           4.8761   -2.3749   23.6745 C.3     1  UNL1        0.1364
      4 C           4.2240   -1.5462   24.7413 C.3     1  UNL1        0.0571
      5 C           4.6400   -1.7051   26.1736 C.3     1  UNL1        0.0722
      6 N           5.7082   -2.6927   26.5392 N.3     1  UNL1       -0.2973
      7 C           6.3603   -3.5214   25.4724 C.3     1  UNL1        0.0722
      8 C           5.9442   -3.3625   24.0401 C.3     1  UNL1        0.0571
      9 O           5.5282   -3.2036   22.6077 O.3     1  UNL1       -0.4828
     10 C           5.1121   -3.0447   21.1754 C.ar    1  UNL1        0.1345
     11 C           5.7642   -3.8734   20.1085 C.ar    1  UNL1        0.0366
     12 C           5.3481   -3.7145   18.6762 C.ar    1  UNL1        0.0031
     13 C           4.2800   -2.7269   18.3106 C.ar    1  UNL1       -0.0001
     14 C           3.6279   -1.8982   19.3774 C.ar    1  UNL1       -0.0010
     15 C           4.0439   -2.0571   20.8098 C.ar    1  UNL1        0.0156
     16 H           5.2918   -3.3440   27.2046 H       1  UNL1        0.1233
     17 C           0.1873    1.7344   20.7798 C.ar    1  UNL1        0.0536
     18 C           1.3184    2.1494   21.6732 C.ar    1  UNL1        0.0042
     19 C           2.3866    1.1618   22.0388 C.ar    1  UNL1       -0.0038
     20 C           2.3236   -0.2408   21.5110 C.ar    1  UNL1       -0.0182
     21 C           1.1924   -0.6559   20.6175 C.ar    1  UNL1       -0.0038
     22 C           0.1243    0.3317   20.2519 C.ar    1  UNL1        0.0042
     23 N          -0.7850    3.4891   19.1288 N.am    1  UNL1       -0.2761
     24 C          -0.8809    2.7220   20.4142 C.2     1  UNL1        0.2490
     25 O          -2.0451    2.9424   21.3341 O.2     1  UNL1       -0.2699
     26 C          -2.8917    4.1149   17.7431 C.3     1  UNL1        0.0233
     27 C          -1.8531    4.4767   18.7633 C.3     1  UNL1        0.0938
     28 C           0.3792    3.2686   18.2089 C.3     1  UNL1        0.0938
     29 C           1.5973    4.1369   18.3194 C.3     1  UNL1        0.0233
@<TRIPOS>BOND
     1    26    27    1
     2    27    23    1
     3    23    28    1
     4    28    29    1
     5    23    24   am
     6    24    25    2
     7    24    17    1
     8    17    18   ar
     9    18    19   ar
    10    19    20   ar
    11     1    20    1
    12     1     2    1
    13     2     3    1
    14     3     4    1
    15     4     5    1
    16     5     6    1
    17     6     7    1
    18     7     8    1
    19     3     9    1
    20     9    10    1
    21    10    11   ar
    22    11    12   ar
    23    12    13   ar
    24    13    14   ar
    25    14    15   ar
    26    20    21   ar
    27    21    22   ar
    28    22    17   ar
    29    15     1    1
    30     8     3    1
    31    15    10   ar
    32     6    16    1
@<TRIPOS>MOLECULE
*****
 29 32 0 0 0
SMALL
GASTEIGER

@<TRIPOS>ATOM
      1 C           0.0917    2.0043   22.1291 C.3     1  UNL1        0.0510
      2 C           0.1579    1.8044   23.6143 C.3     1  UNL1        0.0489
      3 C          -0.7844    2.5480   24.5139 C.3     1  UNL1        0.1364
      4 C           0.2241    1.6046   25.0994 C.3     1  UNL1        0.0571
      5 C           0.2903    1.4047   26.5845 C.3     1  UNL1        0.0722
      6 N          -0.6520    2.1482   27.4841 N.3     1  UNL1       -0.2973
      7 C          -1.6605    3.0916   26.8986 C.3     1  UNL1        0.0722
      8 C          -1.7267    3.2915   25.4135 C.3     1  UNL1        0.0571
      9 O          -1.7929    3.4914   23.9283 O.3     1  UNL1       -0.4828
     10 C          -1.8591    3.6913   22.4431 C.ar    1  UNL1        0.1345
     11 C          -2.8676    4.6347   21.8575 C.ar    1  UNL1        0.0366
     12 C          -2.9338    4.8346   20.3724 C.ar    1  UNL1        0.0031
     13 C          -1.9916    4.0911   19.4728 C.ar    1  UNL1       -0.0001
     14 C          -0.9831    3.1476   20.0584 C.ar    1  UNL1       -0.0010
     15 C          -0.9168    2.9477   21.5436 C.ar    1  UNL1        0.0156
     16 H          -0.0772    2.6933   28.1266 H       1  UNL1        0.1233
     17 C           2.9185   -0.2263   19.4303 C.ar    1  UNL1        0.0536
     18 C           1.6027   -0.8388   19.8089 C.ar    1  UNL1        0.0042
     19 C           0.6604   -0.0953   20.7085 C.ar    1  UNL1       -0.0038
     20 C           1.0339    1.2608   21.2295 C.ar    1  UNL1       -0.0182
     21 C           2.3498    1.8734   20.8509 C.ar    1  UNL1       -0.0038
     22 C           3.2921    1.1299   19.9514 C.ar    1  UNL1        0.0042
     23 N           4.8972   -1.8809   19.1188 N.am    1  UNL1       -0.2761
     24 C           3.8608   -0.9698   18.5308 C.2     1  UNL1        0.2490
     25 O           3.7666   -0.8023   17.0431 O.2     1  UNL1       -0.2699
     26 C           7.2994   -2.2798   18.2130 C.3     1  UNL1        0.0233
     27 C           5.8395   -2.6244   18.2192 C.3     1  UNL1        0.0938
     28 C           4.9913   -2.0484   20.6065 C.3     1  UNL1        0.0938
     29 C           4.4235   -3.2729   21.2607 C.3     1  UNL1        0.0233
@<TRIPOS>BOND
     1    26    27    1
     2    27    23    1
     3    23    28    1
     4    28    29    1
     5    23    24   am
     6    24    25    2
     7    24    17    1
     8    17    18   ar
     9    18    19   ar
    10    19    20   ar
    11     1    20    1
    12     1     2    1
    13     2     3    1
    14     3     4    1
    15     4     5    1
    16     5     6    1
    17     6     7    1
    18     7     8    1
    19     3     9    1
    20     9    10    1
    21    10    11   ar
    22    11    12   ar
    23    12    13   ar
    24    13    14   ar
    25    14    15   ar
    26    20    21   ar
    27    21    22   ar
    28    22    17   ar
    29    15     1    1
    30     8     3    1
    31    15    10   ar
    32     6    16    1
@<TRIPOS>MOLECULE
*****
 29 32 0 0 0
SMALL
GASTEIGER

@<TRIPOS>ATOM
      1 C          -0.1980    2.1388   21.5922 C.3     1  UNL1        0.0510
      2 C          -1.2831    2.9109   20.9017 C.3     1  UNL1        0.0489
      3 C          -2.2751    3.6952   21.7084 C.3     1  UNL1        0.1364
      4 C          -2.3681    3.6829   20.2114 C.3     1  UNL1        0.0571
      5 C          -3.4532    4.4549   19.5211 C.3     1  UNL1        0.0722
      6 N          -4.4452    5.2392   20.3278 N.3     1  UNL1       -0.2973
      7 C          -4.3522    5.2514   21.8248 C.3     1  UNL1        0.0722
      8 C          -3.2672    4.4794   22.5151 C.3     1  UNL1        0.0571
      9 O          -2.1821    3.7074   23.2056 O.3     1  UNL1       -0.4828
     10 C          -1.0970    2.9354   23.8959 C.ar    1  UNL1        0.1345
     11 C          -1.0040    2.9476   25.3930 C.ar    1  UNL1        0.0366
     12 C           0.0811    2.1756   26.0833 C.ar    1  UNL1        0.0031
     13 C           1.0731    1.3913   25.2766 C.ar    1  UNL1       -0.0001
     14 C           0.9801    1.3790   23.7796 C.ar    1  UNL1       -0.0010
     15 C          -0.1050    2.1511   23.0892 C.ar    1  UNL1        0.0156
     16 H          -5.3688    4.8755   20.0931 H       1  UNL1        0.1233
     17 C           2.7782   -0.2140   19.1721 C.ar    1  UNL1        0.0536
     18 C           1.5402   -0.8816   19.6933 C.ar    1  UNL1        0.0042
     19 C           0.5482   -0.0973   20.5000 C.ar    1  UNL1       -0.0038
     20 C           0.7941    1.3546   20.7855 C.ar    1  UNL1       -0.0182
     21 C           2.0321    2.0223   20.2642 C.ar    1  UNL1       -0.0038
     22 C           3.0241    1.2380   19.4575 C.ar    1  UNL1        0.0042
     23 N           4.7415   -1.9113   19.0529 N.am    1  UNL1       -0.2761
     24 C           3.7702   -0.9982   18.3654 C.2     1  UNL1        0.2490
     25 O           3.7909   -0.8694   16.8710 O.2     1  UNL1       -0.2699
     26 C           7.1804   -2.2994   18.2458 C.3     1  UNL1        0.0233
     27 C           5.7336   -2.6955   18.2462 C.3     1  UNL1        0.0938
     28 C           4.7208   -2.0401   20.5473 C.3     1  UNL1        0.0938
     29 C           4.7045   -3.3987   21.1828 C.3     1  UNL1        0.0233
@<TRIPOS>BOND
     1    26    27    1
     2    27    23    1
     3    23    28    1
     4    28    29    1
     5    23    24   am
     6    24    25    2
     7    24    17    1
     8    17    18   ar
     9    18    19   ar
    10    19    20   ar
    11     1    20    1
    12     1     2    1
    13     2     3    1
    14     3     4    1
    15     4     5    1
    16     5     6    1
    17     6     7    1
    18     7     8    1
    19     3     9    1
    20     9    10    1
    21    10    11   ar
    22    11    12   ar
    23    12    13   ar
    24    13    14   ar
    25    14    15   ar
    26    20    21   ar
    27    21    22   ar
    28    22    17   ar
    29    15     1    1
    30     8     3    1
    31    15    10   ar
    32     6    16    1
@<TRIPOS>MOLECULE
*****
 29 32 0 0 0
SMALL
GASTEIGER

@<TRIPOS>ATOM
      1 C           6.9310   -4.1403   24.6567 C.3     1  UNL1        0.0510
      2 C           6.5886   -3.5073   25.9728 C.3     1  UNL1        0.0489
      3 C           7.0843   -4.1177   27.2501 C.3     1  UNL1        0.1364
      4 C           6.2463   -2.8743   27.2889 C.3     1  UNL1        0.0571
      5 C           5.9039   -2.2414   28.6050 C.3     1  UNL1        0.0722
      6 N           6.3997   -2.8519   29.8823 N.3     1  UNL1       -0.2973
      7 C           7.2378   -4.0953   29.8436 C.3     1  UNL1        0.0722
      8 C           7.5801   -4.7282   28.5275 C.3     1  UNL1        0.0571
      9 O           7.9225   -5.3612   27.2113 O.3     1  UNL1       -0.4828
     10 C           8.2648   -5.9941   25.8952 C.ar    1  UNL1        0.1345
     11 C           9.1029   -7.2376   25.8564 C.ar    1  UNL1        0.0366
     12 C           9.4453   -7.8705   24.5403 C.ar    1  UNL1        0.0031
     13 C           8.9495   -7.2600   23.2630 C.ar    1  UNL1       -0.0001
     14 C           8.1114   -6.0166   23.3017 C.ar    1  UNL1       -0.0010
     15 C           7.7691   -5.3836   24.6179 C.ar    1  UNL1        0.0156
     16 H           5.5763   -3.0692   30.4438 H       1  UNL1        0.1233
     17 C           5.4437   -2.3088   20.8247 C.ar    1  UNL1        0.0536
     18 C           4.5425   -3.1961   21.6312 C.ar    1  UNL1        0.0042
     19 C           5.0382   -3.8066   22.9085 C.ar    1  UNL1       -0.0038
     20 C           6.4352   -3.5298   23.3793 C.ar    1  UNL1       -0.0182
     21 C           7.3365   -2.6424   22.5729 C.ar    1  UNL1       -0.0038
     22 C           6.8408   -2.0320   21.2955 C.ar    1  UNL1        0.0042
     23 N           4.2351   -0.3789   19.5739 N.am    1  UNL1       -0.2761
     24 C           4.9479   -1.6984   19.5474 C.2     1  UNL1        0.2490
     25 O           5.1651   -2.4075   18.2435 O.2     1  UNL1       -0.2699
     26 C           2.3033    0.6467   18.1716 C.3     1  UNL1        0.0233
     27 C           3.7394    0.2316   18.2966 C.3     1  UNL1        0.0938
     28 C           4.0180    0.3302   20.8778 C.3     1  UNL1        0.0938
     29 C           4.7714    1.5915   21.1801 C.3     1  UNL1        0.0233
@<TRIPOS>BOND
     1    26    27    1
     2    27    23    1
     3    23    28    1
     4    28    29    1
     5    23    24   am
     6    24    25    2
     7    24    17    1
     8    17    18   ar
     9    18    19   ar
    10    19    20   ar
    11     1    20    1
    12     1     2    1
    13     2     3    1
    14     3     4    1
    15     4     5    1
    16     5     6    1
    17     6     7    1
    18     7     8    1
    19     3     9    1
    20     9    10    1
    21    10    11   ar
    22    11    12   ar
    23    12    13   ar
    24    13    14   ar
    25    14    15   ar
    26    20    21   ar
    27    21    22   ar
    28    22    17   ar
    29    15     1    1
    30     8     3    1
    31    15    10   ar
    32     6    16    1
