@<TRIPOS>MOLECULE
*****
 24 26 0 0 0
SMALL
GASTEIGER

@<TRIPOS>ATOM
      1 C          -8.6809  -17.1728   22.4837 C.3     1  UNL1        0.1896
      2 C         -10.1300  -17.3665   22.8191 C.ar    1  UNL1        0.0172
      3 C         -11.1752  -16.5329   22.1390 C.ar    1  UNL1       -0.0008
      4 C         -12.6243  -16.7266   22.4745 C.ar    1  UNL1       -0.0002
      5 C         -13.0282  -17.7539   23.4900 C.ar    1  UNL1       -0.0000
      6 C         -11.9830  -18.5876   24.1702 C.ar    1  UNL1       -0.0002
      7 C         -10.5339  -18.3939   23.8347 C.ar    1  UNL1       -0.0008
      8 C          -7.9306  -18.2456   21.7513 C.3     1  UNL1        0.0615
      9 C          -6.5587  -18.7494   22.0888 C.3     1  UNL1        0.0224
     10 C          -6.2008  -19.8181   21.0990 C.3     1  UNL1        0.0687
     11 N          -7.3517  -19.9749   20.1497 N.3     1  UNL1       -0.2973
     12 C          -8.4208  -19.0030   20.5529 C.3     1  UNL1        0.0725
     13 H          -7.7134  -20.9273   20.1986 H       1  UNL1        0.1232
     14 O          -7.9820  -15.9063   22.8806 O.3     1  UNL1       -0.4700
     15 F          -9.0068  -14.9114   27.8766 F       1  UNL1       -0.2016
     16 C          -8.0211  -15.2240   26.7899 C.ar    1  UNL1        0.1728
     17 C          -6.5623  -15.3516   27.1146 C.ar    1  UNL1        0.0641
     18 C          -5.5766  -15.6642   26.0279 C.ar    1  UNL1        0.1728
     19 F          -4.1178  -15.7918   26.3526 F       1  UNL1       -0.2016
     20 C          -6.0498  -15.8491   24.6165 C.ar    1  UNL1        0.2034
     21 F          -5.0642  -16.1616   23.5299 F       1  UNL1       -0.1985
     22 C          -7.5087  -15.7214   24.2919 C.ar    1  UNL1        0.1978
     23 C          -8.4943  -15.4089   25.3785 C.ar    1  UNL1        0.2034
     24 F          -9.2847  -15.3061   25.3966 F       1  UNL1       -0.1985
@<TRIPOS>BOND
     1    15    16    1
     2    16    17   ar
     3    17    18   ar
     4    18    19    1
     5    18    20   ar
     6    20    21    1
     7    20    22   ar
     8    22    14    1
     9     1    14    1
    10     1     2    1
    11     2     3   ar
    12     3     4   ar
    13     4     5   ar
    14     5     6   ar
    15     6     7   ar
    16     1     8    1
    17     8     9    1
    18     9    10    1
    19    10    11    1
    20    11    12    1
    21    22    23   ar
    22    23    24    1
    23    23    16   ar
    24     7     2   ar
    25    12     8    1
    26    11    13    1
@<TRIPOS>MOLECULE
*****
 24 26 0 0 0
SMALL
GASTEIGER

@<TRIPOS>ATOM
      1 C          -7.9378  -18.0883   22.7209 C.3     1  UNL1        0.1896
      2 C          -6.6515  -18.5394   22.0951 C.ar    1  UNL1        0.0172
      3 C          -6.6666  -19.2267   20.7619 C.ar    1  UNL1       -0.0008
      4 C          -5.3802  -19.6778   20.1360 C.ar    1  UNL1       -0.0002
      5 C          -4.0787  -19.4417   20.8433 C.ar    1  UNL1       -0.0000
      6 C          -4.0635  -18.7544   22.1766 C.ar    1  UNL1       -0.0002
      7 C          -5.3499  -18.3033   22.8025 C.ar    1  UNL1       -0.0008
      8 C          -7.9879  -16.7993   23.4865 C.3     1  UNL1        0.0615
      9 C          -8.4786  -16.6281   24.8936 C.3     1  UNL1        0.0224
     10 C          -8.3500  -15.1782   25.2561 C.3     1  UNL1        0.0687
     11 N          -7.7797  -14.4534   24.0731 N.3     1  UNL1       -0.2973
     12 C          -7.5559  -15.4554   22.9794 C.3     1  UNL1        0.0725
     13 H          -6.8942  -14.0165   24.3287 H       1  UNL1        0.1232
     14 O          -9.1742  -18.9261   22.5812 O.3     1  UNL1       -0.4700
     15 F         -12.2235  -15.9801   19.5775 F       1  UNL1       -0.2016
     16 C         -12.0230  -16.7984   20.8185 C.ar    1  UNL1        0.1728
     17 C         -13.1466  -16.9621   21.7986 C.ar    1  UNL1        0.0641
     18 C         -12.9461  -17.7805   23.0397 C.ar    1  UNL1        0.1728
     19 F         -14.0697  -17.9441   24.0198 F       1  UNL1       -0.2016
     20 C         -11.6219  -18.4352   23.3006 C.ar    1  UNL1        0.2034
     21 F         -11.4214  -19.2535   24.5415 F       1  UNL1       -0.1985
     22 C         -10.4983  -18.2715   22.3204 C.ar    1  UNL1        0.1978
     23 C         -10.6988  -17.4531   21.0794 C.ar    1  UNL1        0.2034
     24 F         -10.2326  -17.2594   20.4625 F       1  UNL1       -0.1985
@<TRIPOS>BOND
     1    15    16    1
     2    16    17   ar
     3    17    18   ar
     4    18    19    1
     5    18    20   ar
     6    20    21    1
     7    20    22   ar
     8    22    14    1
     9     1    14    1
    10     1     2    1
    11     2     3   ar
    12     3     4   ar
    13     4     5   ar
    14     5     6   ar
    15     6     7   ar
    16     1     8    1
    17     8     9    1
    18     9    10    1
    19    10    11    1
    20    11    12    1
    21    22    23   ar
    22    23    24    1
    23    23    16   ar
    24     7     2   ar
    25    12     8    1
    26    11    13    1
@<TRIPOS>MOLECULE
*****
 24 26 0 0 0
SMALL
GASTEIGER

@<TRIPOS>ATOM
      1 C          -7.8695  -18.3170   22.7490 C.3     1  UNL1        0.1896
      2 C          -6.5984  -18.7596   22.0870 C.ar    1  UNL1        0.0172
      3 C          -6.6519  -19.5530   20.8151 C.ar    1  UNL1       -0.0008
      4 C          -5.3808  -19.9955   20.1531 C.ar    1  UNL1       -0.0002
      5 C          -4.0560  -19.6447   20.7629 C.ar    1  UNL1       -0.0000
      6 C          -4.0024  -18.8513   22.0348 C.ar    1  UNL1       -0.0002
      7 C          -5.2736  -18.4087   22.6969 C.ar    1  UNL1       -0.0008
      8 C          -7.9639  -16.9462   23.3507 C.3     1  UNL1        0.0615
      9 C          -8.2867  -16.6316   24.7814 C.3     1  UNL1        0.0224
     10 C          -8.2743  -15.1403   24.9422 C.3     1  UNL1        0.0687
     11 N          -7.9439  -14.5332   23.6109 N.3     1  UNL1       -0.2973
     12 C          -7.7520  -15.6494   22.6273 C.3     1  UNL1        0.0725
     13 H          -7.0869  -13.9848   23.6837 H       1  UNL1        0.1232
     14 O          -9.0463  -19.2452   22.8093 O.3     1  UNL1       -0.4700
     15 F         -13.5034  -18.6029   25.4018 F       1  UNL1       -0.2016
     16 C         -12.6659  -18.3677   24.1798 C.ar    1  UNL1        0.1728
     17 C         -13.2194  -17.5761   23.0322 C.ar    1  UNL1        0.0641
     18 C         -12.3818  -17.3409   21.8102 C.ar    1  UNL1        0.1728
     19 F         -12.9353  -16.5494   20.6626 F       1  UNL1       -0.2016
     20 C         -10.9908  -17.8973   21.7359 C.ar    1  UNL1        0.2034
     21 F         -10.1532  -17.6621   20.5140 F       1  UNL1       -0.1985
     22 C         -10.4373  -18.6888   22.8836 C.ar    1  UNL1        0.1978
     23 C         -11.2749  -18.9240   24.1055 C.ar    1  UNL1        0.2034
     24 F         -11.1549  -19.3084   24.7935 F       1  UNL1       -0.1985
@<TRIPOS>BOND
     1    15    16    1
     2    16    17   ar
     3    17    18   ar
     4    18    19    1
     5    18    20   ar
     6    20    21    1
     7    20    22   ar
     8    22    14    1
     9     1    14    1
    10     1     2    1
    11     2     3   ar
    12     3     4   ar
    13     4     5   ar
    14     5     6   ar
    15     6     7   ar
    16     1     8    1
    17     8     9    1
    18     9    10    1
    19    10    11    1
    20    11    12    1
    21    22    23   ar
    22    23    24    1
    23    23    16   ar
    24     7     2   ar
    25    12     8    1
    26    11    13    1
@<TRIPOS>MOLECULE
*****
 24 26 0 0 0
SMALL
GASTEIGER

@<TRIPOS>ATOM
      1 C          -8.0046  -17.8646   22.6389 C.3     1  UNL1        0.1896
      2 C          -9.1025  -17.8947   21.6172 C.ar    1  UNL1        0.0172
      3 C          -9.2296  -19.0646   20.6871 C.ar    1  UNL1       -0.0008
      4 C         -10.3275  -19.0946   19.6654 C.ar    1  UNL1       -0.0002
      5 C         -11.2982  -17.9548   19.5739 C.ar    1  UNL1       -0.0000
      6 C         -11.1711  -16.7848   20.5040 C.ar    1  UNL1       -0.0002
      7 C         -10.0732  -16.7548   21.5257 C.ar    1  UNL1       -0.0008
      8 C          -7.8558  -16.6786   23.5452 C.3     1  UNL1        0.0615
      9 C          -8.4708  -16.5252   24.9047 C.3     1  UNL1        0.0224
     10 C          -8.0609  -15.1896   25.4508 C.3     1  UNL1        0.0687
     11 N          -7.1926  -14.5176   24.4288 N.3     1  UNL1       -0.2973
     12 C          -7.0658  -15.4379   23.2510 C.3     1  UNL1        0.0725
     13 H          -6.2709  -14.3334   24.8250 H       1  UNL1        0.1232
     14 O          -7.0556  -19.0205   22.7543 O.3     1  UNL1       -0.4700
     15 F          -2.1944  -17.1896   22.8811 F       1  UNL1       -0.2016
     16 C          -3.2550  -18.0139   22.2136 C.ar    1  UNL1        0.1728
     17 C          -2.9458  -18.7469   20.9420 C.ar    1  UNL1        0.0641
     18 C          -4.0064  -19.5712   20.2745 C.ar    1  UNL1        0.1728
     19 F          -3.6971  -20.3043   19.0029 F       1  UNL1       -0.2016
     20 C          -5.3764  -19.6624   20.8786 C.ar    1  UNL1        0.2034
     21 F          -6.4371  -20.4867   20.2111 F       1  UNL1       -0.1985
     22 C          -5.6857  -18.9293   22.1502 C.ar    1  UNL1        0.1978
     23 C          -4.6250  -18.1050   22.8177 C.ar    1  UNL1        0.2034
     24 F          -4.6040  -17.6591   23.4781 F       1  UNL1       -0.1985
@<TRIPOS>BOND
     1    15    16    1
     2    16    17   ar
     3    17    18   ar
     4    18    19    1
     5    18    20   ar
     6    20    21    1
     7    20    22   ar
     8    22    14    1
     9     1    14    1
    10     1     2    1
    11     2     3   ar
    12     3     4   ar
    13     4     5   ar
    14     5     6   ar
    15     6     7   ar
    16     1     8    1
    17     8     9    1
    18     9    10    1
    19    10    11    1
    20    11    12    1
    21    22    23   ar
    22    23    24    1
    23    23    16   ar
    24     7     2   ar
    25    12     8    1
    26    11    13    1
@<TRIPOS>MOLECULE
*****
 24 26 0 0 0
SMALL
GASTEIGER

@<TRIPOS>ATOM
      1 C          -7.5095  -17.9717   22.2106 C.3     1  UNL1        0.1896
      2 C          -6.2390  -18.6662   21.8191 C.ar    1  UNL1        0.0172
      3 C          -6.2119  -19.5557   20.6117 C.ar    1  UNL1       -0.0008
      4 C          -4.9413  -20.2503   20.2201 C.ar    1  UNL1       -0.0002
      5 C          -3.6979  -20.0553   21.0361 C.ar    1  UNL1       -0.0000
      6 C          -3.7250  -19.1658   22.2436 C.ar    1  UNL1       -0.0002
      7 C          -4.9955  -18.4713   22.6352 C.ar    1  UNL1       -0.0008
      8 C          -8.8114  -18.7162   22.1800 C.3     1  UNL1        0.0615
      9 C          -9.2967  -19.6867   23.2157 C.3     1  UNL1        0.0224
     10 C         -10.6417  -20.1912   22.7841 C.3     1  UNL1        0.0687
     11 N         -10.9878  -19.5325   21.4816 N.3     1  UNL1       -0.2973
     12 C          -9.8565  -18.6208   21.1083 C.3     1  UNL1        0.0725
     13 H         -11.8475  -18.9933   21.5841 H       1  UNL1        0.1232
     14 O          -7.4783  -16.5327   22.6328 O.3     1  UNL1       -0.4700
     15 F          -8.9798  -16.5736   27.6071 F       1  UNL1       -0.2016
     16 C          -7.9782  -16.1979   26.5555 C.ar    1  UNL1        0.1728
     17 C          -6.7259  -15.4670   26.9396 C.ar    1  UNL1        0.0641
     18 C          -5.7243  -15.0913   25.8880 C.ar    1  UNL1        0.1728
     19 F          -4.4720  -14.3605   26.2720 F       1  UNL1       -0.2016
     20 C          -5.9751  -15.4465   24.4524 C.ar    1  UNL1        0.2034
     21 F          -4.9736  -15.0709   23.4008 F       1  UNL1       -0.1985
     22 C          -7.2275  -16.1775   24.0684 C.ar    1  UNL1        0.1978
     23 C          -8.2290  -16.5531   25.1199 C.ar    1  UNL1        0.2034
     24 F          -8.9305  -16.9315   25.1065 F       1  UNL1       -0.1985
@<TRIPOS>BOND
     1    15    16    1
     2    16    17   ar
     3    17    18   ar
     4    18    19    1
     5    18    20   ar
     6    20    21    1
     7    20    22   ar
     8    22    14    1
     9     1    14    1
    10     1     2    1
    11     2     3   ar
    12     3     4   ar
    13     4     5   ar
    14     5     6   ar
    15     6     7   ar
    16     1     8    1
    17     8     9    1
    18     9    10    1
    19    10    11    1
    20    11    12    1
    21    22    23   ar
    22    23    24    1
    23    23    16   ar
    24     7     2   ar
    25    12     8    1
    26    11    13    1
@<TRIPOS>MOLECULE
*****
 24 26 0 0 0
SMALL
GASTEIGER

@<TRIPOS>ATOM
      1 C          -8.7549  -16.9871   22.1870 C.3     1  UNL1        0.1896
      2 C          -7.8571  -18.0912   21.7129 C.ar    1  UNL1        0.0172
      3 C          -6.5524  -18.3474   22.4073 C.ar    1  UNL1       -0.0008
      4 C          -5.6546  -19.4515   21.9332 C.ar    1  UNL1       -0.0002
      5 C          -6.0614  -20.2995   20.7647 C.ar    1  UNL1       -0.0000
      6 C          -7.3661  -20.0433   20.0702 C.ar    1  UNL1       -0.0002
      7 C          -8.2639  -18.9392   20.5443 C.ar    1  UNL1       -0.0008
      8 C         -10.2441  -17.1340   22.0819 C.3     1  UNL1        0.0615
      9 C         -11.1123  -17.9729   22.9719 C.3     1  UNL1        0.0224
     10 C         -12.5312  -17.8251   22.5083 C.3     1  UNL1        0.0687
     11 N         -12.5399  -16.8948   21.3317 N.3     1  UNL1       -0.2973
     12 C         -11.1262  -16.4676   21.0681 C.3     1  UNL1        0.0725
     13 H         -13.1150  -16.0785   21.5400 H       1  UNL1        0.1232
     14 O          -8.1637  -15.7362   22.7663 O.3     1  UNL1       -0.4700
     15 F          -8.9654  -16.6419   27.8197 F       1  UNL1       -0.2016
     16 C          -8.0697  -16.1792   26.7089 C.ar    1  UNL1        0.1728
     17 C          -6.6792  -15.7068   27.0142 C.ar    1  UNL1        0.0641
     18 C          -5.7835  -15.2441   25.9035 C.ar    1  UNL1        0.1728
     19 F          -4.3930  -14.7716   26.2088 F       1  UNL1       -0.2016
     20 C          -6.2783  -15.2539   24.4875 C.ar    1  UNL1        0.2034
     21 F          -5.3826  -14.7912   23.3768 F       1  UNL1       -0.1985
     22 C          -7.6689  -15.7264   24.1823 C.ar    1  UNL1        0.1978
     23 C          -8.5645  -16.1890   25.2929 C.ar    1  UNL1        0.2034
     24 F          -9.3113  -16.4663   25.3231 F       1  UNL1       -0.1985
@<TRIPOS>BOND
     1    15    16    1
     2    16    17   ar
     3    17    18   ar
     4    18    19    1
     5    18    20   ar
     6    20    21    1
     7    20    22   ar
     8    22    14    1
     9     1    14    1
    10     1     2    1
    11     2     3   ar
    12     3     4   ar
    13     4     5   ar
    14     5     6   ar
    15     6     7   ar
    16     1     8    1
    17     8     9    1
    18     9    10    1
    19    10    11    1
    20    11    12    1
    21    22    23   ar
    22    23    24    1
    23    23    16   ar
    24     7     2   ar
    25    12     8    1
    26    11    13    1
@<TRIPOS>MOLECULE
*****
 24 26 0 0 0
SMALL
GASTEIGER

@<TRIPOS>ATOM
      1 C          -7.7017  -17.8329   22.1260 C.3     1  UNL1        0.1896
      2 C          -6.4360  -18.5330   21.7285 C.ar    1  UNL1        0.0172
      3 C          -6.3607  -19.2603   20.4189 C.ar    1  UNL1       -0.0008
      4 C          -5.0950  -19.9603   20.0214 C.ar    1  UNL1       -0.0002
      5 C          -3.9046  -19.9330   20.9336 C.ar    1  UNL1       -0.0000
      6 C          -3.9799  -19.2056   22.2433 C.ar    1  UNL1       -0.0002
      7 C          -5.2456  -18.5056   22.6408 C.ar    1  UNL1       -0.0008
      8 C          -9.0132  -18.5578   22.0567 C.3     1  UNL1        0.0615
      9 C          -9.4186  -19.7296   22.9008 C.3     1  UNL1        0.0224
     10 C         -10.8054  -20.1340   22.4970 C.3     1  UNL1        0.0687
     11 N         -11.2572  -19.2122   21.4032 N.3     1  UNL1       -0.2973
     12 C         -10.1494  -18.2380   21.1311 C.3     1  UNL1        0.0725
     13 H         -12.0950  -18.7104   21.6974 H       1  UNL1        0.1232
     14 O          -7.6560  -16.4082   22.5926 O.3     1  UNL1       -0.4700
     15 F          -4.3886  -14.4859   26.1463 F       1  UNL1       -0.2016
     16 C          -5.6951  -15.1365   25.8001 C.ar    1  UNL1        0.1728
     17 C          -6.6742  -15.4766   26.8843 C.ar    1  UNL1        0.0641
     18 C          -7.9807  -16.1273   26.5380 C.ar    1  UNL1        0.1728
     19 F          -8.9598  -16.4674   27.6222 F       1  UNL1       -0.2016
     20 C          -8.3079  -16.4378   25.1075 C.ar    1  UNL1        0.2034
     21 F          -9.6143  -17.0884   24.7611 F       1  UNL1       -0.1985
     22 C          -7.3287  -16.0976   24.0232 C.ar    1  UNL1        0.1978
     23 C          -6.0224  -15.4470   24.3695 C.ar    1  UNL1        0.2034
     24 F          -5.3962  -15.2003   23.9423 F       1  UNL1       -0.1985
@<TRIPOS>BOND
     1    15    16    1
     2    16    17   ar
     3    17    18   ar
     4    18    19    1
     5    18    20   ar
     6    20    21    1
     7    20    22   ar
     8    22    14    1
     9     1    14    1
    10     1     2    1
    11     2     3   ar
    12     3     4   ar
    13     4     5   ar
    14     5     6   ar
    15     6     7   ar
    16     1     8    1
    17     8     9    1
    18     9    10    1
    19    10    11    1
    20    11    12    1
    21    22    23   ar
    22    23    24    1
    23    23    16   ar
    24     7     2   ar
    25    12     8    1
    26    11    13    1
@<TRIPOS>MOLECULE
*****
 24 26 0 0 0
SMALL
GASTEIGER

@<TRIPOS>ATOM
      1 C          -7.1158  -16.3033   23.4952 C.3     1  UNL1        0.1896
      2 C          -6.0783  -17.3145   23.1067 C.ar    1  UNL1        0.0172
      3 C          -4.6425  -17.0983   23.4831 C.ar    1  UNL1       -0.0008
      4 C          -3.6049  -18.1095   23.0946 C.ar    1  UNL1       -0.0002
      5 C          -4.0031  -19.3368   22.3297 C.ar    1  UNL1       -0.0000
      6 C          -5.4390  -19.5530   21.9533 C.ar    1  UNL1       -0.0002
      7 C          -6.4766  -18.5418   22.3418 C.ar    1  UNL1       -0.0008
      8 C          -7.2085  -15.8318   24.9162 C.3     1  UNL1        0.0615
      9 C          -8.4044  -15.9622   25.8122 C.3     1  UNL1        0.0224
     10 C          -8.0566  -15.3581   27.1404 C.3     1  UNL1        0.0687
     11 N          -6.6457  -14.8543   27.0653 N.3     1  UNL1       -0.2973
     12 C          -6.1215  -15.1471   25.6905 C.3     1  UNL1        0.0725
     13 H          -6.0714  -15.3278   27.7627 H       1  UNL1        0.1232
     14 O          -8.0607  -15.7636   22.4628 O.3     1  UNL1       -0.4700
     15 F         -11.5206  -19.4342   23.7099 F       1  UNL1       -0.2016
     16 C         -11.1321  -18.2405   22.8889 C.ar    1  UNL1        0.1728
     17 C         -12.0849  -17.6884   21.8704 C.ar    1  UNL1        0.0641
     18 C         -11.6963  -16.4947   21.0493 C.ar    1  UNL1        0.1728
     19 F         -12.6491  -15.9426   20.0308 F       1  UNL1       -0.2016
     20 C         -10.3549  -15.8531   21.2468 C.ar    1  UNL1        0.2034
     21 F          -9.9663  -14.6594   20.4258 F       1  UNL1       -0.1985
     22 C          -9.4021  -16.4052   22.2653 C.ar    1  UNL1        0.1978
     23 C          -9.7907  -17.5989   23.0863 C.ar    1  UNL1        0.2034
     24 F          -9.4278  -18.0198   23.6578 F       1  UNL1       -0.1985
@<TRIPOS>BOND
     1    15    16    1
     2    16    17   ar
     3    17    18   ar
     4    18    19    1
     5    18    20   ar
     6    20    21    1
     7    20    22   ar
     8    22    14    1
     9     1    14    1
    10     1     2    1
    11     2     3   ar
    12     3     4   ar
    13     4     5   ar
    14     5     6   ar
    15     6     7   ar
    16     1     8    1
    17     8     9    1
    18     9    10    1
    19    10    11    1
    20    11    12    1
    21    22    23   ar
    22    23    24    1
    23    23    16   ar
    24     7     2   ar
    25    12     8    1
    26    11    13    1
@<TRIPOS>MOLECULE
*****
 24 26 0 0 0
SMALL
GASTEIGER

@<TRIPOS>ATOM
      1 C          -9.7811  -17.4350   22.2820 C.3     1  UNL1        0.1896
      2 C          -9.3445  -18.3398   21.1681 C.ar    1  UNL1        0.0172
      3 C          -7.9106  -18.7688   21.0686 C.ar    1  UNL1       -0.0008
      4 C          -7.4741  -19.6736   19.9547 C.ar    1  UNL1       -0.0002
      5 C          -8.4713  -20.1494   18.9403 C.ar    1  UNL1       -0.0000
      6 C          -9.9053  -19.7204   19.0398 C.ar    1  UNL1       -0.0002
      7 C         -10.3419  -18.8156   20.1537 C.ar    1  UNL1       -0.0008
      8 C         -10.9298  -17.8296   23.1622 C.3     1  UNL1        0.0615
      9 C         -12.3704  -17.4723   22.9450 C.3     1  UNL1        0.0224
     10 C         -13.1705  -18.0726   24.0627 C.3     1  UNL1        0.0687
     11 N         -12.2245  -18.8010   24.9708 N.3     1  UNL1       -0.2973
     12 C         -10.8396  -18.6508   24.4143 C.3     1  UNL1        0.0725
     13 H         -12.4757  -19.7887   25.0121 H       1  UNL1        0.1232
     14 O          -9.0690  -16.1357   22.5157 O.3     1  UNL1       -0.4700
     15 F          -4.3519  -16.5687   24.6515 F       1  UNL1       -0.2016
     16 C          -5.8007  -16.1977   24.7662 C.ar    1  UNL1        0.1728
     17 C          -6.3399  -15.6720   26.0635 C.ar    1  UNL1        0.0641
     18 C          -7.7888  -15.3009   26.1783 C.ar    1  UNL1        0.1728
     19 F          -8.3279  -14.7753   27.4756 F       1  UNL1       -0.2016
     20 C          -8.6985  -15.4555   24.9957 C.ar    1  UNL1        0.2034
     21 F         -10.1473  -15.0845   25.1104 F       1  UNL1       -0.1985
     22 C          -8.1593  -15.9812   23.6983 C.ar    1  UNL1        0.1978
     23 C          -6.7105  -16.3522   23.5836 C.ar    1  UNL1        0.2034
     24 F          -6.2573  -16.6393   22.9939 F       1  UNL1       -0.1985
@<TRIPOS>BOND
     1    15    16    1
     2    16    17   ar
     3    17    18   ar
     4    18    19    1
     5    18    20   ar
     6    20    21    1
     7    20    22   ar
     8    22    14    1
     9     1    14    1
    10     1     2    1
    11     2     3   ar
    12     3     4   ar
    13     4     5   ar
    14     5     6   ar
    15     6     7   ar
    16     1     8    1
    17     8     9    1
    18     9    10    1
    19    10    11    1
    20    11    12    1
    21    22    23   ar
    22    23    24    1
    23    23    16   ar
    24     7     2   ar
    25    12     8    1
    26    11    13    1
