@<TRIPOS>MOLECULE
*****
 28 31 0 0 0
SMALL
GASTEIGER

@<TRIPOS>ATOM
      1 C          -8.4808  -17.1366   23.9889 C.2     1  UNL1       -0.0246
      2 C          -7.3249  -17.2084   23.0357 C.2     1  UNL1       -0.0421
      3 C          -6.1699  -16.4760   23.6518 C.3     1  UNL1        0.0480
      4 C          -6.6121  -15.9515   24.9857 C.ar    1  UNL1       -0.0184
      5 C          -5.8986  -15.1549   26.0376 C.ar    1  UNL1       -0.0040
      6 C          -6.6135  -14.7666   27.2978 C.ar    1  UNL1       -0.0003
      7 C          -8.0417  -15.1749   27.5062 C.ar    1  UNL1       -0.0000
      8 C          -8.7551  -15.9715   26.4543 C.ar    1  UNL1       -0.0006
      9 C          -8.0403  -16.3598   25.1941 C.ar    1  UNL1       -0.0079
     10 C         -10.3549  -18.7814   24.7191 C.3     1  UNL1        0.0111
     11 C          -9.8389  -17.7364   23.7746 C.3     1  UNL1        0.0634
     12 C         -10.6811  -17.2912   22.6160 C.ar    1  UNL1        0.0818
     13 C         -11.9729  -17.9916   22.3149 C.ar    1  UNL1        0.1139
     14 N         -12.8151  -17.5464   21.1562 N.ar    1  UNL1       -0.2394
     15 C         -12.3655  -16.4008   20.2986 C.ar    1  UNL1        0.1195
     16 C         -11.0736  -15.7004   20.5996 C.ar    1  UNL1        0.1191
     17 N         -10.2315  -16.1456   21.7583 N.ar    1  UNL1       -0.2446
     18 C          -7.3241  -17.8926   21.7008 C.3     1  UNL1        0.0394
     19 C          -7.2568  -19.3891   21.6250 C.3     1  UNL1        0.0768
     20 N          -5.9426  -20.0693   21.3795 N.3     1  UNL1       -0.2674
     21 C          -5.8330  -21.1309   20.3253 C.3     1  UNL1        0.0899
     22 C          -4.7381  -19.6880   22.1880 C.3     1  UNL1        0.0993
     23 C          -3.7479  -18.7036   21.6400 C.ar    1  UNL1       -0.0031
     24 C          -3.3712  -18.7476   20.1887 C.ar    1  UNL1        0.0178
     25 C          -2.3810  -17.7632   19.6407 C.ar    1  UNL1        0.0986
     26 N          -1.7674  -16.7348   20.5439 N.ar    1  UNL1       -0.2423
     27 C          -2.1440  -16.6908   21.9951 C.ar    1  UNL1        0.0986
     28 C          -3.1343  -17.6752   22.5432 C.ar    1  UNL1        0.0178
@<TRIPOS>BOND
     1    11    10    1
     2    11     1    1
     3     1     2    2
     4     2    18    1
     5    18    19    1
     6    19    20    1
     7    20    21    1
     8    20    22    1
     9    22    23    1
    10    23    24   ar
    11    24    25   ar
    12    25    26   ar
    13    26    27   ar
    14    27    28   ar
    15     2     3    1
    16     3     4    1
    17     4     5   ar
    18     5     6   ar
    19     6     7   ar
    20     7     8   ar
    21     8     9   ar
    22    11    12    1
    23    12    13   ar
    24    13    14   ar
    25    14    15   ar
    26    15    16   ar
    27    16    17   ar
    28     9     1    1
    29    17    12   ar
    30    28    23   ar
    31     9     4   ar
@<TRIPOS>MOLECULE
*****
 28 31 0 0 0
SMALL
GASTEIGER

@<TRIPOS>ATOM
      1 C          -8.7104  -17.0746   22.4937 C.2     1  UNL1       -0.0246
      2 C          -8.1327  -18.3809   22.0356 C.2     1  UNL1       -0.0421
      3 C          -9.2705  -19.2952   21.6902 C.3     1  UNL1        0.0480
      4 C         -10.5515  -18.5540   21.9348 C.ar    1  UNL1       -0.0184
      5 C         -11.9883  -18.9515   21.7695 C.ar    1  UNL1       -0.0040
      6 C         -13.0790  -17.9766   22.1008 C.ar    1  UNL1       -0.0003
      7 C         -12.7329  -16.6042   22.5975 C.ar    1  UNL1       -0.0000
      8 C         -11.2960  -16.2067   22.7628 C.ar    1  UNL1       -0.0006
      9 C         -10.2053  -17.1816   22.4314 C.ar    1  UNL1       -0.0079
     10 C          -7.5658  -14.8078   21.9444 C.3     1  UNL1        0.0111
     11 C          -7.9302  -15.8724   22.9364 C.3     1  UNL1        0.0634
     12 C          -7.5145  -15.7347   24.3710 C.ar    1  UNL1        0.0818
     13 C          -6.0626  -15.5947   24.7210 C.ar    1  UNL1        0.1139
     14 N          -5.6469  -15.4570   26.1557 N.ar    1  UNL1       -0.2394
     15 C          -6.6830  -15.4591   27.2403 C.ar    1  UNL1        0.1195
     16 C          -8.1349  -15.5990   26.8904 C.ar    1  UNL1        0.1191
     17 N          -8.5506  -15.7368   25.4557 N.ar    1  UNL1       -0.2446
     18 C          -6.6733  -18.7143   21.9398 C.3     1  UNL1        0.0394
     19 C          -6.0627  -19.0328   20.6072 C.3     1  UNL1        0.0768
     20 N          -5.3431  -20.3330   20.4035 N.3     1  UNL1       -0.2674
     21 C          -6.1228  -21.5935   20.1722 C.3     1  UNL1        0.0899
     22 C          -3.8439  -20.3729   20.4309 C.3     1  UNL1        0.0993
     23 C          -3.0633  -19.1057   20.6175 C.ar    1  UNL1       -0.0031
     24 C          -2.9502  -18.4881   21.9797 C.ar    1  UNL1        0.0178
     25 C          -2.1695  -17.2209   22.1662 C.ar    1  UNL1        0.0986
     26 N          -1.5019  -16.5713   20.9905 N.ar    1  UNL1       -0.2423
     27 C          -1.6150  -17.1890   19.6283 C.ar    1  UNL1        0.0986
     28 C          -2.3956  -18.4561   19.4418 C.ar    1  UNL1        0.0178
@<TRIPOS>BOND
     1    11    10    1
     2    11     1    1
     3     1     2    2
     4     2    18    1
     5    18    19    1
     6    19    20    1
     7    20    21    1
     8    20    22    1
     9    22    23    1
    10    23    24   ar
    11    24    25   ar
    12    25    26   ar
    13    26    27   ar
    14    27    28   ar
    15     2     3    1
    16     3     4    1
    17     4     5   ar
    18     5     6   ar
    19     6     7   ar
    20     7     8   ar
    21     8     9   ar
    22    11    12    1
    23    12    13   ar
    24    13    14   ar
    25    14    15   ar
    26    15    16   ar
    27    16    17   ar
    28     9     1    1
    29    17    12   ar
    30    28    23   ar
    31     9     4   ar
@<TRIPOS>MOLECULE
*****
 28 31 0 0 0
SMALL
GASTEIGER

@<TRIPOS>ATOM
      1 C          -9.7446  -18.5930   22.9560 C.2     1  UNL1       -0.0246
      2 C          -8.7944  -19.2863   22.0252 C.2     1  UNL1       -0.0421
      3 C          -9.1748  -18.9240   20.6202 C.3     1  UNL1        0.0480
      4 C         -10.3601  -18.0067   20.6827 C.ar    1  UNL1       -0.0184
      5 C         -11.1641  -17.3314   19.6116 C.ar    1  UNL1       -0.0040
      6 C         -12.3204  -16.4515   19.9841 C.ar    1  UNL1       -0.0003
      7 C         -12.6725  -16.2469   21.4278 C.ar    1  UNL1       -0.0000
      8 C         -11.8685  -16.9223   22.4989 C.ar    1  UNL1       -0.0006
      9 C         -10.7122  -17.8022   22.1264 C.ar    1  UNL1       -0.0079
     10 C         -10.3038  -19.8776   25.1440 C.3     1  UNL1        0.0111
     11 C          -9.7298  -18.6759   24.4537 C.3     1  UNL1        0.0634
     12 C          -9.1411  -17.5572   25.2610 C.ar    1  UNL1        0.0818
     13 C          -8.6925  -16.2973   24.5817 C.ar    1  UNL1        0.1139
     14 N          -8.1038  -15.1787   25.3892 N.ar    1  UNL1       -0.2394
     15 C          -7.9636  -15.3198   26.8759 C.ar    1  UNL1        0.1195
     16 C          -8.4121  -16.5797   27.5553 C.ar    1  UNL1        0.1191
     17 N          -9.0008  -17.6984   26.7478 N.ar    1  UNL1       -0.2446
     18 C          -7.6626  -20.1842   22.4285 C.3     1  UNL1        0.0394
     19 C          -6.3346  -20.0723   21.7403 C.3     1  UNL1        0.0768
     20 N          -5.2935  -19.1301   22.2680 N.3     1  UNL1       -0.2674
     21 C          -5.7014  -17.8018   22.8331 C.3     1  UNL1        0.0899
     22 C          -3.8445  -19.5161   22.2305 C.3     1  UNL1        0.0993
     23 C          -2.9595  -19.0023   21.1338 C.ar    1  UNL1       -0.0031
     24 C          -1.6242  -18.4049   21.4654 C.ar    1  UNL1        0.0178
     25 C          -0.7393  -17.8910   20.3687 C.ar    1  UNL1        0.0986
     26 N          -1.1896  -17.9745   18.9404 N.ar    1  UNL1       -0.2423
     27 C          -2.5249  -18.5719   18.6087 C.ar    1  UNL1        0.0986
     28 C          -3.4099  -19.0858   19.7054 C.ar    1  UNL1        0.0178
@<TRIPOS>BOND
     1    11    10    1
     2    11     1    1
     3     1     2    2
     4     2    18    1
     5    18    19    1
     6    19    20    1
     7    20    21    1
     8    20    22    1
     9    22    23    1
    10    23    24   ar
    11    24    25   ar
    12    25    26   ar
    13    26    27   ar
    14    27    28   ar
    15     2     3    1
    16     3     4    1
    17     4     5   ar
    18     5     6   ar
    19     6     7   ar
    20     7     8   ar
    21     8     9   ar
    22    11    12    1
    23    12    13   ar
    24    13    14   ar
    25    14    15   ar
    26    15    16   ar
    27    16    17   ar
    28     9     1    1
    29    17    12   ar
    30    28    23   ar
    31     9     4   ar
@<TRIPOS>MOLECULE
*****
 28 31 0 0 0
SMALL
GASTEIGER

@<TRIPOS>ATOM
      1 C          -9.3652  -17.7604   23.1835 C.2     1  UNL1       -0.0246
      2 C          -8.4205  -18.4101   22.2163 C.2     1  UNL1       -0.0421
      3 C          -8.9982  -18.2699   20.8391 C.3     1  UNL1        0.0480
      4 C         -10.2998  -17.5336   20.9551 C.ar    1  UNL1       -0.0184
      5 C         -11.3078  -17.1091   19.9286 C.ar    1  UNL1       -0.0040
      6 C         -12.5427  -16.3698   20.3511 C.ar    1  UNL1       -0.0003
      7 C         -12.7695  -16.0549   21.8000 C.ar    1  UNL1       -0.0000
      8 C         -11.7615  -16.4793   22.8265 C.ar    1  UNL1       -0.0006
      9 C         -10.5267  -17.2187   22.4040 C.ar    1  UNL1       -0.0079
     10 C         -10.0136  -18.5187   25.5824 C.3     1  UNL1        0.0111
     11 C          -9.1808  -17.6685   24.6692 C.3     1  UNL1        0.0634
     12 C          -8.1636  -16.7266   25.2420 C.ar    1  UNL1        0.0818
     13 C          -8.1718  -16.4155   26.7093 C.ar    1  UNL1        0.1139
     14 N          -7.1546  -15.4736   27.2820 N.ar    1  UNL1       -0.2394
     15 C          -6.1291  -14.8427   26.3874 C.ar    1  UNL1        0.1195
     16 C          -6.1208  -15.1538   24.9200 C.ar    1  UNL1        0.1191
     17 N          -7.1381  -16.0957   24.3473 N.ar    1  UNL1       -0.2446
     18 C          -7.1256  -19.0821   22.5650 C.3     1  UNL1        0.0394
     19 C          -6.7778  -20.4052   21.9501 C.3     1  UNL1        0.0768
     20 N          -5.9985  -20.4555   20.6694 N.3     1  UNL1       -0.2674
     21 C          -5.8524  -21.7529   19.9308 C.3     1  UNL1        0.0899
     22 C          -5.3654  -19.2084   20.1273 C.3     1  UNL1        0.0993
     23 C          -3.9063  -18.9472   20.3569 C.ar    1  UNL1       -0.0031
     24 C          -3.0312  -18.5241   19.2145 C.ar    1  UNL1        0.0178
     25 C          -1.5721  -18.2629   19.4441 C.ar    1  UNL1        0.0986
     26 N          -0.9880  -18.4249   20.8162 N.ar    1  UNL1       -0.2423
     27 C          -1.8630  -18.8481   21.9586 C.ar    1  UNL1        0.0986
     28 C          -3.3222  -19.1093   21.7290 C.ar    1  UNL1        0.0178
@<TRIPOS>BOND
     1    11    10    1
     2    11     1    1
     3     1     2    2
     4     2    18    1
     5    18    19    1
     6    19    20    1
     7    20    21    1
     8    20    22    1
     9    22    23    1
    10    23    24   ar
    11    24    25   ar
    12    25    26   ar
    13    26    27   ar
    14    27    28   ar
    15     2     3    1
    16     3     4    1
    17     4     5   ar
    18     5     6   ar
    19     6     7   ar
    20     7     8   ar
    21     8     9   ar
    22    11    12    1
    23    12    13   ar
    24    13    14   ar
    25    14    15   ar
    26    15    16   ar
    27    16    17   ar
    28     9     1    1
    29    17    12   ar
    30    28    23   ar
    31     9     4   ar
@<TRIPOS>MOLECULE
*****
 28 31 0 0 0
SMALL
GASTEIGER

@<TRIPOS>ATOM
      1 C          -9.0032  -17.5873   24.0653 C.2     1  UNL1       -0.0246
      2 C          -8.4676  -16.9129   22.8373 C.2     1  UNL1       -0.0421
      3 C          -7.5480  -15.8124   23.2767 C.3     1  UNL1        0.0480
      4 C          -7.5152  -15.8067   24.7763 C.ar    1  UNL1       -0.0184
      5 C          -6.7826  -14.9443   25.7610 C.ar    1  UNL1       -0.0040
      6 C          -6.9494  -15.1790   27.2330 C.ar    1  UNL1       -0.0003
      7 C          -7.8488  -16.2760   27.7205 C.ar    1  UNL1       -0.0000
      8 C          -8.5814  -17.1383   26.7358 C.ar    1  UNL1       -0.0006
      9 C          -8.4146  -16.9037   25.2638 C.ar    1  UNL1       -0.0079
     10 C          -9.4374  -20.1473   24.1580 C.3     1  UNL1        0.0111
     11 C          -9.9596  -18.7426   24.0906 C.3     1  UNL1        0.0634
     12 C         -11.4381  -18.4935   24.0486 C.ar    1  UNL1        0.0818
     13 C         -12.2917  -18.8434   25.2314 C.ar    1  UNL1        0.1139
     14 N         -13.7702  -18.5942   25.1893 N.ar    1  UNL1       -0.2394
     15 C         -14.3953  -17.9951   23.9644 C.ar    1  UNL1        0.1195
     16 C         -13.5418  -17.6452   22.7816 C.ar    1  UNL1        0.1191
     17 N         -12.0632  -17.8943   22.8237 N.ar    1  UNL1       -0.2446
     18 C          -8.7943  -17.2753   21.4188 C.3     1  UNL1        0.0394
     19 C          -9.0763  -18.7030   21.0554 C.3     1  UNL1        0.0768
     20 N          -7.9888  -19.5583   20.4761 N.3     1  UNL1       -0.2674
     21 C          -8.0274  -19.9405   19.0260 C.3     1  UNL1        0.0899
     22 C          -6.8626  -20.0314   21.3466 C.3     1  UNL1        0.0993
     23 C          -5.5511  -19.3035   21.3380 C.ar    1  UNL1       -0.0031
     24 C          -4.7270  -19.2577   20.0856 C.ar    1  UNL1        0.0178
     25 C          -3.4155  -18.5297   20.0769 C.ar    1  UNL1        0.0986
     26 N          -2.9282  -17.8476   21.3207 N.ar    1  UNL1       -0.2423
     27 C          -3.7523  -17.8933   22.5732 C.ar    1  UNL1        0.0986
     28 C          -5.0638  -18.6213   22.5818 C.ar    1  UNL1        0.0178
@<TRIPOS>BOND
     1    11    10    1
     2    11     1    1
     3     1     2    2
     4     2    18    1
     5    18    19    1
     6    19    20    1
     7    20    21    1
     8    20    22    1
     9    22    23    1
    10    23    24   ar
    11    24    25   ar
    12    25    26   ar
    13    26    27   ar
    14    27    28   ar
    15     2     3    1
    16     3     4    1
    17     4     5   ar
    18     5     6   ar
    19     6     7   ar
    20     7     8   ar
    21     8     9   ar
    22    11    12    1
    23    12    13   ar
    24    13    14   ar
    25    14    15   ar
    26    15    16   ar
    27    16    17   ar
    28     9     1    1
    29    17    12   ar
    30    28    23   ar
    31     9     4   ar
@<TRIPOS>MOLECULE
*****
 28 31 0 0 0
SMALL
GASTEIGER

@<TRIPOS>ATOM
      1 C          -8.1445  -16.5128   23.5637 C.2     1  UNL1       -0.0246
      2 C          -6.8268  -17.0069   23.0445 C.2     1  UNL1       -0.0421
      3 C          -5.7925  -16.7695   24.1045 C.3     1  UNL1        0.0480
      4 C          -6.4709  -16.1286   25.2789 C.ar    1  UNL1       -0.0184
      5 C          -5.9528  -15.6690   26.6094 C.ar    1  UNL1       -0.0040
      6 C          -6.8883  -15.0508   27.6056 C.ar    1  UNL1       -0.0003
      7 C          -8.3419  -14.8922   27.2714 C.ar    1  UNL1       -0.0000
      8 C          -8.8601  -15.3518   25.9408 C.ar    1  UNL1       -0.0006
      9 C          -7.9245  -15.9700   24.9446 C.ar    1  UNL1       -0.0079
     10 C          -9.5991  -15.8443   21.5174 C.3     1  UNL1        0.0111
     11 C          -9.4525  -16.5542   22.8307 C.3     1  UNL1        0.0634
     12 C         -10.6139  -17.3055   23.4108 C.ar    1  UNL1        0.0818
     13 C         -10.3779  -18.3830   24.4273 C.ar    1  UNL1        0.1139
     14 N         -11.5394  -19.1342   25.0073 N.ar    1  UNL1       -0.2394
     15 C         -12.9369  -18.8080   24.5710 C.ar    1  UNL1        0.1195
     16 C         -13.1730  -17.7305   23.5545 C.ar    1  UNL1        0.1191
     17 N         -12.0115  -16.9793   22.9744 N.ar    1  UNL1       -0.2446
     18 C          -6.5858  -17.6292   21.7011 C.3     1  UNL1        0.0394
     19 C          -6.5323  -19.1220   21.5647 C.3     1  UNL1        0.0768
     20 N          -5.2250  -19.8035   21.2882 N.3     1  UNL1       -0.2674
     21 C          -5.1226  -20.8075   20.1784 C.3     1  UNL1        0.0899
     22 C          -4.0202  -19.4812   22.1215 C.3     1  UNL1        0.0993
     23 C          -2.9524  -18.5784   21.5785 C.ar    1  UNL1       -0.0031
     24 C          -2.8424  -17.1660   22.0715 C.ar    1  UNL1        0.0178
     25 C          -1.7746  -16.2632   21.5286 C.ar    1  UNL1        0.0986
     26 N          -0.8170  -16.7727   20.4926 N.ar    1  UNL1       -0.2423
     27 C          -0.9271  -18.1850   19.9996 C.ar    1  UNL1        0.0986
     28 C          -1.9948  -19.0879   20.5426 C.ar    1  UNL1        0.0178
@<TRIPOS>BOND
     1    11    10    1
     2    11     1    1
     3     1     2    2
     4     2    18    1
     5    18    19    1
     6    19    20    1
     7    20    21    1
     8    20    22    1
     9    22    23    1
    10    23    24   ar
    11    24    25   ar
    12    25    26   ar
    13    26    27   ar
    14    27    28   ar
    15     2     3    1
    16     3     4    1
    17     4     5   ar
    18     5     6   ar
    19     6     7   ar
    20     7     8   ar
    21     8     9   ar
    22    11    12    1
    23    12    13   ar
    24    13    14   ar
    25    14    15   ar
    26    15    16   ar
    27    16    17   ar
    28     9     1    1
    29    17    12   ar
    30    28    23   ar
    31     9     4   ar
@<TRIPOS>MOLECULE
*****
 28 31 0 0 0
SMALL
GASTEIGER

@<TRIPOS>ATOM
      1 C           3.8466   -1.8076   19.1679 C.2     1  UNL1       -0.0246
      2 C           4.8372   -1.1391   18.2613 C.2     1  UNL1       -0.0421
      3 C           4.3063    0.2209   17.9172 C.3     1  UNL1        0.0480
      4 C           2.9877    0.3930   18.6111 C.ar    1  UNL1       -0.0184
      5 C           2.0089    1.5294   18.6389 C.ar    1  UNL1       -0.0040
      6 C           0.7461    1.4120   19.4397 C.ar    1  UNL1       -0.0003
      7 C           0.4619    0.1583   20.2127 C.ar    1  UNL1       -0.0000
      8 C           1.4407   -0.9780   20.1849 C.ar    1  UNL1       -0.0006
      9 C           2.7035   -0.8606   19.3841 C.ar    1  UNL1       -0.0079
     10 C           3.2525   -4.3366   19.1287 C.3     1  UNL1        0.0111
     11 C           3.9763   -3.1817   19.7553 C.3     1  UNL1        0.0634
     12 C           4.8296   -3.4011   20.9691 C.ar    1  UNL1        0.0818
     13 C           6.2042   -3.9839   20.8243 C.ar    1  UNL1        0.1139
     14 N           7.0575   -4.2032   22.0383 N.ar    1  UNL1       -0.2394
     15 C           6.5364   -3.8398   23.3971 C.ar    1  UNL1        0.1195
     16 C           5.1618   -3.2570   23.5419 C.ar    1  UNL1        0.1191
     17 N           4.3085   -3.0376   22.3280 N.ar    1  UNL1       -0.2446
     18 C           6.1314   -1.7274   17.7829 C.3     1  UNL1        0.0394
     19 C           7.4147   -1.3828   18.4789 C.3     1  UNL1        0.0768
     20 N           7.7080    0.0409   18.8494 N.3     1  UNL1       -0.2674
     21 C           8.0975    1.0270   17.7883 C.3     1  UNL1        0.0899
     22 C           7.6118    0.4784   20.2809 C.3     1  UNL1        0.0993
     23 C           6.3226    1.0325   20.8108 C.ar    1  UNL1       -0.0031
     24 C           5.4862    0.2171   21.7519 C.ar    1  UNL1        0.0178
     25 C           4.1970    0.7713   22.2818 C.ar    1  UNL1        0.0986
     26 N           3.7441    2.1409   21.8706 N.ar    1  UNL1       -0.2423
     27 C           4.5804    2.9563   20.9295 C.ar    1  UNL1        0.0986
     28 C           5.8696    2.4021   20.3996 C.ar    1  UNL1        0.0178
@<TRIPOS>BOND
     1    11    10    1
     2    11     1    1
     3     1     2    2
     4     2    18    1
     5    18    19    1
     6    19    20    1
     7    20    21    1
     8    20    22    1
     9    22    23    1
    10    23    24   ar
    11    24    25   ar
    12    25    26   ar
    13    26    27   ar
    14    27    28   ar
    15     2     3    1
    16     3     4    1
    17     4     5   ar
    18     5     6   ar
    19     6     7   ar
    20     7     8   ar
    21     8     9   ar
    22    11    12    1
    23    12    13   ar
    24    13    14   ar
    25    14    15   ar
    26    15    16   ar
    27    16    17   ar
    28     9     1    1
    29    17    12   ar
    30    28    23   ar
    31     9     4   ar
@<TRIPOS>MOLECULE
*****
 28 31 0 0 0
SMALL
GASTEIGER

@<TRIPOS>ATOM
      1 C           3.9533   -2.0763   19.3401 C.2     1  UNL1       -0.0246
      2 C           4.9338   -1.5653   18.3264 C.2     1  UNL1       -0.0421
      3 C           4.4093   -0.2673   17.7876 C.3     1  UNL1        0.0480
      4 C           3.1047    0.0238   18.4682 C.ar    1  UNL1       -0.0184
      5 C           2.1370    1.1625   18.3382 C.ar    1  UNL1       -0.0040
      6 C           0.8875    1.1831   19.1678 C.ar    1  UNL1       -0.0003
      7 C           0.6056    0.0651   20.1273 C.ar    1  UNL1       -0.0000
      8 C           1.5733   -1.0735   20.2573 C.ar    1  UNL1       -0.0006
      9 C           2.8229   -1.0942   19.4277 C.ar    1  UNL1       -0.0079
     10 C           3.5432   -4.6314   19.5712 C.3     1  UNL1        0.0111
     11 C           4.0808   -3.3464   20.1279 C.3     1  UNL1        0.0634
     12 C           4.7459   -3.3316   21.4722 C.ar    1  UNL1        0.0818
     13 C           4.2053   -2.4601   22.5669 C.ar    1  UNL1        0.1139
     14 N           4.8704   -2.4453   23.9113 N.ar    1  UNL1       -0.2394
     15 C           6.0760   -3.3021   24.1611 C.ar    1  UNL1        0.1195
     16 C           6.6166   -4.1737   23.0664 C.ar    1  UNL1        0.1191
     17 N           5.9515   -4.1884   21.7221 N.ar    1  UNL1       -0.2446
     18 C           6.2140   -2.2346   17.9226 C.3     1  UNL1        0.0394
     19 C           7.3807   -2.2526   18.8650 C.3     1  UNL1        0.0768
     20 N           7.7617   -1.0081   19.6107 N.3     1  UNL1       -0.2674
     21 C           7.4526   -0.8859   21.0735 C.3     1  UNL1        0.0899
     22 C           8.4519    0.1142   18.8937 C.3     1  UNL1        0.0993
     23 C           7.6436    1.1840   18.2213 C.ar    1  UNL1       -0.0031
     24 C           7.5887    1.2530   16.7239 C.ar    1  UNL1        0.0178
     25 C           6.7804    2.3228   16.0515 C.ar    1  UNL1        0.0986
     26 N           6.0271    3.3237   16.8764 N.ar    1  UNL1       -0.2423
     27 C           6.0820    3.2548   18.3738 C.ar    1  UNL1        0.0986
     28 C           6.8903    2.1850   19.0463 C.ar    1  UNL1        0.0178
@<TRIPOS>BOND
     1    11    10    1
     2    11     1    1
     3     1     2    2
     4     2    18    1
     5    18    19    1
     6    19    20    1
     7    20    21    1
     8    20    22    1
     9    22    23    1
    10    23    24   ar
    11    24    25   ar
    12    25    26   ar
    13    26    27   ar
    14    27    28   ar
    15     2     3    1
    16     3     4    1
    17     4     5   ar
    18     5     6   ar
    19     6     7   ar
    20     7     8   ar
    21     8     9   ar
    22    11    12    1
    23    12    13   ar
    24    13    14   ar
    25    14    15   ar
    26    15    16   ar
    27    16    17   ar
    28     9     1    1
    29    17    12   ar
    30    28    23   ar
    31     9     4   ar
@<TRIPOS>MOLECULE
*****
 28 31 0 0 0
SMALL
GASTEIGER

@<TRIPOS>ATOM
      1 C           3.8952   -0.8256   21.7773 C.2     1  UNL1       -0.0246
      2 C           2.5144   -0.5090   21.2842 C.2     1  UNL1       -0.0421
      3 C           2.1669   -1.4988   20.2119 C.3     1  UNL1        0.0480
      4 C           3.3330   -2.4270   20.0424 C.ar    1  UNL1       -0.0184
      5 C           3.5601   -3.5973   19.1321 C.ar    1  UNL1       -0.0040
      6 C           4.8554   -4.3516   19.1892 C.ar    1  UNL1       -0.0003
      7 C           5.9235   -3.9355   20.1566 C.ar    1  UNL1       -0.0000
      8 C           5.6964   -2.7652   21.0670 C.ar    1  UNL1       -0.0006
      9 C           4.4011   -2.0110   21.0098 C.ar    1  UNL1       -0.0079
     10 C           5.4907    1.0960   22.4929 C.3     1  UNL1        0.0111
     11 C           4.6395   -0.0865   22.8496 C.3     1  UNL1        0.0634
     12 C           4.5326   -0.5299   24.2785 C.ar    1  UNL1        0.0818
     13 C           5.4858   -1.5541   24.8194 C.ar    1  UNL1        0.1139
     14 N           5.3788   -1.9974   26.2484 N.ar    1  UNL1       -0.2394
     15 C           4.3188   -1.4166   27.1365 C.ar    1  UNL1        0.1195
     16 C           3.3656   -0.3924   26.5957 C.ar    1  UNL1        0.1191
     17 N           3.4725    0.0509   25.1668 N.ar    1  UNL1       -0.2446
     18 C           1.6354    0.6022   21.7768 C.3     1  UNL1        0.0394
     19 C           1.8522    2.0032   21.2869 C.3     1  UNL1        0.0768
     20 N           2.0777    2.2606   19.8265 N.3     1  UNL1       -0.2674
     21 C           0.9070    2.3784   18.8961 C.3     1  UNL1        0.0899
     22 C           3.4740    2.4004   19.2964 C.3     1  UNL1        0.0993
     23 C           4.1375    1.2399   18.6159 C.ar    1  UNL1       -0.0031
     24 C           3.3745    0.4188   17.6191 C.ar    1  UNL1        0.0178
     25 C           4.0380   -0.7416   16.9386 C.ar    1  UNL1        0.0986
     26 N           5.4645   -1.0809   17.2547 N.ar    1  UNL1       -0.2423
     27 C           6.2274   -0.2598   18.2514 C.ar    1  UNL1        0.0986
     28 C           5.5640    0.9006   18.9320 C.ar    1  UNL1        0.0178
@<TRIPOS>BOND
     1    11    10    1
     2    11     1    1
     3     1     2    2
     4     2    18    1
     5    18    19    1
     6    19    20    1
     7    20    21    1
     8    20    22    1
     9    22    23    1
    10    23    24   ar
    11    24    25   ar
    12    25    26   ar
    13    26    27   ar
    14    27    28   ar
    15     2     3    1
    16     3     4    1
    17     4     5   ar
    18     5     6   ar
    19     6     7   ar
    20     7     8   ar
    21     8     9   ar
    22    11    12    1
    23    12    13   ar
    24    13    14   ar
    25    14    15   ar
    26    15    16   ar
    27    16    17   ar
    28     9     1    1
    29    17    12   ar
    30    28    23   ar
    31     9     4   ar
