@<TRIPOS>MOLECULE
*****
 39 44 0 0 0
SMALL
GASTEIGER

@<TRIPOS>ATOM
      1 C           5.5000   -0.1885   19.4427 C.ar    1  UNL1        0.1319
      2 C           6.6970    0.4055   18.7614 C.ar    1  UNL1        0.0343
      3 C           8.0227   -0.2930   18.8304 C.ar    1  UNL1        0.0046
      4 C           8.1512   -1.5854   19.5807 C.ar    1  UNL1        0.0239
      5 C           6.9541   -2.1794   20.2620 C.ar    1  UNL1        0.1358
      6 N           5.6285   -1.4809   20.1930 N.ar    1  UNL1       -0.2261
      7 C           3.5835   -0.8234   17.2237 C.3     1  UNL1        0.0233
      8 C           3.2161    0.1926   18.2642 C.3     1  UNL1        0.0939
      9 C           1.8905    0.8911   18.1952 C.3     1  UNL1        0.1105
     10 N           1.5231    1.9071   19.2358 N.pl3   1  UNL1       -0.3041
     11 C           2.4813    2.2246   20.3453 C.3     1  UNL1        0.1123
     12 C           3.8069    1.5261   20.4143 C.3     1  UNL1        0.1135
     13 N           4.1743    0.5101   19.3737 N.pl3   1  UNL1       -0.2914
     14 C           0.1974    2.6057   19.1668 C.ar    1  UNL1        0.0480
     15 C          -0.2029    3.3330   17.9175 C.ar    1  UNL1        0.0158
     16 C          -1.5285    4.0315   17.8484 C.ar    1  UNL1        0.0196
     17 C          -2.4538    4.0028   19.0287 C.ar    1  UNL1        0.1058
     18 C          -2.0535    3.2755   20.2780 C.ar    1  UNL1        0.0196
     19 C          -0.7278    2.5769   20.3470 C.ar    1  UNL1        0.0158
     20 S          -3.7794    4.7013   18.9597 S.O2    1  UNL1        0.0105
     21 C          -5.1050    5.3998   18.8906 C.3     1  UNL1        0.1816
     22 O          -3.3198    5.6766   20.0024 O.2     1  UNL1       -0.1686
     23 O          -4.2391    3.7260   17.9169 O.2     1  UNL1       -0.1686
     24 C           7.0828   -3.4719   21.0124 C.2     1  UNL1        0.2636
     25 O           6.2665   -4.6617   20.6022 O.2     1  UNL1       -0.2685
     26 N           8.0275   -3.5746   22.1728 N.am    1  UNL1       -0.3013
     27 H           8.5633   -2.7938   22.4421 H       1  UNL1        0.1497
     28 C           8.1562   -4.8672   22.9232 C.3     1  UNL1        0.0719
     29 C           7.5730   -4.9968   24.2991 C.3     1  UNL1        0.0203
     30 C           8.2847   -6.1596   23.6735 C.3     1  UNL1        0.0018
     31 C           8.4133   -7.4520   24.4239 C.3     1  UNL1        0.0024
     32 C           8.9964   -7.3224   23.0479 C.3     1  UNL1        0.0018
     33 C           8.8678   -6.0299   22.2976 C.3     1  UNL1        0.0203
     34 C           7.8660   -7.0154   25.2698 C.3     1  UNL1        0.0285
     35 C           7.1185   -6.4189   26.4254 C.3     1  UNL1        0.0884
     36 O           6.5354   -6.5485   27.8013 O.3     1  UNL1       -0.3867
     37 C           7.8302   -7.5817   25.7998 C.3     1  UNL1        0.0269
     38 C           6.9899   -5.1265   25.6750 C.3     1  UNL1        0.0285
     39 H           6.7055   -7.4407   28.1418 H       1  UNL1        0.2102
@<TRIPOS>BOND
     1     8     7    1
     2     8     9    1
     3     9    10    1
     4    10    14    1
     5    14    15   ar
     6    15    16   ar
     7    16    17   ar
     8    17    20    1
     9    20    21    1
    10    20    22    2
    11    20    23    2
    12    17    18   ar
    13    18    19   ar
    14    10    11    1
    15    11    12    1
    16    12    13    1
    17    13     1    1
    18     1     2   ar
    19     2     3   ar
    20     3     4   ar
    21     4     5   ar
    22     5    24    1
    23    24    25    2
    24    24    26   am
    25    26    28    1
    26    28    29    1
    27    29    30    1
    28    30    31    1
    29    31    32    1
    30    32    33    1
    31    33    34    1
    32    34    35    1
    33    35    36    1
    34    35    37    1
    35    35    38    1
    36     5     6   ar
    37    13     8    1
    38     6     1   ar
    39    19    14   ar
    40    33    28    1
    41    38    29    1
    42    37    31    1
    43    26    27    1
    44    36    39    1
@<TRIPOS>MOLECULE
*****
 39 44 0 0 0
SMALL
GASTEIGER

@<TRIPOS>ATOM
      1 C           7.6061   -5.9503   27.6802 C.ar    1  UNL1        0.1319
      2 C           8.0290   -7.3706   27.9124 C.ar    1  UNL1        0.0343
      3 C           8.4111   -8.2389   26.7505 C.ar    1  UNL1        0.0046
      4 C           8.3703   -7.6869   25.3564 C.ar    1  UNL1        0.0239
      5 C           7.9474   -6.2666   25.1242 C.ar    1  UNL1        0.1358
      6 N           7.5653   -5.3983   26.2861 N.ar    1  UNL1       -0.2261
      7 C           6.6792   -3.1363   27.2090 C.3     1  UNL1        0.0233
      8 C           6.7605   -3.6750   28.6065 C.3     1  UNL1        0.0939
      9 C           6.3784   -2.8068   29.7685 C.3     1  UNL1        0.1105
     10 N           6.4597   -3.3456   31.1660 N.pl3   1  UNL1       -0.3041
     11 C           6.9232   -4.7526   31.4016 C.3     1  UNL1        0.1123
     12 C           7.3053   -5.6208   30.2397 C.3     1  UNL1        0.1135
     13 N           7.2239   -5.0820   28.8422 N.pl3   1  UNL1       -0.2914
     14 C           6.0776   -2.4773   32.3280 C.ar    1  UNL1        0.0480
     15 C           7.0723   -1.5125   32.9024 C.ar    1  UNL1        0.0158
     16 C           6.6902   -0.6443   34.0643 C.ar    1  UNL1        0.0196
     17 C           5.3134   -0.7407   34.6519 C.ar    1  UNL1        0.1058
     18 C           4.3187   -1.7054   34.0775 C.ar    1  UNL1        0.0196
     19 C           4.7009   -2.5737   32.9155 C.ar    1  UNL1        0.0158
     20 S           4.9314    0.1276   35.8138 S.O2    1  UNL1        0.0105
     21 C           4.5493    0.9959   36.9757 C.3     1  UNL1        0.1816
     22 O           3.9544    0.8617   34.9439 O.2     1  UNL1       -0.1686
     23 O           5.9083   -0.6065   36.6836 O.2     1  UNL1       -0.1686
     24 C           7.9067   -5.7147   23.7300 C.2     1  UNL1        0.2636
     25 O           8.4075   -6.5398   22.5818 O.2     1  UNL1       -0.2685
     26 N           7.3652   -4.3376   23.4841 N.am    1  UNL1       -0.3013
     27 H           7.0365   -3.7961   24.2377 H       1  UNL1        0.1497
     28 C           7.3244   -3.7857   22.0899 C.3     1  UNL1        0.0719
     29 C           6.0425   -3.8088   21.3112 C.3     1  UNL1        0.0203
     30 C           7.2836   -3.2337   20.6957 C.3     1  UNL1        0.0018
     31 C           7.2428   -2.6818   19.3016 C.3     1  UNL1        0.0024
     32 C           8.5247   -2.6586   20.0802 C.3     1  UNL1        0.0018
     33 C           8.5655   -3.2105   21.4743 C.3     1  UNL1        0.0203
     34 C           6.1764   -2.9346   19.2326 C.3     1  UNL1        0.0285
     35 C           4.7198   -3.2801   19.1385 C.3     1  UNL1        0.0884
     36 O           3.4379   -3.3032   18.3599 O.3     1  UNL1       -0.3867
     37 C           5.9609   -2.7049   18.5230 C.3     1  UNL1        0.0269
     38 C           4.7606   -3.8320   20.5326 C.3     1  UNL1        0.0285
     39 H           3.5841   -2.9115   17.4846 H       1  UNL1        0.2102
@<TRIPOS>BOND
     1     8     7    1
     2     8     9    1
     3     9    10    1
     4    10    14    1
     5    14    15   ar
     6    15    16   ar
     7    16    17   ar
     8    17    20    1
     9    20    21    1
    10    20    22    2
    11    20    23    2
    12    17    18   ar
    13    18    19   ar
    14    10    11    1
    15    11    12    1
    16    12    13    1
    17    13     1    1
    18     1     2   ar
    19     2     3   ar
    20     3     4   ar
    21     4     5   ar
    22     5    24    1
    23    24    25    2
    24    24    26   am
    25    26    28    1
    26    28    29    1
    27    29    30    1
    28    30    31    1
    29    31    32    1
    30    32    33    1
    31    33    34    1
    32    34    35    1
    33    35    36    1
    34    35    37    1
    35    35    38    1
    36     5     6   ar
    37    13     8    1
    38     6     1   ar
    39    19    14   ar
    40    33    28    1
    41    38    29    1
    42    37    31    1
    43    26    27    1
    44    36    39    1
@<TRIPOS>MOLECULE
*****
 39 44 0 0 0
SMALL
GASTEIGER

@<TRIPOS>ATOM
      1 C           6.4573   -1.8917   29.3806 C.ar    1  UNL1        0.1319
      2 C           7.5711   -2.8952   29.4303 C.ar    1  UNL1        0.0343
      3 C           8.1063   -3.4852   28.1594 C.ar    1  UNL1        0.0046
      4 C           7.5278   -3.0718   26.8387 C.ar    1  UNL1        0.0239
      5 C           6.4140   -2.0683   26.7889 C.ar    1  UNL1        0.1358
      6 N           5.8787   -1.4782   28.0599 N.ar    1  UNL1       -0.2261
      7 C           7.4543    0.7723   30.3340 C.3     1  UNL1        0.0233
      8 C           6.4206    0.0304   31.1283 C.3     1  UNL1        0.0939
      9 C           5.8853    0.6203   32.3993 C.3     1  UNL1        0.1105
     10 N           4.8516   -0.1216   33.1935 N.pl3   1  UNL1       -0.3041
     11 C           4.3531   -1.4536   32.7168 C.3     1  UNL1        0.1123
     12 C           4.8883   -2.0436   31.4459 C.3     1  UNL1        0.1135
     13 N           5.9221   -1.3016   30.6516 N.pl3   1  UNL1       -0.2914
     14 C           4.3164    0.4684   34.4646 C.ar    1  UNL1        0.0480
     15 C           4.7308   -0.1015   35.7887 C.ar    1  UNL1        0.0158
     16 C           4.1956    0.4885   37.0597 C.ar    1  UNL1        0.0196
     17 C           3.2460    1.6485   37.0066 C.ar    1  UNL1        0.1058
     18 C           2.8316    2.2184   35.6824 C.ar    1  UNL1        0.0196
     19 C           3.3668    1.6283   34.4114 C.ar    1  UNL1        0.0158
     20 S           2.7108    2.2385   38.2776 S.O2    1  UNL1        0.0105
     21 C           2.1756    2.8285   39.5485 C.3     1  UNL1        0.1816
     22 O           3.7254    1.4632   39.0646 O.2     1  UNL1       -0.1686
     23 O           1.6962    3.0137   37.4905 O.2     1  UNL1       -0.1686
     24 C           5.8354   -1.6549   25.4681 C.2     1  UNL1        0.2636
     25 O           6.4038   -0.4750   24.7368 O.2     1  UNL1       -0.2685
     26 N           4.6886   -2.4212   24.8788 N.am    1  UNL1       -0.3013
     27 H           4.3156   -3.1956   25.3589 H       1  UNL1        0.1497
     28 C           4.1100   -2.0078   23.5580 C.3     1  UNL1        0.0719
     29 C           4.3534   -2.8452   22.3375 C.3     1  UNL1        0.0203
     30 C           3.5315   -1.5944   22.2373 C.3     1  UNL1        0.0018
     31 C           2.9530   -1.1811   20.9165 C.3     1  UNL1        0.0024
     32 C           2.7096   -0.3437   22.1370 C.3     1  UNL1        0.0018
     33 C           3.2881   -0.7571   23.4578 C.3     1  UNL1        0.0203
     34 C           3.4033   -2.0636   20.4430 C.3     1  UNL1        0.0285
     35 C           4.0184   -3.2691   19.7963 C.3     1  UNL1        0.0884
     36 O           4.2618   -4.1065   18.5758 O.3     1  UNL1       -0.3867
     37 C           3.1964   -2.0184   19.6961 C.3     1  UNL1        0.0269
     38 C           4.5969   -3.6825   21.1170 C.3     1  UNL1        0.0285
     39 H           3.8213   -3.7012   17.8125 H       1  UNL1        0.2102
@<TRIPOS>BOND
     1     8     7    1
     2     8     9    1
     3     9    10    1
     4    10    14    1
     5    14    15   ar
     6    15    16   ar
     7    16    17   ar
     8    17    20    1
     9    20    21    1
    10    20    22    2
    11    20    23    2
    12    17    18   ar
    13    18    19   ar
    14    10    11    1
    15    11    12    1
    16    12    13    1
    17    13     1    1
    18     1     2   ar
    19     2     3   ar
    20     3     4   ar
    21     4     5   ar
    22     5    24    1
    23    24    25    2
    24    24    26   am
    25    26    28    1
    26    28    29    1
    27    29    30    1
    28    30    31    1
    29    31    32    1
    30    32    33    1
    31    33    34    1
    32    34    35    1
    33    35    36    1
    34    35    37    1
    35    35    38    1
    36     5     6   ar
    37    13     8    1
    38     6     1   ar
    39    19    14   ar
    40    33    28    1
    41    38    29    1
    42    37    31    1
    43    26    27    1
    44    36    39    1
@<TRIPOS>MOLECULE
*****
 39 44 0 0 0
SMALL
GASTEIGER

@<TRIPOS>ATOM
      1 C           4.2831   -0.8713   28.9616 C.ar    1  UNL1        0.1319
      2 C           4.6923   -0.5393   30.3660 C.ar    1  UNL1        0.0343
      3 C           5.8351   -1.2697   31.0067 C.ar    1  UNL1        0.0046
      4 C           6.5687   -2.3321   30.2430 C.ar    1  UNL1        0.0239
      5 C           6.1594   -2.6641   28.8387 C.ar    1  UNL1        0.1358
      6 N           5.0166   -1.9337   28.1979 N.ar    1  UNL1       -0.2261
      7 C           4.8168    1.1941   26.8522 C.3     1  UNL1        0.0233
      8 C           3.4071    0.8918   27.2662 C.3     1  UNL1        0.0939
      9 C           2.2643    1.6221   26.6256 C.3     1  UNL1        0.1105
     10 N           0.8546    1.3198   27.0396 N.pl3   1  UNL1       -0.3041
     11 C           0.5877    0.2872   28.0942 C.3     1  UNL1        0.1123
     12 C           1.7306   -0.4432   28.7349 C.3     1  UNL1        0.1135
     13 N           3.1402   -0.1409   28.3209 N.pl3   1  UNL1       -0.2914
     14 C          -0.2882    2.0503   26.3989 C.ar    1  UNL1        0.0480
     15 C          -0.2699    2.3259   24.9245 C.ar    1  UNL1        0.0158
     16 C          -1.4126    3.0563   24.2838 C.ar    1  UNL1        0.0196
     17 C          -2.5739    3.5111   25.1174 C.ar    1  UNL1        0.1058
     18 C          -2.5922    3.2354   26.5918 C.ar    1  UNL1        0.0196
     19 C          -1.4494    2.5050   27.2325 C.ar    1  UNL1        0.0158
     20 S          -3.7166    4.2415   24.4767 S.O2    1  UNL1        0.0105
     21 C          -4.8594    4.9718   23.8360 C.3     1  UNL1        0.1816
     22 O          -4.6610    3.6389   25.4741 O.2     1  UNL1       -0.1686
     23 O          -2.7722    4.8441   23.4792 O.2     1  UNL1       -0.1686
     24 C           6.8930   -3.7265   28.0750 C.2     1  UNL1        0.2636
     25 O           8.3218   -4.0386   28.4086 O.2     1  UNL1       -0.2685
     26 N           6.1979   -4.4768   26.9779 N.am    1  UNL1       -0.3013
     27 H           5.2601   -4.2720   26.7589 H       1  UNL1        0.1497
     28 C           6.9315   -5.5393   26.2142 C.3     1  UNL1        0.0719
     29 C           7.4875   -5.2367   24.8543 C.3     1  UNL1        0.0203
     30 C           7.6651   -6.6016   25.4505 C.3     1  UNL1        0.0018
     31 C           8.3986   -7.6640   24.6869 C.3     1  UNL1        0.0024
     32 C           7.8427   -7.9665   26.0468 C.3     1  UNL1        0.0018
     33 C           7.1091   -6.9041   26.8104 C.3     1  UNL1        0.0203
     34 C           8.5586   -6.9593   23.8601 C.3     1  UNL1        0.0285
     35 C           8.7771   -5.9966   22.7307 C.3     1  UNL1        0.0884
     36 O           9.3330   -5.6941   21.3708 O.3     1  UNL1       -0.3867
     37 C           8.9546   -7.3615   23.3270 C.3     1  UNL1        0.0269
     38 C           8.0435   -4.9342   23.4944 C.3     1  UNL1        0.0285
     39 H           9.7736   -6.4833   21.0187 H       1  UNL1        0.2102
@<TRIPOS>BOND
     1     8     7    1
     2     8     9    1
     3     9    10    1
     4    10    14    1
     5    14    15   ar
     6    15    16   ar
     7    16    17   ar
     8    17    20    1
     9    20    21    1
    10    20    22    2
    11    20    23    2
    12    17    18   ar
    13    18    19   ar
    14    10    11    1
    15    11    12    1
    16    12    13    1
    17    13     1    1
    18     1     2   ar
    19     2     3   ar
    20     3     4   ar
    21     4     5   ar
    22     5    24    1
    23    24    25    2
    24    24    26   am
    25    26    28    1
    26    28    29    1
    27    29    30    1
    28    30    31    1
    29    31    32    1
    30    32    33    1
    31    33    34    1
    32    34    35    1
    33    35    36    1
    34    35    37    1
    35    35    38    1
    36     5     6   ar
    37    13     8    1
    38     6     1   ar
    39    19    14   ar
    40    33    28    1
    41    38    29    1
    42    37    31    1
    43    26    27    1
    44    36    39    1
@<TRIPOS>MOLECULE
*****
 39 44 0 0 0
SMALL
GASTEIGER

@<TRIPOS>ATOM
      1 C           0.7604    2.2241   27.0192 C.ar    1  UNL1        0.1319
      2 C          -0.3673    2.9724   26.3725 C.ar    1  UNL1        0.0343
      3 C          -0.6417    2.7968   24.9083 C.ar    1  UNL1        0.0046
      4 C           0.2116    1.8728   24.0909 C.ar    1  UNL1        0.0239
      5 C           1.3393    1.1245   24.7377 C.ar    1  UNL1        0.1358
      6 N           1.6137    1.3002   26.2018 N.ar    1  UNL1       -0.2261
      7 C          -0.6578    0.5054   29.0280 C.3     1  UNL1        0.0233
      8 C           0.3258    1.5405   29.4878 C.3     1  UNL1        0.0939
      9 C           0.6002    1.7162   30.9519 C.3     1  UNL1        0.1105
     10 N           1.5837    2.7512   31.4118 N.pl3   1  UNL1       -0.3041
     11 C           2.2928    3.6105   30.4074 C.3     1  UNL1        0.1123
     12 C           2.0183    3.4348   28.9433 C.3     1  UNL1        0.1135
     13 N           1.0348    2.3998   28.4835 N.pl3   1  UNL1       -0.2914
     14 C           1.8581    2.9269   32.8760 C.ar    1  UNL1        0.0480
     15 C           2.6393    1.8867   33.6227 C.ar    1  UNL1        0.0158
     16 C           2.9138    2.0623   35.0869 C.ar    1  UNL1        0.0196
     17 C           2.4069    3.2782   35.8044 C.ar    1  UNL1        0.1058
     18 C           1.6257    4.3184   35.0577 C.ar    1  UNL1        0.0196
     19 C           1.3513    4.1428   33.5934 C.ar    1  UNL1        0.0158
     20 S           2.6814    3.4538   37.2685 S.O2    1  UNL1        0.0105
     21 C           2.9558    3.6295   38.7327 C.3     1  UNL1        0.1816
     22 O           4.1282    3.7095   36.9667 O.2     1  UNL1       -0.1686
     23 O           1.2345    3.1982   37.5704 O.2     1  UNL1       -0.1686
     24 C           2.1926    0.2005   23.9202 C.2     1  UNL1        0.2636
     25 O           3.2294   -0.6519   24.5898 O.2     1  UNL1       -0.2685
     26 N           2.0090    0.1290   22.4332 N.am    1  UNL1       -0.3013
     27 H           1.3285    0.6885   21.9938 H       1  UNL1        0.1497
     28 C           2.8623   -0.7950   21.6158 C.3     1  UNL1        0.0719
     29 C           2.9175   -0.6423   20.1246 C.3     1  UNL1        0.0203
     30 C           3.7156   -1.7189   20.7983 C.3     1  UNL1        0.0018
     31 C           4.5688   -2.6428   19.9808 C.3     1  UNL1        0.0024
     32 C           4.5136   -2.7956   21.4720 C.3     1  UNL1        0.0018
     33 C           3.6603   -1.8716   22.2895 C.3     1  UNL1        0.0203
     34 C           4.2549   -2.1232   19.0658 C.3     1  UNL1        0.0285
     35 C           3.8260   -1.4134   17.8159 C.3     1  UNL1        0.0884
     36 O           3.8812   -1.2607   16.3247 O.3     1  UNL1       -0.3867
     37 C           4.6240   -2.4901   18.4896 C.3     1  UNL1        0.0269
     38 C           2.9728   -0.4895   18.6334 C.3     1  UNL1        0.0285
     39 H           4.4744   -1.9320   15.9527 H       1  UNL1        0.2102
@<TRIPOS>BOND
     1     8     7    1
     2     8     9    1
     3     9    10    1
     4    10    14    1
     5    14    15   ar
     6    15    16   ar
     7    16    17   ar
     8    17    20    1
     9    20    21    1
    10    20    22    2
    11    20    23    2
    12    17    18   ar
    13    18    19   ar
    14    10    11    1
    15    11    12    1
    16    12    13    1
    17    13     1    1
    18     1     2   ar
    19     2     3   ar
    20     3     4   ar
    21     4     5   ar
    22     5    24    1
    23    24    25    2
    24    24    26   am
    25    26    28    1
    26    28    29    1
    27    29    30    1
    28    30    31    1
    29    31    32    1
    30    32    33    1
    31    33    34    1
    32    34    35    1
    33    35    36    1
    34    35    37    1
    35    35    38    1
    36     5     6   ar
    37    13     8    1
    38     6     1   ar
    39    19    14   ar
    40    33    28    1
    41    38    29    1
    42    37    31    1
    43    26    27    1
    44    36    39    1
@<TRIPOS>MOLECULE
*****
 39 44 0 0 0
SMALL
GASTEIGER

@<TRIPOS>ATOM
      1 C           1.3762    2.5021   25.7080 C.ar    1  UNL1        0.1319
      2 C           2.2155    2.9285   26.8758 C.ar    1  UNL1        0.0343
      3 C           3.6268    2.4370   27.0042 C.ar    1  UNL1        0.0046
      4 C           4.1988    1.5190   25.9650 C.ar    1  UNL1        0.0239
      5 C           3.3594    1.0926   24.7972 C.ar    1  UNL1        0.1358
      6 N           1.9481    1.5841   24.6687 N.ar    1  UNL1       -0.2261
      7 C          -0.7538    1.4416   27.5351 C.3     1  UNL1        0.0233
      8 C          -1.1002    2.4635   26.4931 C.3     1  UNL1        0.0939
      9 C          -2.5115    2.9550   26.3646 C.3     1  UNL1        0.1105
     10 N          -2.8578    3.9769   25.3225 N.pl3   1  UNL1       -0.3041
     11 C          -1.7928    4.5071   24.4090 C.3     1  UNL1        0.1123
     12 C          -0.3815    4.0155   24.5375 C.3     1  UNL1        0.1135
     13 N          -0.0352    2.9937   25.5795 N.pl3   1  UNL1       -0.2914
     14 C          -4.2692    4.4685   25.1941 C.ar    1  UNL1        0.0480
     15 C          -5.0683    4.1420   23.9674 C.ar    1  UNL1        0.0158
     16 C          -6.4796    4.6335   23.8389 C.ar    1  UNL1        0.0196
     17 C          -7.0918    5.4516   24.9371 C.ar    1  UNL1        0.1058
     18 C          -6.2927    5.7781   26.1638 C.ar    1  UNL1        0.0196
     19 C          -4.8813    5.2865   26.2923 C.ar    1  UNL1        0.0158
     20 S          -8.5031    5.9432   24.8086 S.O2    1  UNL1        0.0105
     21 C          -9.9144    6.4347   24.6801 C.3     1  UNL1        0.1816
     22 O          -8.5066    6.3133   26.2622 O.2     1  UNL1       -0.1686
     23 O          -8.4997    5.5731   23.3550 O.2     1  UNL1       -0.1686
     24 C           3.9315    0.1746   23.7579 C.2     1  UNL1        0.2636
     25 O           5.4167    0.0944   23.5637 O.2     1  UNL1       -0.2685
     26 N           3.0183   -0.6632   22.9128 N.am    1  UNL1       -0.3013
     27 H           2.0435   -0.6106   23.0402 H       1  UNL1        0.1497
     28 C           3.5904   -1.5812   21.8735 C.3     1  UNL1        0.0719
     29 C           3.5227   -1.2063   20.4227 C.3     1  UNL1        0.0203
     30 C           4.1624   -2.4991   20.8342 C.3     1  UNL1        0.0018
     31 C           4.7344   -3.4171   19.7949 C.3     1  UNL1        0.0024
     32 C           4.8021   -3.7919   21.2457 C.3     1  UNL1        0.0018
     33 C           4.2301   -2.8740   22.2850 C.3     1  UNL1        0.0203
     34 C           4.4354   -2.7122   19.0077 C.3     1  UNL1        0.0285
     35 C           4.0270   -1.7494   17.9326 C.3     1  UNL1        0.0884
     36 O           3.9593   -1.3745   16.4817 O.3     1  UNL1       -0.3867
     37 C           4.6667   -3.0422   18.3441 C.3     1  UNL1        0.0269
     38 C           3.4550   -0.8315   18.9718 C.3     1  UNL1        0.0285
     39 H           4.3712   -2.0719   15.9480 H       1  UNL1        0.2102
@<TRIPOS>BOND
     1     8     7    1
     2     8     9    1
     3     9    10    1
     4    10    14    1
     5    14    15   ar
     6    15    16   ar
     7    16    17   ar
     8    17    20    1
     9    20    21    1
    10    20    22    2
    11    20    23    2
    12    17    18   ar
    13    18    19   ar
    14    10    11    1
    15    11    12    1
    16    12    13    1
    17    13     1    1
    18     1     2   ar
    19     2     3   ar
    20     3     4   ar
    21     4     5   ar
    22     5    24    1
    23    24    25    2
    24    24    26   am
    25    26    28    1
    26    28    29    1
    27    29    30    1
    28    30    31    1
    29    31    32    1
    30    32    33    1
    31    33    34    1
    32    34    35    1
    33    35    36    1
    34    35    37    1
    35    35    38    1
    36     5     6   ar
    37    13     8    1
    38     6     1   ar
    39    19    14   ar
    40    33    28    1
    41    38    29    1
    42    37    31    1
    43    26    27    1
    44    36    39    1
@<TRIPOS>MOLECULE
*****
 39 44 0 0 0
SMALL
GASTEIGER

@<TRIPOS>ATOM
      1 C          -0.1322    2.7047   24.7456 C.ar    1  UNL1        0.1319
      2 C          -1.1752    3.6941   24.3177 C.ar    1  UNL1        0.0343
      3 C          -1.5834    3.7776   22.8767 C.ar    1  UNL1        0.0046
      4 C          -0.9486    2.8717   21.8637 C.ar    1  UNL1        0.0239
      5 C           0.0945    1.8823   22.2916 C.ar    1  UNL1        0.1358
      6 N           0.5027    1.7988   23.7325 N.ar    1  UNL1       -0.2261
      7 C           2.1899    4.3212   25.7430 C.3     1  UNL1        0.0233
      8 C           1.4370    3.4294   26.6853 C.3     1  UNL1        0.0939
      9 C           1.8452    3.3459   28.1262 C.3     1  UNL1        0.1105
     10 N           1.0923    2.4541   29.0685 N.pl3   1  UNL1       -0.3041
     11 C          -0.0687    1.6459   28.5698 C.3     1  UNL1        0.1123
     12 C          -0.4769    1.7294   27.1289 C.3     1  UNL1        0.1135
     13 N           0.2760    2.6212   26.1866 N.pl3   1  UNL1       -0.2914
     14 C           1.5005    2.3707   30.5095 C.ar    1  UNL1        0.0480
     15 C           2.3187    1.2094   30.9912 C.ar    1  UNL1        0.0158
     16 C           2.7269    1.1258   32.4321 C.ar    1  UNL1        0.0196
     17 C           2.3169    2.2036   33.3915 C.ar    1  UNL1        0.1058
     18 C           1.4987    3.3649   32.9099 C.ar    1  UNL1        0.0196
     19 C           1.0905    3.4484   31.4688 C.ar    1  UNL1        0.0158
     20 S           2.7251    2.1201   34.8324 S.O2    1  UNL1        0.0105
     21 C           3.1333    2.0366   36.2734 C.3     1  UNL1        0.1816
     22 O           1.7814    3.2377   35.1646 O.2     1  UNL1       -0.1686
     23 O           3.6688    1.0025   34.5003 O.2     1  UNL1       -0.1686
     24 C           0.7293    0.9764   21.2785 C.2     1  UNL1        0.2636
     25 O          -0.1159    0.0109   20.5017 O.2     1  UNL1       -0.2685
     26 N           2.2094    1.0360   21.0422 N.am    1  UNL1       -0.3013
     27 H           2.7641    1.6697   21.5520 H       1  UNL1        0.1497
     28 C           2.8442    0.1301   20.0290 C.3     1  UNL1        0.0719
     29 C           3.4856   -1.1529   20.4678 C.3     1  UNL1        0.0203
     30 C           3.4791   -0.7758   19.0160 C.3     1  UNL1        0.0018
     31 C           4.1139   -1.6817   18.0030 C.3     1  UNL1        0.0024
     32 C           3.4726   -0.3987   17.5642 C.3     1  UNL1        0.0018
     33 C           2.8377    0.5072   18.5773 C.3     1  UNL1        0.0203
     34 C           4.3878   -2.3834   18.8020 C.3     1  UNL1        0.0285
     35 C           4.7618   -3.3419   19.8935 C.3     1  UNL1        0.0884
     36 O           5.4032   -4.6249   20.3322 O.3     1  UNL1       -0.3867
     37 C           4.7553   -2.9647   18.4417 C.3     1  UNL1        0.0269
     38 C           4.1270   -2.4360   20.9065 C.3     1  UNL1        0.0285
     39 H           5.7626   -5.0876   19.5592 H       1  UNL1        0.2102
@<TRIPOS>BOND
     1     8     7    1
     2     8     9    1
     3     9    10    1
     4    10    14    1
     5    14    15   ar
     6    15    16   ar
     7    16    17   ar
     8    17    20    1
     9    20    21    1
    10    20    22    2
    11    20    23    2
    12    17    18   ar
    13    18    19   ar
    14    10    11    1
    15    11    12    1
    16    12    13    1
    17    13     1    1
    18     1     2   ar
    19     2     3   ar
    20     3     4   ar
    21     4     5   ar
    22     5    24    1
    23    24    25    2
    24    24    26   am
    25    26    28    1
    26    28    29    1
    27    29    30    1
    28    30    31    1
    29    31    32    1
    30    32    33    1
    31    33    34    1
    32    34    35    1
    33    35    36    1
    34    35    37    1
    35    35    38    1
    36     5     6   ar
    37    13     8    1
    38     6     1   ar
    39    19    14   ar
    40    33    28    1
    41    38    29    1
    42    37    31    1
    43    26    27    1
    44    36    39    1
@<TRIPOS>MOLECULE
*****
 39 44 0 0 0
SMALL
GASTEIGER

@<TRIPOS>ATOM
      1 C           0.3834    2.0756   19.5165 C.ar    1  UNL1        0.1319
      2 C           0.4880    2.5162   18.0865 C.ar    1  UNL1        0.0343
      3 C          -0.5035    3.4936   17.5284 C.ar    1  UNL1        0.0046
      4 C          -1.5996    4.0304   18.4003 C.ar    1  UNL1        0.0239
      5 C          -1.7043    3.5898   19.8303 C.ar    1  UNL1        0.1358
      6 N          -0.7127    2.6124   20.3884 N.ar    1  UNL1       -0.2261
      7 C           2.6816    3.0538   21.1783 C.3     1  UNL1        0.0233
      8 C           2.5241    1.5873   20.9055 C.3     1  UNL1        0.0939
      9 C           3.5156    0.6098   21.4635 C.3     1  UNL1        0.1105
     10 N           3.3581   -0.8567   21.1907 N.pl3   1  UNL1       -0.3041
     11 C           2.2090   -1.3458   20.3598 C.3     1  UNL1        0.1123
     12 C           1.2175   -0.3684   19.8017 C.3     1  UNL1        0.1135
     13 N           1.3750    1.0982   20.0746 N.pl3   1  UNL1       -0.2914
     14 C           4.3497   -1.8341   21.7488 C.ar    1  UNL1        0.0480
     15 C           4.3402   -2.1585   23.2132 C.ar    1  UNL1        0.0158
     16 C           5.3318   -3.1359   23.7713 C.ar    1  UNL1        0.0196
     17 C           6.3328   -3.7890   22.8650 C.ar    1  UNL1        0.1058
     18 C           6.3423   -3.4646   21.4005 C.ar    1  UNL1        0.0196
     19 C           5.3507   -2.4871   20.8424 C.ar    1  UNL1        0.0158
     20 S           7.3244   -4.7664   23.4231 S.O2    1  UNL1        0.0105
     21 C           8.3159   -5.7438   23.9812 C.3     1  UNL1        0.1816
     22 O           6.8783   -4.4248   24.8138 O.2     1  UNL1       -0.1686
     23 O           7.7704   -5.1080   22.0323 O.2     1  UNL1       -0.1686
     24 C          -2.8005    4.1266   20.7022 C.2     1  UNL1        0.2636
     25 O          -3.1165    5.5929   20.6924 O.2     1  UNL1       -0.2685
     26 N          -3.5806    3.1972   21.5839 N.am    1  UNL1       -0.3013
     27 H          -3.3732    2.2348   21.5904 H       1  UNL1        0.1497
     28 C          -4.6769    3.7340   22.4558 C.3     1  UNL1        0.0719
     29 C          -4.4001    4.0593   23.8938 C.3     1  UNL1        0.0203
     30 C          -5.7730    4.2708   23.3277 C.3     1  UNL1        0.0018
     31 C          -6.8692    4.8076   24.1996 C.3     1  UNL1        0.0024
     32 C          -7.1459    4.4823   22.7617 C.3     1  UNL1        0.0018
     33 C          -6.0498    3.9455   21.8898 C.3     1  UNL1        0.0203
     34 C          -6.1720    4.8557   25.0466 C.3     1  UNL1        0.0285
     35 C          -5.2196    4.9214   26.2036 C.3     1  UNL1        0.0884
     36 O          -4.9428    5.2467   27.6415 O.3     1  UNL1       -0.3867
     37 C          -6.5924    5.1329   25.6376 C.3     1  UNL1        0.0269
     38 C          -4.1234    4.3846   25.3317 C.3     1  UNL1        0.0285
     39 H          -5.7523    5.5802   28.0591 H       1  UNL1        0.2102
@<TRIPOS>BOND
     1     8     7    1
     2     8     9    1
     3     9    10    1
     4    10    14    1
     5    14    15   ar
     6    15    16   ar
     7    16    17   ar
     8    17    20    1
     9    20    21    1
    10    20    22    2
    11    20    23    2
    12    17    18   ar
    13    18    19   ar
    14    10    11    1
    15    11    12    1
    16    12    13    1
    17    13     1    1
    18     1     2   ar
    19     2     3   ar
    20     3     4   ar
    21     4     5   ar
    22     5    24    1
    23    24    25    2
    24    24    26   am
    25    26    28    1
    26    28    29    1
    27    29    30    1
    28    30    31    1
    29    31    32    1
    30    32    33    1
    31    33    34    1
    32    34    35    1
    33    35    36    1
    34    35    37    1
    35    35    38    1
    36     5     6   ar
    37    13     8    1
    38     6     1   ar
    39    19    14   ar
    40    33    28    1
    41    38    29    1
    42    37    31    1
    43    26    27    1
    44    36    39    1
@<TRIPOS>MOLECULE
*****
 39 44 0 0 0
SMALL
GASTEIGER

@<TRIPOS>ATOM
      1 C          -0.7224    3.0164   26.5993 C.ar    1  UNL1        0.1319
      2 C          -2.1412    3.4708   26.4245 C.ar    1  UNL1        0.0343
      3 C          -2.7294    3.5809   25.0491 C.ar    1  UNL1        0.0046
      4 C          -1.8989    3.2365   23.8485 C.ar    1  UNL1        0.0239
      5 C          -0.4801    2.7821   24.0233 C.ar    1  UNL1        0.1358
      6 N           0.1082    2.6721   25.3987 N.ar    1  UNL1       -0.2261
      7 C          -0.8306    0.4053   28.0726 C.3     1  UNL1        0.0233
      8 C          -0.1883    1.6008   28.7114 C.3     1  UNL1        0.0939
      9 C           0.4000    1.4908   30.0868 C.3     1  UNL1        0.1105
     10 N           1.0423    2.6863   30.7257 N.pl3   1  UNL1       -0.3041
     11 C           1.0964    3.9919   29.9891 C.3     1  UNL1        0.1123
     12 C           0.5082    4.1019   28.6137 C.3     1  UNL1        0.1135
     13 N          -0.1341    2.9063   27.9748 N.pl3   1  UNL1       -0.2914
     14 C           1.6305    2.5763   32.1012 C.ar    1  UNL1        0.0480
     15 C           2.5732    1.4557   32.4263 C.ar    1  UNL1        0.0158
     16 C           3.1615    1.3456   33.8017 C.ar    1  UNL1        0.0196
     17 C           2.8070    2.3561   34.8521 C.ar    1  UNL1        0.1058
     18 C           1.8643    3.4767   34.5270 C.ar    1  UNL1        0.0196
     19 C           1.2761    3.5868   33.1515 C.ar    1  UNL1        0.0158
     20 S           3.3953    2.2460   36.2275 S.O2    1  UNL1        0.0105
     21 C           3.9835    2.1359   37.6029 C.3     1  UNL1        0.1816
     22 O           4.7518    2.0190   35.6292 O.2     1  UNL1       -0.1686
     23 O           2.0387    2.4730   36.8259 O.2     1  UNL1       -0.1686
     24 C           0.3504    2.4378   22.8225 C.2     1  UNL1        0.2636
     25 O           1.5778    3.2393   22.5047 O.2     1  UNL1       -0.2685
     26 N          -0.0464    1.2919   21.9397 N.am    1  UNL1       -0.3013
     27 H          -0.8520    0.7658   22.1483 H       1  UNL1        0.1497
     28 C           0.7841    0.9475   20.7390 C.3     1  UNL1        0.0719
     29 C           1.8261   -0.1276   20.8311 C.3     1  UNL1        0.0203
     30 C           1.6147    0.6032   19.5383 C.3     1  UNL1        0.0018
     31 C           2.4452    0.2588   18.3377 C.3     1  UNL1        0.0024
     32 C           1.4033    1.3339   18.2456 C.3     1  UNL1        0.0018
     33 C           0.5728    1.6783   19.4462 C.3     1  UNL1        0.0203
     34 C           2.9749   -0.5045   18.9230 C.3     1  UNL1        0.0285
     35 C           3.6985   -1.5471   19.7225 C.3     1  UNL1        0.0884
     36 O           4.7404   -2.6223   19.8146 O.3     1  UNL1       -0.3867
     37 C           3.4871   -0.8164   18.4298 C.3     1  UNL1        0.0269
     38 C           2.8680   -1.2028   20.9232 C.3     1  UNL1        0.0285
     39 H           5.1829   -2.7180   18.9568 H       1  UNL1        0.2102
@<TRIPOS>BOND
     1     8     7    1
     2     8     9    1
     3     9    10    1
     4    10    14    1
     5    14    15   ar
     6    15    16   ar
     7    16    17   ar
     8    17    20    1
     9    20    21    1
    10    20    22    2
    11    20    23    2
    12    17    18   ar
    13    18    19   ar
    14    10    11    1
    15    11    12    1
    16    12    13    1
    17    13     1    1
    18     1     2   ar
    19     2     3   ar
    20     3     4   ar
    21     4     5   ar
    22     5    24    1
    23    24    25    2
    24    24    26   am
    25    26    28    1
    26    28    29    1
    27    29    30    1
    28    30    31    1
    29    31    32    1
    30    32    33    1
    31    33    34    1
    32    34    35    1
    33    35    36    1
    34    35    37    1
    35    35    38    1
    36     5     6   ar
    37    13     8    1
    38     6     1   ar
    39    19    14   ar
    40    33    28    1
    41    38    29    1
    42    37    31    1
    43    26    27    1
    44    36    39    1
