@<TRIPOS>MOLECULE
*****
 29 33 0 0 0
SMALL
GASTEIGER

@<TRIPOS>ATOM
      1 C          -8.7798  -19.6669   20.8672 C.ar    1  UNL1        0.1629
      2 N          -8.7545  -18.8758   22.1413 N.ar    1  UNL1       -0.2284
      3 C         -10.0170  -18.0689   22.2112 C.ar    1  UNL1        0.0666
      4 C         -10.8227  -18.3614   20.9803 C.ar    1  UNL1        0.0237
      5 S         -10.0581  -19.3490   20.1496 S.2     1  UNL1       -0.0561
      6 C         -12.1485  -17.6906   20.7748 C.3     1  UNL1        0.0343
      7 C         -12.6686  -16.7274   21.8002 C.3     1  UNL1        0.0060
      8 C         -11.8629  -16.4349   23.0312 C.3     1  UNL1        0.0107
      9 C         -10.5371  -17.1057   23.2367 C.3     1  UNL1        0.0627
     10 C          -9.7314  -16.8132   24.4677 C.ar    1  UNL1       -0.0169
     11 C          -8.9226  -15.5528   24.5528 C.ar    1  UNL1       -0.0039
     12 C          -8.1169  -15.2604   25.7837 C.ar    1  UNL1       -0.0003
     13 C          -8.1199  -16.2283   26.9296 C.ar    1  UNL1       -0.0000
     14 C          -8.9287  -17.4887   26.8445 C.ar    1  UNL1       -0.0003
     15 C          -9.7344  -17.7811   25.6135 C.ar    1  UNL1       -0.0039
     16 N          -7.7141  -20.6104   20.3937 N.pl3   1  UNL1       -0.2927
     17 H          -7.9371  -21.5507   20.2061 H       1  UNL1        0.1541
     18 C          -3.4977  -19.1423   19.8310 C.ar    1  UNL1        0.0363
     19 C          -4.6399  -18.1705   19.8050 C.ar    1  UNL1        0.0044
     20 C          -6.0455  -18.6598   19.9926 C.ar    1  UNL1        0.0148
     21 C          -6.3087  -20.1210   20.2062 C.ar    1  UNL1        0.0497
     22 C          -5.1663  -21.0929   20.2321 C.ar    1  UNL1        0.0148
     23 C          -3.7609  -20.6035   20.0445 C.ar    1  UNL1        0.0044
     24 C           1.5455  -17.8799   20.7543 C.3     1  UNL1        0.0950
     25 C           0.2260  -18.0727   20.0678 C.ar    1  UNL1        0.2062
     26 N          -0.0847  -17.7273   18.6415 N.ar    1  UNL1       -0.2104
     27 C          -1.5174  -18.0860   18.3792 C.ar    1  UNL1        0.1391
     28 C          -2.0921  -18.6530   19.6434 C.ar    1  UNL1        0.1659
     29 O          -1.0147  -18.6448   20.6869 O.2     1  UNL1       -0.4383
@<TRIPOS>BOND
     1    24    25    1
     2    25    26   ar
     3    26    27   ar
     4    27    28   ar
     5    28    18    1
     6    18    19   ar
     7    19    20   ar
     8    20    21   ar
     9    21    16    1
    10    16     1    1
    11     1     2   ar
    12     2     3   ar
    13     3     4   ar
    14     4     5   ar
    15     4     6    1
    16     6     7    1
    17     7     8    1
    18     8     9    1
    19     9    10    1
    20    10    11   ar
    21    11    12   ar
    22    12    13   ar
    23    13    14   ar
    24    14    15   ar
    25    21    22   ar
    26    22    23   ar
    27    28    29   ar
    28    29    25   ar
    29    23    18   ar
    30     5     1   ar
    31    15    10   ar
    32     9     3    1
    33    16    17    1
@<TRIPOS>MOLECULE
*****
 29 33 0 0 0
SMALL
GASTEIGER

@<TRIPOS>ATOM
      1 C          -1.0699    3.2615   22.4663 C.ar    1  UNL1        0.1629
      2 N          -0.7066    3.0023   23.8984 N.ar    1  UNL1       -0.2284
      3 C          -1.9108    3.2973   24.7428 C.ar    1  UNL1        0.0666
      4 C          -3.0183    3.7388   23.8326 C.ar    1  UNL1        0.0237
      5 S          -2.4986    3.7166   22.4257 S.2     1  UNL1       -0.0561
      6 C          -4.3569    4.1039   24.4025 C.3     1  UNL1        0.0343
      7 C          -4.5879    4.0275   25.8826 C.3     1  UNL1        0.0060
      8 C          -3.4804    3.5860   26.7928 C.3     1  UNL1        0.0107
      9 C          -2.1418    3.2209   26.2229 C.3     1  UNL1        0.0627
     10 C          -1.0343    2.7793   27.1331 C.ar    1  UNL1       -0.0169
     11 C          -0.9638    1.3528   27.5913 C.ar    1  UNL1       -0.0039
     12 C           0.1437    0.9113   28.5015 C.ar    1  UNL1       -0.0003
     13 C           1.1807    1.8963   28.9535 C.ar    1  UNL1       -0.0000
     14 C           1.1102    3.3228   28.4953 C.ar    1  UNL1       -0.0003
     15 C           0.0027    3.7643   27.5851 C.ar    1  UNL1       -0.0039
     16 N          -0.1637    3.0948   21.2827 N.pl3   1  UNL1       -0.2927
     17 H          -0.1150    3.7994   20.5969 H       1  UNL1        0.1541
     18 C           2.3327   -0.6261   20.8666 C.ar    1  UNL1        0.0363
     19 C           1.0090   -0.5291   20.1679 C.ar    1  UNL1        0.0044
     20 C           0.1768    0.7113   20.3065 C.ar    1  UNL1        0.0148
     21 C           0.6684    1.8545   21.1440 C.ar    1  UNL1        0.0497
     22 C           1.9922    1.7574   21.8428 C.ar    1  UNL1        0.0148
     23 C           2.8243    0.5171   21.7041 C.ar    1  UNL1        0.0044
     24 C           4.4559   -5.0593   18.9382 C.3     1  UNL1        0.0950
     25 C           4.1408   -3.9042   19.8416 C.ar    1  UNL1        0.2062
     26 N           4.7500   -3.6459   21.1878 N.ar    1  UNL1       -0.2104
     27 C           4.1468   -2.3865   21.7356 C.ar    1  UNL1        0.1391
     28 C           3.1648   -1.8665   20.7280 C.ar    1  UNL1        0.1659
     29 O           3.1611   -2.8044   19.5574 O.2     1  UNL1       -0.4383
@<TRIPOS>BOND
     1    24    25    1
     2    25    26   ar
     3    26    27   ar
     4    27    28   ar
     5    28    18    1
     6    18    19   ar
     7    19    20   ar
     8    20    21   ar
     9    21    16    1
    10    16     1    1
    11     1     2   ar
    12     2     3   ar
    13     3     4   ar
    14     4     5   ar
    15     4     6    1
    16     6     7    1
    17     7     8    1
    18     8     9    1
    19     9    10    1
    20    10    11   ar
    21    11    12   ar
    22    12    13   ar
    23    13    14   ar
    24    14    15   ar
    25    21    22   ar
    26    22    23   ar
    27    28    29   ar
    28    29    25   ar
    29    23    18   ar
    30     5     1   ar
    31    15    10   ar
    32     9     3    1
    33    16    17    1
@<TRIPOS>MOLECULE
*****
 29 33 0 0 0
SMALL
GASTEIGER

@<TRIPOS>ATOM
      1 C          -1.0286    3.6678   20.5678 C.ar    1  UNL1        0.1629
      2 N          -1.0053    3.6897   22.0675 N.ar    1  UNL1       -0.2284
      3 C          -2.4192    3.5742   22.5549 C.ar    1  UNL1        0.0666
      4 C          -3.3164    3.4810   21.3564 C.ar    1  UNL1        0.0237
      5 S          -2.4570    3.5388   20.1284 S.2     1  UNL1       -0.0561
      6 C          -4.8001    3.3555   21.5381 C.3     1  UNL1        0.0343
      7 C          -5.3865    3.3232   22.9183 C.3     1  UNL1        0.0060
      8 C          -4.4893    3.4165   24.1168 C.3     1  UNL1        0.0107
      9 C          -3.0056    3.5420   23.9351 C.3     1  UNL1        0.0627
     10 C          -2.1084    3.6352   25.1335 C.ar    1  UNL1       -0.0169
     11 C          -1.2320    2.4764   25.5063 C.ar    1  UNL1       -0.0039
     12 C          -0.3348    2.5697   26.7047 C.ar    1  UNL1       -0.0003
     13 C          -0.3140    3.8217   27.5305 C.ar    1  UNL1       -0.0000
     14 C          -1.1905    4.9805   27.1577 C.ar    1  UNL1       -0.0003
     15 C          -2.0877    4.8873   25.9593 C.ar    1  UNL1       -0.0039
     16 N           0.1665    3.7589   19.6660 N.pl3   1  UNL1       -0.2927
     17 H           0.4000    4.6168   19.2434 H       1  UNL1        0.1541
     18 C           2.6848    0.1106   18.8925 C.ar    1  UNL1        0.0363
     19 C           3.1208    1.4473   18.3702 C.ar    1  UNL1        0.0044
     20 C           2.2814    2.6635   18.6280 C.ar    1  UNL1        0.0148
     21 C           1.0059    2.5428   19.4082 C.ar    1  UNL1        0.0497
     22 C           0.5699    1.2059   19.9305 C.ar    1  UNL1        0.0148
     23 C           1.4093   -0.0102   19.6726 C.ar    1  UNL1        0.0044
     24 C           4.4971   -4.8483   18.9667 C.3     1  UNL1        0.0950
     25 C           4.3572   -3.3849   18.6688 C.ar    1  UNL1        0.2062
     26 N           5.2746   -2.5690   17.8069 N.ar    1  UNL1       -0.2104
     27 C           4.7597   -1.1602   17.7858 C.ar    1  UNL1        0.1391
     28 C           3.5242   -1.1056   18.6346 C.ar    1  UNL1        0.1659
     29 O           3.2754   -2.4805   19.1803 O.2     1  UNL1       -0.4383
@<TRIPOS>BOND
     1    24    25    1
     2    25    26   ar
     3    26    27   ar
     4    27    28   ar
     5    28    18    1
     6    18    19   ar
     7    19    20   ar
     8    20    21   ar
     9    21    16    1
    10    16     1    1
    11     1     2   ar
    12     2     3   ar
    13     3     4   ar
    14     4     5   ar
    15     4     6    1
    16     6     7    1
    17     7     8    1
    18     8     9    1
    19     9    10    1
    20    10    11   ar
    21    11    12   ar
    22    12    13   ar
    23    13    14   ar
    24    14    15   ar
    25    21    22   ar
    26    22    23   ar
    27    28    29   ar
    28    29    25   ar
    29    23    18   ar
    30     5     1   ar
    31    15    10   ar
    32     9     3    1
    33    16    17    1
@<TRIPOS>MOLECULE
*****
 29 33 0 0 0
SMALL
GASTEIGER

@<TRIPOS>ATOM
      1 C          -1.2570    4.0662   19.4279 C.ar    1  UNL1        0.1629
      2 N          -2.2432    4.1327   20.5562 N.ar    1  UNL1       -0.2284
      3 C          -3.6223    4.0487   19.9720 C.ar    1  UNL1        0.0666
      4 C          -3.4883    3.9303   18.4827 C.ar    1  UNL1        0.0237
      5 S          -2.0266    3.9411   18.1465 S.2     1  UNL1       -0.0561
      6 C          -4.7147    3.8279   17.6252 C.3     1  UNL1        0.0343
      7 C          -6.0751    3.8440   18.2569 C.3     1  UNL1        0.0060
      8 C          -6.2090    3.9624   19.7462 C.3     1  UNL1        0.0107
      9 C          -4.9826    4.0647   20.6038 C.3     1  UNL1        0.0627
     10 C          -5.1165    4.1831   22.0931 C.ar    1  UNL1       -0.0169
     11 C          -4.6900    3.0488   22.9770 C.ar    1  UNL1       -0.0039
     12 C          -4.8239    3.1673   24.4663 C.ar    1  UNL1       -0.0003
     13 C          -5.3844    4.4200   25.0717 C.ar    1  UNL1       -0.0000
     14 C          -5.8110    5.5542   24.1878 C.ar    1  UNL1       -0.0003
     15 C          -5.6770    5.4358   22.6985 C.ar    1  UNL1       -0.0039
     16 N           0.2365    4.1160   19.5583 N.pl3   1  UNL1       -0.2927
     17 H           0.6807    4.9575   19.8109 H       1  UNL1        0.1541
     18 C           2.6864    0.4195   18.7944 C.ar    1  UNL1        0.0363
     19 C           1.3409    0.3057   19.4475 C.ar    1  UNL1        0.0044
     20 C           0.5242    1.5379   19.7022 C.ar    1  UNL1        0.0148
     21 C           1.0531    2.8839   19.3036 C.ar    1  UNL1        0.0497
     22 C           2.3987    2.9976   18.6505 C.ar    1  UNL1        0.0148
     23 C           3.2153    1.7654   18.3958 C.ar    1  UNL1        0.0044
     24 C           4.4635   -4.5499   18.9584 C.3     1  UNL1        0.0950
     25 C           4.3199   -3.0969   18.6151 C.ar    1  UNL1        0.2062
     26 N           5.1997   -2.3206   17.6805 N.ar    1  UNL1       -0.2104
     27 C           4.6948   -0.9088   17.6339 C.ar    1  UNL1        0.1391
     28 C           3.5031   -0.8127   18.5397 C.ar    1  UNL1        0.1659
     29 O           3.2714   -2.1650   19.1461 O.2     1  UNL1       -0.4383
@<TRIPOS>BOND
     1    24    25    1
     2    25    26   ar
     3    26    27   ar
     4    27    28   ar
     5    28    18    1
     6    18    19   ar
     7    19    20   ar
     8    20    21   ar
     9    21    16    1
    10    16     1    1
    11     1     2   ar
    12     2     3   ar
    13     3     4   ar
    14     4     5   ar
    15     4     6    1
    16     6     7    1
    17     7     8    1
    18     8     9    1
    19     9    10    1
    20    10    11   ar
    21    11    12   ar
    22    12    13   ar
    23    13    14   ar
    24    14    15   ar
    25    21    22   ar
    26    22    23   ar
    27    28    29   ar
    28    29    25   ar
    29    23    18   ar
    30     5     1   ar
    31    15    10   ar
    32     9     3    1
    33    16    17    1
@<TRIPOS>MOLECULE
*****
 29 33 0 0 0
SMALL
GASTEIGER

@<TRIPOS>ATOM
      1 C          -3.1120    3.0827   20.4566 C.ar    1  UNL1        0.1629
      2 N          -1.8192    2.3336   20.5892 N.ar    1  UNL1       -0.2284
      3 C          -0.7472    3.1355   19.9124 C.ar    1  UNL1        0.0666
      4 C          -1.3775    4.3802   19.3616 C.ar    1  UNL1        0.0237
      5 S          -2.8390    4.3476   19.6979 S.2     1  UNL1       -0.0561
      6 C          -0.5392    5.3825   18.6249 C.3     1  UNL1        0.0343
      7 C           0.9293    5.1400   18.4392 C.3     1  UNL1        0.0060
      8 C           1.5596    3.8953   18.9900 C.3     1  UNL1        0.0107
      9 C           0.7213    2.8930   19.7267 C.3     1  UNL1        0.0627
     10 C           1.3516    1.6483   20.2775 C.ar    1  UNL1       -0.0169
     11 C           1.0512    0.3170   19.6552 C.ar    1  UNL1       -0.0039
     12 C           1.6814   -0.9277   20.2061 C.ar    1  UNL1       -0.0003
     13 C           2.6121   -0.8411   21.3793 C.ar    1  UNL1       -0.0000
     14 C           2.9125    0.4902   22.0016 C.ar    1  UNL1       -0.0003
     15 C           2.2822    1.7349   21.4507 C.ar    1  UNL1       -0.0039
     16 N          -4.4438    2.6440   20.9891 N.pl3   1  UNL1       -0.2927
     17 H          -4.8953    1.8601   20.6008 H       1  UNL1        0.1541
     18 C          -6.3760    4.9113   24.3620 C.ar    1  UNL1        0.0363
     19 C          -6.9188    5.0326   22.9689 C.ar    1  UNL1        0.0044
     20 C          -6.2747    4.2768   21.8446 C.ar    1  UNL1        0.0148
     21 C          -5.0879    3.3998   22.1134 C.ar    1  UNL1        0.0497
     22 C          -4.5451    3.2785   23.5065 C.ar    1  UNL1        0.0148
     23 C          -5.1892    4.0343   24.6308 C.ar    1  UNL1        0.0044
     24 C          -7.3512    6.9447   29.1364 C.3     1  UNL1        0.0950
     25 C          -7.4683    6.6017   27.6809 C.ar    1  UNL1        0.2062
     26 N          -8.5540    7.0584   26.7520 N.ar    1  UNL1       -0.2104
     27 C          -8.2770    6.4807   25.3956 C.ar    1  UNL1        0.1391
     28 C          -7.0201    5.6671   25.4863 C.ar    1  UNL1        0.1659
     29 O          -6.5203    5.7419   26.8986 O.2     1  UNL1       -0.4383
@<TRIPOS>BOND
     1    24    25    1
     2    25    26   ar
     3    26    27   ar
     4    27    28   ar
     5    28    18    1
     6    18    19   ar
     7    19    20   ar
     8    20    21   ar
     9    21    16    1
    10    16     1    1
    11     1     2   ar
    12     2     3   ar
    13     3     4   ar
    14     4     5   ar
    15     4     6    1
    16     6     7    1
    17     7     8    1
    18     8     9    1
    19     9    10    1
    20    10    11   ar
    21    11    12   ar
    22    12    13   ar
    23    13    14   ar
    24    14    15   ar
    25    21    22   ar
    26    22    23   ar
    27    28    29   ar
    28    29    25   ar
    29    23    18   ar
    30     5     1   ar
    31    15    10   ar
    32     9     3    1
    33    16    17    1
@<TRIPOS>MOLECULE
*****
 29 33 0 0 0
SMALL
GASTEIGER

@<TRIPOS>ATOM
      1 C           3.2093   -0.0396   25.0368 C.ar    1  UNL1        0.1629
      2 N           2.8843    0.0131   23.5734 N.ar    1  UNL1       -0.2284
      3 C           3.5377   -1.1634   22.9108 C.ar    1  UNL1        0.0666
      4 C           4.2666   -1.9432   23.9647 C.ar    1  UNL1        0.0237
      5 S           4.0635   -1.2486   25.2786 S.2     1  UNL1       -0.0561
      6 C           5.0209   -3.1849   23.5918 C.3     1  UNL1        0.0343
      7 C           5.0464   -3.6468   22.1650 C.3     1  UNL1        0.0060
      8 C           4.3176   -2.8671   21.1110 C.3     1  UNL1        0.0107
      9 C           3.5633   -1.6253   21.4839 C.3     1  UNL1        0.0627
     10 C           2.8344   -0.8456   20.4300 C.ar    1  UNL1       -0.0169
     11 C           3.5432   -0.4417   19.1713 C.ar    1  UNL1       -0.0039
     12 C           2.8144    0.3381   18.1173 C.ar    1  UNL1       -0.0003
     13 C           1.3768    0.7140   18.3221 C.ar    1  UNL1       -0.0000
     14 C           0.6680    0.3101   19.5808 C.ar    1  UNL1       -0.0003
     15 C           1.3968   -0.4697   20.6348 C.ar    1  UNL1       -0.0039
     16 N           2.7591    0.9440   26.0759 N.pl3   1  UNL1       -0.2927
     17 H           3.3640    1.1951   26.8109 H       1  UNL1        0.1541
     18 C          -1.3566    2.7475   25.8335 C.ar    1  UNL1        0.0363
     19 C          -0.3380    3.0589   24.7774 C.ar    1  UNL1        0.0044
     20 C           1.0340    2.4577   24.8582 C.ar    1  UNL1        0.0148
     21 C           1.3872    1.5452   25.9951 C.ar    1  UNL1        0.0497
     22 C           0.3685    1.2338   27.0512 C.ar    1  UNL1        0.0148
     23 C          -1.0034    1.8349   26.9704 C.ar    1  UNL1        0.0044
     24 C          -6.0614    4.2950   24.0032 C.3     1  UNL1        0.0950
     25 C          -4.8911    4.0600   24.9114 C.ar    1  UNL1        0.2062
     26 N          -4.7883    4.4874   26.3456 N.ar    1  UNL1       -0.2104
     27 C          -3.4516    4.0478   26.8656 C.ar    1  UNL1        0.1391
     28 C          -2.7286    3.3486   25.7527 C.ar    1  UNL1        0.1659
     29 O          -3.6182    3.3562   24.5451 O.2     1  UNL1       -0.4383
@<TRIPOS>BOND
     1    24    25    1
     2    25    26   ar
     3    26    27   ar
     4    27    28   ar
     5    28    18    1
     6    18    19   ar
     7    19    20   ar
     8    20    21   ar
     9    21    16    1
    10    16     1    1
    11     1     2   ar
    12     2     3   ar
    13     3     4   ar
    14     4     5   ar
    15     4     6    1
    16     6     7    1
    17     7     8    1
    18     8     9    1
    19     9    10    1
    20    10    11   ar
    21    11    12   ar
    22    12    13   ar
    23    13    14   ar
    24    14    15   ar
    25    21    22   ar
    26    22    23   ar
    27    28    29   ar
    28    29    25   ar
    29    23    18   ar
    30     5     1   ar
    31    15    10   ar
    32     9     3    1
    33    16    17    1
@<TRIPOS>MOLECULE
*****
 29 33 0 0 0
SMALL
GASTEIGER

@<TRIPOS>ATOM
      1 C          -8.9124  -19.9552   22.9158 C.ar    1  UNL1        0.1629
      2 N          -9.1638  -18.6803   22.1665 N.ar    1  UNL1       -0.2284
      3 C         -10.5035  -18.1522   22.5866 C.ar    1  UNL1        0.0666
      4 C         -11.0800  -19.1007   23.5955 C.ar    1  UNL1        0.0237
      5 S         -10.0966  -20.2150   23.7990 S.2     1  UNL1       -0.0561
      6 C         -12.4259  -18.8272   24.1986 C.3     1  UNL1        0.0343
      7 C         -13.1952  -17.6052   23.7927 C.3     1  UNL1        0.0060
      8 C         -12.6187  -16.6567   22.7838 C.3     1  UNL1        0.0107
      9 C         -11.2728  -16.9302   22.1807 C.3     1  UNL1        0.0627
     10 C         -10.6963  -15.9817   21.1718 C.ar    1  UNL1       -0.0169
     11 C          -9.4675  -15.1884   21.5046 C.ar    1  UNL1       -0.0039
     12 C          -8.8910  -14.2399   20.4957 C.ar    1  UNL1       -0.0003
     13 C          -9.5432  -14.0847   19.1539 C.ar    1  UNL1       -0.0000
     14 C         -10.7720  -14.8779   18.8211 C.ar    1  UNL1       -0.0003
     15 C         -11.3485  -15.8264   19.8300 C.ar    1  UNL1       -0.0039
     16 N          -7.6911  -20.8186   22.8020 N.pl3   1  UNL1       -0.2927
     17 H          -7.7011  -21.7353   23.1609 H       1  UNL1        0.1541
     18 C          -3.9813  -19.2189   20.8200 C.ar    1  UNL1        0.0363
     19 C          -4.7075  -20.3866   20.2210 C.ar    1  UNL1        0.0044
     20 C          -5.9441  -20.9199   20.8816 C.ar    1  UNL1        0.0148
     21 C          -6.4545  -20.2854   22.1413 C.ar    1  UNL1        0.0497
     22 C          -5.7283  -19.1175   22.7404 C.ar    1  UNL1        0.0148
     23 C          -4.4917  -18.5843   22.0797 C.ar    1  UNL1        0.0044
     24 C           0.8988  -17.3513   20.0601 C.3     1  UNL1        0.0950
     25 C          -0.5015  -17.8271   19.8101 C.ar    1  UNL1        0.2062
     26 N          -1.1820  -17.9028   18.4754 N.ar    1  UNL1       -0.2104
     27 C          -2.5684  -18.4333   18.6913 C.ar    1  UNL1        0.1391
     28 C          -2.7446  -18.6856   20.1594 C.ar    1  UNL1        0.1659
     29 O          -1.4673  -18.3109   20.8508 O.2     1  UNL1       -0.4383
@<TRIPOS>BOND
     1    24    25    1
     2    25    26   ar
     3    26    27   ar
     4    27    28   ar
     5    28    18    1
     6    18    19   ar
     7    19    20   ar
     8    20    21   ar
     9    21    16    1
    10    16     1    1
    11     1     2   ar
    12     2     3   ar
    13     3     4   ar
    14     4     5   ar
    15     4     6    1
    16     6     7    1
    17     7     8    1
    18     8     9    1
    19     9    10    1
    20    10    11   ar
    21    11    12   ar
    22    12    13   ar
    23    13    14   ar
    24    14    15   ar
    25    21    22   ar
    26    22    23   ar
    27    28    29   ar
    28    29    25   ar
    29    23    18   ar
    30     5     1   ar
    31    15    10   ar
    32     9     3    1
    33    16    17    1
@<TRIPOS>MOLECULE
*****
 29 33 0 0 0
SMALL
GASTEIGER

@<TRIPOS>ATOM
      1 C           5.5771   -1.6091   23.1737 C.ar    1  UNL1        0.1629
      2 N           4.5431   -1.0559   22.2384 N.ar    1  UNL1       -0.2284
      3 C           4.4366   -1.9831   21.0641 C.ar    1  UNL1        0.0666
      4 C           5.4048   -3.1094   21.2736 C.ar    1  UNL1        0.0237
      5 S           6.1096   -2.8783   22.5774 S.2     1  UNL1       -0.0561
      6 C           5.5195   -4.1999   20.2501 C.3     1  UNL1        0.0343
      7 C           4.6661   -4.1641   19.0172 C.3     1  UNL1        0.0060
      8 C           3.6978   -3.0378   18.8077 C.3     1  UNL1        0.0107
      9 C           3.5831   -1.9472   19.8312 C.3     1  UNL1        0.0627
     10 C           2.6149   -0.8209   19.6217 C.ar    1  UNL1       -0.0169
     11 C           1.3407   -0.7705   20.4114 C.ar    1  UNL1       -0.0039
     12 C           0.3725    0.3558   20.2020 C.ar    1  UNL1       -0.0003
     13 C           0.6785    1.4318   19.2027 C.ar    1  UNL1       -0.0000
     14 C           1.9527    1.3814   18.4129 C.ar    1  UNL1       -0.0003
     15 C           2.9209    0.2551   18.6224 C.ar    1  UNL1       -0.0039
     16 N           6.0036   -1.0002   24.4765 N.pl3   1  UNL1       -0.2927
     17 H           6.9593   -0.8528   24.6615 H       1  UNL1        0.1541
     18 C           2.9150    0.1531   27.5392 C.ar    1  UNL1        0.0363
     19 C           3.2549    1.0974   26.4245 C.ar    1  UNL1        0.0044
     20 C           4.2844    0.7130   25.4035 C.ar    1  UNL1        0.0148
     21 C           4.9741   -0.6158   25.4974 C.ar    1  UNL1        0.0497
     22 C           4.6342   -1.5601   26.6122 C.ar    1  UNL1        0.0148
     23 C           3.6047   -1.1757   27.6331 C.ar    1  UNL1        0.0044
     24 C           0.4680    2.5952   31.5303 C.3     1  UNL1        0.0950
     25 C           0.7607    1.6600   30.3947 C.ar    1  UNL1        0.2062
     26 N          -0.1583    0.5980   29.8678 N.ar    1  UNL1       -0.2104
     27 C           0.5369   -0.0958   28.7340 C.ar    1  UNL1        0.1391
     28 C           1.8855    0.5375   28.5602 C.ar    1  UNL1        0.1659
     29 O           2.0238    1.6226   29.5865 O.2     1  UNL1       -0.4383
@<TRIPOS>BOND
     1    24    25    1
     2    25    26   ar
     3    26    27   ar
     4    27    28   ar
     5    28    18    1
     6    18    19   ar
     7    19    20   ar
     8    20    21   ar
     9    21    16    1
    10    16     1    1
    11     1     2   ar
    12     2     3   ar
    13     3     4   ar
    14     4     5   ar
    15     4     6    1
    16     6     7    1
    17     7     8    1
    18     8     9    1
    19     9    10    1
    20    10    11   ar
    21    11    12   ar
    22    12    13   ar
    23    13    14   ar
    24    14    15   ar
    25    21    22   ar
    26    22    23   ar
    27    28    29   ar
    28    29    25   ar
    29    23    18   ar
    30     5     1   ar
    31    15    10   ar
    32     9     3    1
    33    16    17    1
@<TRIPOS>MOLECULE
*****
 29 33 0 0 0
SMALL
GASTEIGER

@<TRIPOS>ATOM
      1 C           6.0245   -1.5459   28.3063 C.ar    1  UNL1        0.1629
      2 N           6.5023   -2.9508   28.0877 N.ar    1  UNL1       -0.2284
      3 C           6.6205   -3.6142   29.4278 C.ar    1  UNL1        0.0666
      4 C           6.2157   -2.6192   30.4748 C.ar    1  UNL1        0.0237
      5 S           5.8473   -1.3409   29.7817 S.2     1  UNL1       -0.0561
      6 C           6.2348   -3.0057   31.9240 C.3     1  UNL1        0.0343
      7 C           6.6587   -4.3871   32.3262 C.3     1  UNL1        0.0060
      8 C           7.0635   -5.3821   31.2792 C.3     1  UNL1        0.0107
      9 C           7.0444   -4.9956   29.8300 C.3     1  UNL1        0.0627
     10 C           7.4492   -5.9906   28.7831 C.ar    1  UNL1       -0.0169
     11 C           6.6931   -6.0682   27.4899 C.ar    1  UNL1       -0.0039
     12 C           7.0979   -7.0631   26.4429 C.ar    1  UNL1       -0.0003
     13 C           8.2588   -7.9806   26.6891 C.ar    1  UNL1       -0.0000
     14 C           9.0148   -7.9030   27.9823 C.ar    1  UNL1       -0.0003
     15 C           8.6100   -6.9080   29.0292 C.ar    1  UNL1       -0.0039
     16 N           5.7687   -0.5251   27.2374 N.pl3   1  UNL1       -0.2927
     17 H           5.8482    0.4342   27.4437 H       1  UNL1        0.1541
     18 C           4.6378   -1.8479   23.0875 C.ar    1  UNL1        0.0363
     19 C           3.5775   -1.3843   24.0419 C.ar    1  UNL1        0.0044
     20 C           3.9545   -0.9434   25.4253 C.ar    1  UNL1        0.0148
     21 C           5.3917   -0.9660   25.8541 C.ar    1  UNL1        0.0497
     22 C           6.4520   -1.4296   24.8996 C.ar    1  UNL1        0.0148
     23 C           6.0750   -1.8705   23.5164 C.ar    1  UNL1        0.0044
     24 C           4.2422   -4.6920   18.6564 C.3     1  UNL1        0.0950
     25 C           4.0790   -3.5961   19.6674 C.ar    1  UNL1        0.2062
     26 N           3.2825   -2.3384   19.4836 N.ar    1  UNL1       -0.2104
     27 C           3.3949   -1.5304   20.7424 C.ar    1  UNL1        0.1391
     28 C           4.2608   -2.2888   21.7042 C.ar    1  UNL1        0.1659
     29 O           4.6837   -3.5654   21.0398 O.2     1  UNL1       -0.4383
@<TRIPOS>BOND
     1    24    25    1
     2    25    26   ar
     3    26    27   ar
     4    27    28   ar
     5    28    18    1
     6    18    19   ar
     7    19    20   ar
     8    20    21   ar
     9    21    16    1
    10    16     1    1
    11     1     2   ar
    12     2     3   ar
    13     3     4   ar
    14     4     5   ar
    15     4     6    1
    16     6     7    1
    17     7     8    1
    18     8     9    1
    19     9    10    1
    20    10    11   ar
    21    11    12   ar
    22    12    13   ar
    23    13    14   ar
    24    14    15   ar
    25    21    22   ar
    26    22    23   ar
    27    28    29   ar
    28    29    25   ar
    29    23    18   ar
    30     5     1   ar
    31    15    10   ar
    32     9     3    1
    33    16    17    1
