@<TRIPOS>MOLECULE
*****
 34 38 0 0 0
SMALL
GASTEIGER

@<TRIPOS>ATOM
      1 C           8.8929   -7.1510   26.2957 C.ar    1  UNL1       -0.0199
      2 C           9.0821   -7.7383   24.9285 C.ar    1  UNL1        0.0269
      3 C           8.5063   -7.0462   23.7287 C.ar    1  UNL1        0.1573
      4 F           8.6956   -7.6335   22.3615 F       1  UNL1       -0.2026
      5 C           7.7414   -5.7668   23.8961 C.ar    1  UNL1        0.1097
      6 N           7.1656   -5.0747   22.6963 N.ar    1  UNL1       -0.2283
      7 C           6.4007   -3.7954   22.8637 C.ar    1  UNL1        0.1359
      8 C           6.2114   -3.2081   24.2310 C.ar    1  UNL1        0.0837
      9 C           6.7872   -3.9002   25.4308 C.ar    1  UNL1       -0.0130
     10 C           6.5980   -3.3129   26.7980 C.3     1  UNL1        0.0313
     11 C           7.5522   -5.1796   25.2633 C.ar    1  UNL1        0.0159
     12 C           8.1279   -5.8717   26.4631 C.ar    1  UNL1       -0.0029
     13 N           5.8249   -3.1033   21.6639 N.pl3   1  UNL1       -0.2930
     14 C           6.5798   -1.9843   21.0096 C.3     1  UNL1        0.0935
     15 C           6.0040   -1.2922   19.8098 C.3     1  UNL1        0.0372
     16 C           4.6735   -1.7191   19.2643 C.3     1  UNL1        0.0574
     17 C           3.9187   -2.8380   19.9187 C.3     1  UNL1        0.0372
     18 C           4.4945   -3.5301   21.1185 C.3     1  UNL1        0.0935
     19 N           4.0977   -1.0270   18.0645 N.3     1  UNL1       -0.2994
     20 H           3.4452   -1.6810   17.6323 H       1  UNL1        0.1232
     21 C           3.3649    0.2717   18.2277 C.3     1  UNL1        0.0590
     22 C           1.8688    0.2805   18.3337 C.3     1  UNL1        0.0478
     23 C           1.1360    1.5792   18.4968 C.3     1  UNL1        0.1435
     24 O           1.8995    2.8690   18.5539 O.3     1  UNL1       -0.3537
     25 C           3.3958    2.8602   18.4479 C.3     1  UNL1        0.1435
     26 C           4.1284    1.5616   18.2848 C.3     1  UNL1        0.0478
     27 C           5.4465   -1.9287   24.3984 C.ar    1  UNL1        0.2621
     28 N           3.9582   -1.7716   24.2969 N.ar    1  UNL1       -0.1910
     29 C           3.6274   -0.3276   24.5325 C.ar    1  UNL1        0.1812
     30 C           2.2539    0.2752   24.5227 C.3     1  UNL1        0.0773
     31 N           4.9113    0.4077   24.7796 N.ar    1  UNL1       -0.0602
     32 O           6.0355   -0.5819   24.6967 O.2     1  UNL1       -0.3327
     33 C           9.3939   -9.3371   27.6073 C.3     1  UNL1        0.0050
     34 C           9.4686   -7.8431   27.4955 C.3     1  UNL1        0.0264
@<TRIPOS>BOND
     1    33    34    1
     2    34     1    1
     3     1     2   ar
     4     2     3   ar
     5     3     4    1
     6     3     5   ar
     7     5     6   ar
     8     6     7   ar
     9     7    13    1
    10    13    14    1
    11    14    15    1
    12    15    16    1
    13    16    19    1
    14    19    21    1
    15    21    22    1
    16    22    23    1
    17    23    24    1
    18    24    25    1
    19    25    26    1
    20    16    17    1
    21    17    18    1
    22     7     8   ar
    23     8    27    1
    24    27    28   ar
    25    28    29   ar
    26    29    30    1
    27    29    31   ar
    28    31    32   ar
    29     8     9   ar
    30     9    10    1
    31     9    11   ar
    32    11    12   ar
    33    12     1   ar
    34    11     5   ar
    35    18    13    1
    36    32    27   ar
    37    26    21    1
    38    19    20    1
@<TRIPOS>MOLECULE
*****
 34 38 0 0 0
SMALL
GASTEIGER

@<TRIPOS>ATOM
      1 C           7.3297   -5.7855   27.4624 C.ar    1  UNL1       -0.0199
      2 C           7.7942   -6.4576   28.7203 C.ar    1  UNL1        0.0269
      3 C           7.5898   -5.7890   30.0474 C.ar    1  UNL1        0.1573
      4 F           8.0543   -6.4612   31.3054 F       1  UNL1       -0.2026
      5 C           6.9209   -4.4482   30.1165 C.ar    1  UNL1        0.1097
      6 N           6.7165   -3.7795   31.4436 N.ar    1  UNL1       -0.2283
      7 C           6.0476   -2.4387   31.5128 C.ar    1  UNL1        0.1359
      8 C           5.5831   -1.7665   30.2548 C.ar    1  UNL1        0.0837
      9 C           5.7875   -2.4352   28.9277 C.ar    1  UNL1       -0.0130
     10 C           5.3230   -1.7630   27.6698 C.3     1  UNL1        0.0313
     11 C           6.4564   -3.7760   28.8586 C.ar    1  UNL1        0.0159
     12 C           6.6608   -4.4447   27.5315 C.ar    1  UNL1       -0.0029
     13 N           5.8432   -1.7701   32.8398 N.pl3   1  UNL1       -0.2930
     14 C           4.5557   -1.9610   33.5854 C.3     1  UNL1        0.0935
     15 C           4.3513   -1.2923   34.9125 C.3     1  UNL1        0.0372
     16 C           5.4344   -0.4328   35.4940 C.3     1  UNL1        0.0574
     17 C           6.7219   -0.2419   34.7484 C.3     1  UNL1        0.0372
     18 C           6.9263   -0.9106   33.4213 C.3     1  UNL1        0.0935
     19 N           5.2300    0.2359   36.8210 N.3     1  UNL1       -0.2994
     20 H           6.0580    0.8058   36.9943 H       1  UNL1        0.1232
     21 C           4.0403    1.1233   37.0384 C.3     1  UNL1        0.0590
     22 C           3.1988    0.9614   38.2695 C.3     1  UNL1        0.0478
     23 C           2.0091    1.8488   38.4868 C.3     1  UNL1        0.1435
     24 O           1.6610    2.8981   37.4731 O.3     1  UNL1       -0.3537
     25 C           2.5026    3.0600   36.2419 C.3     1  UNL1        0.1435
     26 C           3.6922    2.1726   36.0246 C.3     1  UNL1        0.0478
     27 C           4.9142   -0.4257   30.3239 C.ar    1  UNL1        0.2621
     28 N           3.4444   -0.1815   30.4975 N.ar    1  UNL1       -0.1910
     29 C           3.2195    1.3014   30.5125 C.ar    1  UNL1        0.1812
     30 C           1.8962    1.9910   30.6651 C.3     1  UNL1        0.0773
     31 N           4.5503    1.9738   30.3481 N.ar    1  UNL1       -0.0602
     32 O           5.5977    0.9063   30.2316 O.2     1  UNL1       -0.3327
     33 C           7.6252   -7.9492   26.0549 C.3     1  UNL1        0.0050
     34 C           7.5341   -6.4541   26.1353 C.3     1  UNL1        0.0264
@<TRIPOS>BOND
     1    33    34    1
     2    34     1    1
     3     1     2   ar
     4     2     3   ar
     5     3     4    1
     6     3     5   ar
     7     5     6   ar
     8     6     7   ar
     9     7    13    1
    10    13    14    1
    11    14    15    1
    12    15    16    1
    13    16    19    1
    14    19    21    1
    15    21    22    1
    16    22    23    1
    17    23    24    1
    18    24    25    1
    19    25    26    1
    20    16    17    1
    21    17    18    1
    22     7     8   ar
    23     8    27    1
    24    27    28   ar
    25    28    29   ar
    26    29    30    1
    27    29    31   ar
    28    31    32   ar
    29     8     9   ar
    30     9    10    1
    31     9    11   ar
    32    11    12   ar
    33    12     1   ar
    34    11     5   ar
    35    18    13    1
    36    32    27   ar
    37    26    21    1
    38    19    20    1
@<TRIPOS>MOLECULE
*****
 34 38 0 0 0
SMALL
GASTEIGER

@<TRIPOS>ATOM
      1 C           0.8659    5.1504   35.0469 C.ar    1  UNL1       -0.0199
      2 C           1.7642    4.6938   36.1579 C.ar    1  UNL1        0.0269
      3 C           2.6700    3.5157   35.9540 C.ar    1  UNL1        0.1573
      4 F           3.5683    3.0590   37.0651 F       1  UNL1       -0.2026
      5 C           2.6774    2.7942   34.6389 C.ar    1  UNL1        0.1097
      6 N           3.5832    1.6161   34.4350 N.ar    1  UNL1       -0.2283
      7 C           3.5907    0.8946   33.1199 C.ar    1  UNL1        0.1359
      8 C           2.6924    1.3512   32.0088 C.ar    1  UNL1        0.0837
      9 C           1.7866    2.5293   32.2128 C.ar    1  UNL1       -0.0130
     10 C           0.8883    2.9859   31.1017 C.3     1  UNL1        0.0313
     11 C           1.7791    3.2508   33.5279 C.ar    1  UNL1        0.0159
     12 C           0.8734    4.4289   33.7319 C.ar    1  UNL1       -0.0029
     13 N           4.4965   -0.2835   32.9159 N.pl3   1  UNL1       -0.2930
     14 C           4.0066   -1.6680   33.2215 C.3     1  UNL1        0.0935
     15 C           4.9124   -2.8461   33.0176 C.3     1  UNL1        0.0372
     16 C           6.3080   -2.6398   32.5080 C.3     1  UNL1        0.0574
     17 C           6.7979   -1.2554   32.2024 C.3     1  UNL1        0.0372
     18 C           5.8921   -0.0772   32.4064 C.3     1  UNL1        0.0935
     19 N           7.2138   -3.8179   32.3040 N.3     1  UNL1       -0.2994
     20 H           6.9475   -4.5175   32.9969 H       1  UNL1        0.1232
     21 C           7.2499   -4.5152   30.9764 C.3     1  UNL1        0.0590
     22 C           8.0046   -5.8026   30.8257 C.3     1  UNL1        0.0478
     23 C           8.0408   -6.4999   29.4980 C.3     1  UNL1        0.1435
     24 O           7.3221   -5.9097   28.3211 O.3     1  UNL1       -0.3537
     25 C           6.5674   -4.6221   28.4718 C.3     1  UNL1        0.1435
     26 C           6.5313   -3.9249   29.7994 C.3     1  UNL1        0.0478
     27 C           2.6998    0.6297   30.6938 C.ar    1  UNL1        0.2621
     28 N           3.6873    0.8317   29.5828 N.ar    1  UNL1       -0.1910
     29 C           3.3189   -0.0936   28.4612 C.ar    1  UNL1        0.1812
     30 C           4.0392   -0.2225   27.1518 C.3     1  UNL1        0.0773
     31 N           2.1037   -0.8675   28.8790 N.ar    1  UNL1       -0.0602
     32 O           1.7211   -0.4204   30.2587 O.2     1  UNL1       -0.3327
     33 C          -0.5565    6.6488   36.6221 C.3     1  UNL1        0.0050
     34 C          -0.0399    6.3285   35.2509 C.3     1  UNL1        0.0264
@<TRIPOS>BOND
     1    33    34    1
     2    34     1    1
     3     1     2   ar
     4     2     3   ar
     5     3     4    1
     6     3     5   ar
     7     5     6   ar
     8     6     7   ar
     9     7    13    1
    10    13    14    1
    11    14    15    1
    12    15    16    1
    13    16    19    1
    14    19    21    1
    15    21    22    1
    16    22    23    1
    17    23    24    1
    18    24    25    1
    19    25    26    1
    20    16    17    1
    21    17    18    1
    22     7     8   ar
    23     8    27    1
    24    27    28   ar
    25    28    29   ar
    26    29    30    1
    27    29    31   ar
    28    31    32   ar
    29     8     9   ar
    30     9    10    1
    31     9    11   ar
    32    11    12   ar
    33    12     1   ar
    34    11     5   ar
    35    18    13    1
    36    32    27   ar
    37    26    21    1
    38    19    20    1
@<TRIPOS>MOLECULE
*****
 34 38 0 0 0
SMALL
GASTEIGER

@<TRIPOS>ATOM
      1 C           4.2215   -2.8584   19.8225 C.ar    1  UNL1       -0.0199
      2 C           4.5816   -3.1005   21.2584 C.ar    1  UNL1        0.0269
      3 C           3.9987   -2.2329   22.3343 C.ar    1  UNL1        0.1573
      4 F           4.3589   -2.4751   23.7702 F       1  UNL1       -0.2026
      5 C           3.0559   -1.1233   21.9744 C.ar    1  UNL1        0.1097
      6 N           2.4731   -0.2557   23.0503 N.ar    1  UNL1       -0.2283
      7 C           1.5302    0.8540   22.6904 C.ar    1  UNL1        0.1359
      8 C           1.1701    1.0961   21.2545 C.ar    1  UNL1        0.0837
      9 C           1.7529    0.2285   20.1786 C.ar    1  UNL1       -0.0130
     10 C           1.3928    0.4706   18.7427 C.3     1  UNL1        0.0313
     11 C           2.6958   -0.8812   20.5385 C.ar    1  UNL1        0.0159
     12 C           3.2786   -1.7488   19.4626 C.ar    1  UNL1       -0.0029
     13 N           0.9474    1.7216   23.7663 N.pl3   1  UNL1       -0.2930
     14 C           1.2200    3.1966   23.7702 C.3     1  UNL1        0.0935
     15 C           0.6372    4.0642   24.8461 C.3     1  UNL1        0.0372
     16 C          -0.2183    3.4567   25.9182 C.3     1  UNL1        0.0574
     17 C          -0.4908    1.9817   25.9143 C.3     1  UNL1        0.0372
     18 C           0.0920    1.1142   24.8384 C.3     1  UNL1        0.0935
     19 N          -0.8011    4.3243   26.9941 N.3     1  UNL1       -0.2994
     20 H          -0.1769    5.1243   27.0977 H       1  UNL1        0.1232
     21 C          -2.1887    4.8742   26.8447 C.3     1  UNL1        0.0590
     22 C          -3.3419    3.9453   26.6059 C.3     1  UNL1        0.0478
     23 C          -4.7295    4.4952   26.4564 C.3     1  UNL1        0.1435
     24 O          -4.9637    5.9741   26.5457 O.3     1  UNL1       -0.3537
     25 C          -3.8104    6.9031   26.7846 C.3     1  UNL1        0.1435
     26 C          -2.4229    6.3531   26.9340 C.3     1  UNL1        0.0478
     27 C           0.2272    2.2058   20.8946 C.ar    1  UNL1        0.2621
     28 N          -1.2704    2.1445   20.9543 N.ar    1  UNL1       -0.1910
     29 C          -1.8068    3.4724   20.5083 C.ar    1  UNL1        0.1812
     30 C          -3.2550    3.8517   20.4142 C.3     1  UNL1        0.0773
     31 N          -0.6407    4.3544   20.1731 N.ar    1  UNL1       -0.0602
     32 O           0.6163    3.5716   20.4118 O.2     1  UNL1       -0.3327
     33 C           4.5973   -5.2111   18.7864 C.3     1  UNL1        0.0050
     34 C           4.8043   -3.7260   18.7466 C.3     1  UNL1        0.0264
@<TRIPOS>BOND
     1    33    34    1
     2    34     1    1
     3     1     2   ar
     4     2     3   ar
     5     3     4    1
     6     3     5   ar
     7     5     6   ar
     8     6     7   ar
     9     7    13    1
    10    13    14    1
    11    14    15    1
    12    15    16    1
    13    16    19    1
    14    19    21    1
    15    21    22    1
    16    22    23    1
    17    23    24    1
    18    24    25    1
    19    25    26    1
    20    16    17    1
    21    17    18    1
    22     7     8   ar
    23     8    27    1
    24    27    28   ar
    25    28    29   ar
    26    29    30    1
    27    29    31   ar
    28    31    32   ar
    29     8     9   ar
    30     9    10    1
    31     9    11   ar
    32    11    12   ar
    33    12     1   ar
    34    11     5   ar
    35    18    13    1
    36    32    27   ar
    37    26    21    1
    38    19    20    1
@<TRIPOS>MOLECULE
*****
 34 38 0 0 0
SMALL
GASTEIGER

@<TRIPOS>ATOM
      1 C           4.1706   -3.0683   19.8894 C.ar    1  UNL1       -0.0199
      2 C           4.6293   -3.3896   21.2810 C.ar    1  UNL1        0.0269
      3 C           4.1652   -2.5523   22.4357 C.ar    1  UNL1        0.1573
      4 F           4.6239   -2.8736   23.8273 F       1  UNL1       -0.2026
      5 C           3.2425   -1.3936   22.1990 C.ar    1  UNL1        0.1097
      6 N           2.7784   -0.5563   23.3538 N.ar    1  UNL1       -0.2283
      7 C           1.8556    0.6023   23.1171 C.ar    1  UNL1        0.1359
      8 C           1.3969    0.9236   21.7255 C.ar    1  UNL1        0.0837
      9 C           1.8610    0.0863   20.5707 C.ar    1  UNL1       -0.0130
     10 C           1.4023    0.4076   19.1792 C.3     1  UNL1        0.0313
     11 C           2.7838   -1.0723   20.8075 C.ar    1  UNL1        0.0159
     12 C           3.2479   -1.9097   19.6527 C.ar    1  UNL1       -0.0029
     13 N           1.3915    1.4396   24.2719 N.pl3   1  UNL1       -0.2930
     14 C           0.0677    1.1575   24.9186 C.3     1  UNL1        0.0935
     15 C          -0.3964    1.9948   26.0734 C.3     1  UNL1        0.0372
     16 C           0.4633    3.1142   26.5814 C.3     1  UNL1        0.0574
     17 C           1.7870    3.3962   25.9347 C.3     1  UNL1        0.0372
     18 C           2.2511    2.5589   24.7799 C.3     1  UNL1        0.0935
     19 N          -0.0008    3.9515   27.7362 N.3     1  UNL1       -0.2994
     20 H          -1.0169    3.8693   27.7700 H       1  UNL1        0.1232
     21 C           0.5030    3.6659   29.1200 C.3     1  UNL1        0.0590
     22 C           0.9915    4.7883   29.9869 C.3     1  UNL1        0.0478
     23 C           1.4952    4.5026   31.3706 C.3     1  UNL1        0.1435
     24 O           1.5104    3.0946   31.8874 O.3     1  UNL1       -0.3537
     25 C           1.0219    1.9721   31.0205 C.3     1  UNL1        0.1435
     26 C           0.5182    2.2578   29.6368 C.3     1  UNL1        0.0478
     27 C           0.4741    2.0822   21.4888 C.ar    1  UNL1        0.2621
     28 N          -0.9636    1.9932   21.0703 N.ar    1  UNL1       -0.1910
     29 C          -1.4992    3.3892   20.9519 C.ar    1  UNL1        0.1812
     30 C          -2.8962    3.7671   20.5574 C.3     1  UNL1        0.0773
     31 N          -0.3925    4.3412   21.2971 N.ar    1  UNL1       -0.0602
     32 O           0.8270    3.5334   21.6289 O.2     1  UNL1       -0.3327
     33 C           4.5074   -5.3990   18.7921 C.3     1  UNL1        0.0050
     34 C           4.6347   -3.9056   18.7347 C.3     1  UNL1        0.0264
@<TRIPOS>BOND
     1    33    34    1
     2    34     1    1
     3     1     2   ar
     4     2     3   ar
     5     3     4    1
     6     3     5   ar
     7     5     6   ar
     8     6     7   ar
     9     7    13    1
    10    13    14    1
    11    14    15    1
    12    15    16    1
    13    16    19    1
    14    19    21    1
    15    21    22    1
    16    22    23    1
    17    23    24    1
    18    24    25    1
    19    25    26    1
    20    16    17    1
    21    17    18    1
    22     7     8   ar
    23     8    27    1
    24    27    28   ar
    25    28    29   ar
    26    29    30    1
    27    29    31   ar
    28    31    32   ar
    29     8     9   ar
    30     9    10    1
    31     9    11   ar
    32    11    12   ar
    33    12     1   ar
    34    11     5   ar
    35    18    13    1
    36    32    27   ar
    37    26    21    1
    38    19    20    1
@<TRIPOS>MOLECULE
*****
 34 38 0 0 0
SMALL
GASTEIGER

@<TRIPOS>ATOM
      1 C           4.2342   -2.4822   21.2241 C.ar    1  UNL1       -0.0199
      2 C           5.0482   -3.2291   22.2387 C.ar    1  UNL1        0.0269
      3 C           4.9657   -2.8551   23.6890 C.ar    1  UNL1        0.1573
      4 F           5.7798   -3.6020   24.7036 F       1  UNL1       -0.2026
      5 C           4.0692   -1.7342   24.1246 C.ar    1  UNL1        0.1097
      6 N           3.9867   -1.3602   25.5749 N.ar    1  UNL1       -0.2283
      7 C           3.0902   -0.2393   26.0106 C.ar    1  UNL1        0.1359
      8 C           2.2761    0.5076   24.9959 C.ar    1  UNL1        0.0837
      9 C           2.3586    0.1336   23.5457 C.ar    1  UNL1       -0.0130
     10 C           1.5446    0.8805   22.5310 C.3     1  UNL1        0.0313
     11 C           3.2552   -0.9873   23.1100 C.ar    1  UNL1        0.0159
     12 C           3.3377   -1.3613   21.6597 C.ar    1  UNL1       -0.0029
     13 N           3.0077    0.1347   27.4609 N.pl3   1  UNL1       -0.2930
     14 C           1.9579   -0.4833   28.3362 C.3     1  UNL1        0.0935
     15 C           1.8754   -0.1094   29.7865 C.3     1  UNL1        0.0372
     16 C           2.8426    0.8826   30.3614 C.3     1  UNL1        0.0574
     17 C           3.8923    1.5006   29.4861 C.3     1  UNL1        0.0372
     18 C           3.9748    1.1266   28.0358 C.3     1  UNL1        0.0935
     19 N           2.7601    1.2566   31.8117 N.3     1  UNL1       -0.2994
     20 H           1.7745    1.2152   32.0709 H       1  UNL1        0.1232
     21 C           3.5111    0.4585   32.8360 C.3     1  UNL1        0.0590
     22 C           3.8539    1.0720   34.1611 C.3     1  UNL1        0.0478
     23 C           4.6049    0.2738   35.1854 C.3     1  UNL1        0.1435
     24 O           5.0130   -1.1379   34.8844 O.3     1  UNL1       -0.3537
     25 C           4.6701   -1.7514   33.5592 C.3     1  UNL1        0.1435
     26 C           3.9192   -0.9532   32.5350 C.3     1  UNL1        0.0478
     27 C           1.3796    1.6285   25.4316 C.ar    1  UNL1        0.2621
     28 N          -0.0760    1.5109   25.7743 N.ar    1  UNL1       -0.1910
     29 C          -0.5740    2.8735   26.1556 C.ar    1  UNL1        0.1812
     30 C          -1.9740    3.2162   26.5710 C.3     1  UNL1        0.0773
     31 N           0.5739    3.8332   26.0485 N.ar    1  UNL1       -0.0602
     32 O           1.7812    3.0637   25.6010 O.2     1  UNL1       -0.3327
     33 C           3.5150   -4.0108   19.2502 C.3     1  UNL1        0.0050
     34 C           4.3167   -2.8562   19.7738 C.3     1  UNL1        0.0264
@<TRIPOS>BOND
     1    33    34    1
     2    34     1    1
     3     1     2   ar
     4     2     3   ar
     5     3     4    1
     6     3     5   ar
     7     5     6   ar
     8     6     7   ar
     9     7    13    1
    10    13    14    1
    11    14    15    1
    12    15    16    1
    13    16    19    1
    14    19    21    1
    15    21    22    1
    16    22    23    1
    17    23    24    1
    18    24    25    1
    19    25    26    1
    20    16    17    1
    21    17    18    1
    22     7     8   ar
    23     8    27    1
    24    27    28   ar
    25    28    29   ar
    26    29    30    1
    27    29    31   ar
    28    31    32   ar
    29     8     9   ar
    30     9    10    1
    31     9    11   ar
    32    11    12   ar
    33    12     1   ar
    34    11     5   ar
    35    18    13    1
    36    32    27   ar
    37    26    21    1
    38    19    20    1
@<TRIPOS>MOLECULE
*****
 34 38 0 0 0
SMALL
GASTEIGER

@<TRIPOS>ATOM
      1 C          -5.0263    4.7765   22.5247 C.ar    1  UNL1       -0.0199
      2 C          -5.2167    4.3756   21.0919 C.ar    1  UNL1        0.0269
      3 C          -4.1414    3.6119   20.3775 C.ar    1  UNL1        0.1573
      4 F          -4.3318    3.2110   18.9446 F       1  UNL1       -0.2026
      5 C          -2.8756    3.2491   21.0959 C.ar    1  UNL1        0.1097
      6 N          -1.8002    2.4855   20.3815 N.ar    1  UNL1       -0.2283
      7 C          -0.5344    2.1227   21.0998 C.ar    1  UNL1        0.1359
      8 C          -0.3440    2.5236   22.5327 C.ar    1  UNL1        0.0837
      9 C          -1.4193    3.2873   23.2472 C.ar    1  UNL1       -0.0130
     10 C          -1.2289    3.6881   24.6800 C.3     1  UNL1        0.0313
     11 C          -2.6852    3.6500   22.5287 C.ar    1  UNL1        0.0159
     12 C          -3.7605    4.4137   23.2431 C.ar    1  UNL1       -0.0029
     13 N           0.5410    1.3590   20.3854 N.pl3   1  UNL1       -0.2930
     14 C           1.5685    2.0916   19.5744 C.3     1  UNL1        0.0935
     15 C           2.6438    1.3279   18.8600 C.3     1  UNL1        0.0372
     16 C           2.6917   -0.1683   18.9566 C.3     1  UNL1        0.0574
     17 C           1.6642   -0.9007   19.7676 C.3     1  UNL1        0.0372
     18 C           0.5888   -0.1370   20.4820 C.3     1  UNL1        0.0935
     19 N           3.7671   -0.9319   18.2422 N.3     1  UNL1       -0.2994
     20 H           4.5070   -0.2645   18.0243 H       1  UNL1        0.1232
     21 C           4.4238   -2.1042   18.9091 C.3     1  UNL1        0.0590
     22 C           3.9570   -3.4973   18.6069 C.3     1  UNL1        0.0478
     23 C           4.6138   -4.6695   19.2738 C.3     1  UNL1        0.1435
     24 O           5.7373   -4.4486   20.2428 O.3     1  UNL1       -0.3537
     25 C           6.2040   -3.0553   20.5449 C.3     1  UNL1        0.1435
     26 C           5.5473   -1.8832   19.8780 C.3     1  UNL1        0.0478
     27 C           0.9218    2.1608   23.2511 C.ar    1  UNL1        0.2621
     28 N           1.1422    0.9326   24.0835 N.ar    1  UNL1       -0.1910
     29 C           2.5461    0.9752   24.6101 C.ar    1  UNL1        0.1812
     30 C           3.1897   -0.0557   25.4893 C.3     1  UNL1        0.0773
     31 N           3.1933    2.2299   24.1032 N.ar    1  UNL1       -0.0602
     32 O           2.1895    2.9626   23.2633 O.2     1  UNL1       -0.3327
     33 C          -7.2840    4.8146   23.8097 C.3     1  UNL1        0.0050
     34 C          -6.1017    5.5401   23.2391 C.3     1  UNL1        0.0264
@<TRIPOS>BOND
     1    33    34    1
     2    34     1    1
     3     1     2   ar
     4     2     3   ar
     5     3     4    1
     6     3     5   ar
     7     5     6   ar
     8     6     7   ar
     9     7    13    1
    10    13    14    1
    11    14    15    1
    12    15    16    1
    13    16    19    1
    14    19    21    1
    15    21    22    1
    16    22    23    1
    17    23    24    1
    18    24    25    1
    19    25    26    1
    20    16    17    1
    21    17    18    1
    22     7     8   ar
    23     8    27    1
    24    27    28   ar
    25    28    29   ar
    26    29    30    1
    27    29    31   ar
    28    31    32   ar
    29     8     9   ar
    30     9    10    1
    31     9    11   ar
    32    11    12   ar
    33    12     1   ar
    34    11     5   ar
    35    18    13    1
    36    32    27   ar
    37    26    21    1
    38    19    20    1
@<TRIPOS>MOLECULE
*****
 34 38 0 0 0
SMALL
GASTEIGER

@<TRIPOS>ATOM
      1 C           8.3515   -7.1276   26.6414 C.ar    1  UNL1       -0.0199
      2 C           8.7547   -7.7949   25.3599 C.ar    1  UNL1        0.0269
      3 C           8.4502   -7.1400   24.0452 C.ar    1  UNL1        0.1573
      4 F           8.8534   -7.8073   22.7637 F       1  UNL1       -0.2026
      5 C           7.7424   -5.8179   24.0120 C.ar    1  UNL1        0.1097
      6 N           7.4379   -5.1631   22.6973 N.ar    1  UNL1       -0.2283
      7 C           6.7302   -3.8410   22.6641 C.ar    1  UNL1        0.1359
      8 C           6.3269   -3.1737   23.9455 C.ar    1  UNL1        0.0837
      9 C           6.6314   -3.8285   25.2603 C.ar    1  UNL1       -0.0130
     10 C           6.2282   -3.1613   26.5417 C.3     1  UNL1        0.0313
     11 C           7.3392   -5.1507   25.2935 C.ar    1  UNL1        0.0159
     12 C           7.6437   -5.8055   26.6082 C.ar    1  UNL1       -0.0029
     13 N           6.4257   -3.1861   21.3493 N.pl3   1  UNL1       -0.2930
     14 C           5.1223   -3.4599   20.6592 C.3     1  UNL1        0.0935
     15 C           4.8178   -2.8050   19.3445 C.3     1  UNL1        0.0372
     16 C           5.8166   -1.8764   18.7199 C.3     1  UNL1        0.0574
     17 C           7.1200   -1.6027   19.4101 C.3     1  UNL1        0.0372
     18 C           7.4245   -2.2575   20.7248 C.3     1  UNL1        0.0935
     19 N           5.5121   -1.2216   17.4052 N.3     1  UNL1       -0.2994
     20 H           4.5543   -1.4762   17.1643 H       1  UNL1        0.1232
     21 C           5.6113    0.2690   17.2690 C.3     1  UNL1        0.0590
     22 C           4.6761    1.1561   18.0362 C.3     1  UNL1        0.0478
     23 C           4.7753    2.6467   17.8999 C.3     1  UNL1        0.1435
     24 O           5.8096    3.2500   16.9965 O.3     1  UNL1       -0.3537
     25 C           6.7448    2.3629   16.2294 C.3     1  UNL1        0.1435
     26 C           6.6456    0.8724   16.3656 C.3     1  UNL1        0.0478
     27 C           5.6192   -1.8516   23.9123 C.ar    1  UNL1        0.2621
     28 N           6.2672   -0.5084   23.7510 N.ar    1  UNL1       -0.1910
     29 C           5.1877    0.5328   23.7735 C.ar    1  UNL1        0.1812
     30 C           5.3882    2.0137   23.6436 C.3     1  UNL1        0.0773
     31 N           3.8725   -0.1669   23.9488 N.ar    1  UNL1       -0.0602
     32 O           4.1392   -1.6405   24.0345 O.2     1  UNL1       -0.3327
     33 C           8.7085   -6.9600   29.2093 C.3     1  UNL1        0.0050
     34 C           8.6560   -7.7825   27.9561 C.3     1  UNL1        0.0264
@<TRIPOS>BOND
     1    33    34    1
     2    34     1    1
     3     1     2   ar
     4     2     3   ar
     5     3     4    1
     6     3     5   ar
     7     5     6   ar
     8     6     7   ar
     9     7    13    1
    10    13    14    1
    11    14    15    1
    12    15    16    1
    13    16    19    1
    14    19    21    1
    15    21    22    1
    16    22    23    1
    17    23    24    1
    18    24    25    1
    19    25    26    1
    20    16    17    1
    21    17    18    1
    22     7     8   ar
    23     8    27    1
    24    27    28   ar
    25    28    29   ar
    26    29    30    1
    27    29    31   ar
    28    31    32   ar
    29     8     9   ar
    30     9    10    1
    31     9    11   ar
    32    11    12   ar
    33    12     1   ar
    34    11     5   ar
    35    18    13    1
    36    32    27   ar
    37    26    21    1
    38    19    20    1
@<TRIPOS>MOLECULE
*****
 34 38 0 0 0
SMALL
GASTEIGER

@<TRIPOS>ATOM
      1 C           3.4426   -2.0872   20.0593 C.ar    1  UNL1       -0.0199
      2 C           2.4026   -1.0505   19.7535 C.ar    1  UNL1        0.0269
      3 C           1.8923   -0.1557   20.8439 C.ar    1  UNL1        0.1573
      4 F           0.8522    0.8811   20.5381 F       1  UNL1       -0.2026
      5 C           2.4220   -0.2976   22.2400 C.ar    1  UNL1        0.1097
      6 N           1.9118    0.5972   23.3304 N.ar    1  UNL1       -0.2283
      7 C           2.4415    0.4553   24.7265 C.ar    1  UNL1        0.1359
      8 C           3.4816   -0.5815   25.0323 C.ar    1  UNL1        0.0837
      9 C           3.9919   -1.4763   23.9419 C.ar    1  UNL1       -0.0130
     10 C           5.0319   -2.5130   24.2477 C.3     1  UNL1        0.0313
     11 C           3.4621   -1.3343   22.5458 C.ar    1  UNL1        0.0159
     12 C           3.9723   -2.2291   21.4554 C.ar    1  UNL1       -0.0029
     13 N           1.9312    1.3501   25.8169 N.pl3   1  UNL1       -0.2930
     14 C           0.5670    1.1219   26.3975 C.3     1  UNL1        0.0935
     15 C           0.0568    2.0167   27.4879 C.3     1  UNL1        0.0372
     16 C           0.9106    3.1397   27.9977 C.3     1  UNL1        0.0574
     17 C           2.2747    3.3679   27.4171 C.3     1  UNL1        0.0372
     18 C           2.7850    2.4731   26.3267 C.3     1  UNL1        0.0935
     19 N           0.4004    4.0345   29.0881 N.3     1  UNL1       -0.2994
     20 H          -0.6162    4.0492   29.0054 H       1  UNL1        0.1232
     21 C           0.7137    3.7234   30.5217 C.3     1  UNL1        0.0590
     22 C           1.2931    2.3899   30.8905 C.3     1  UNL1        0.0478
     23 C           1.6064    2.0789   32.3241 C.3     1  UNL1        0.1435
     24 O           1.3403    3.1014   33.3889 O.3     1  UNL1       -0.3537
     25 C           0.7608    4.4350   33.0200 C.3     1  UNL1        0.1435
     26 C           0.4476    4.7459   31.5865 C.3     1  UNL1        0.0478
     27 C           4.0113   -0.7234   26.4284 C.ar    1  UNL1        0.2621
     28 N           5.2686   -0.1029   26.9618 N.ar    1  UNL1       -0.1910
     29 C           5.4111   -0.5067   28.3993 C.ar    1  UNL1        0.1812
     30 C           6.5269   -0.1101   29.3201 C.3     1  UNL1        0.0773
     31 N           4.2419   -1.3768   28.7544 N.ar    1  UNL1       -0.0602
     32 O           3.3769   -1.5107   27.5364 O.2     1  UNL1       -0.3327
     33 C           3.7304   -4.4632   19.0485 C.3     1  UNL1        0.0050
     34 C           3.9529   -2.9820   18.9689 C.3     1  UNL1        0.0264
@<TRIPOS>BOND
     1    33    34    1
     2    34     1    1
     3     1     2   ar
     4     2     3   ar
     5     3     4    1
     6     3     5   ar
     7     5     6   ar
     8     6     7   ar
     9     7    13    1
    10    13    14    1
    11    14    15    1
    12    15    16    1
    13    16    19    1
    14    19    21    1
    15    21    22    1
    16    22    23    1
    17    23    24    1
    18    24    25    1
    19    25    26    1
    20    16    17    1
    21    17    18    1
    22     7     8   ar
    23     8    27    1
    24    27    28   ar
    25    28    29   ar
    26    29    30    1
    27    29    31   ar
    28    31    32   ar
    29     8     9   ar
    30     9    10    1
    31     9    11   ar
    32    11    12   ar
    33    12     1   ar
    34    11     5   ar
    35    18    13    1
    36    32    27   ar
    37    26    21    1
    38    19    20    1
