@<TRIPOS>MOLECULE
*****
 33 35 0 0 0
SMALL
GASTEIGER

@<TRIPOS>ATOM
      1 C         -11.0914  -19.7205   20.8764 C.3     1  UNL1        0.1020
      2 C          -9.7636  -19.6157   20.1865 C.3     1  UNL1        0.1697
      3 O          -9.6058  -20.1208   18.7829 O.3     1  UNL1       -0.3793
      4 H         -10.4510  -20.4812   18.4720 H       1  UNL1        0.2106
      5 C          -8.5937  -19.0058   20.9001 C.3     1  UNL1        0.2358
      6 O          -7.6490  -19.8776   21.6730 O.3     1  UNL1       -0.4728
      7 C          -6.1695  -19.7562   21.4573 C.ar    1  UNL1        0.1387
      8 C          -5.3581  -18.8392   22.3237 C.ar    1  UNL1        0.0366
      9 C          -3.8787  -18.7178   22.1080 C.ar    1  UNL1       -0.0011
     10 C          -3.2107  -19.5134   21.0259 C.ar    1  UNL1       -0.0216
     11 C          -4.0222  -20.4304   20.1595 C.ar    1  UNL1       -0.0011
     12 C          -5.5016  -20.5517   20.3752 C.ar    1  UNL1        0.0366
     13 C          -1.7313  -19.3920   20.8102 C.3     1  UNL1        0.0323
     14 C          -1.1758  -18.2125   20.0684 C.3     1  UNL1        0.0464
     15 C          -1.8480  -17.7285   18.8178 C.2     1  UNL1        0.0507
     16 O          -1.1954  -17.9431   17.4844 O.co2   1  UNL1       -0.5492
     17 O          -3.1729  -17.0301   18.9007 O.co2   1  UNL1       -0.5492
     18 N         -12.0012  -18.5294   20.9371 N.3     1  UNL1       -0.2972
     19 H         -12.0666  -18.1602   19.9885 H       1  UNL1        0.1233
     20 C         -11.7109  -16.4478   20.6495 C.3     1  UNL1        0.0161
     21 C         -11.6633  -17.3723   21.8298 C.3     1  UNL1        0.0461
     22 C         -11.6157  -18.2968   23.0101 C.3     1  UNL1        0.0161
     23 C         -11.3254  -16.2152   22.7225 C.3     1  UNL1        0.0408
     24 C          -9.9193  -16.0306   23.2112 C.ar    1  UNL1       -0.0209
     25 C          -8.7910  -15.9281   22.2281 C.ar    1  UNL1       -0.0042
     26 C          -7.3849  -15.7435   22.7167 C.ar    1  UNL1       -0.0003
     27 C          -7.1070  -15.6613   24.1885 C.ar    1  UNL1       -0.0000
     28 C          -5.7009  -15.4767   24.6771 C.ar    1  UNL1       -0.0000
     29 C          -5.4231  -15.3946   26.1488 C.ar    1  UNL1       -0.0000
     30 C          -6.5514  -15.4970   27.1319 C.ar    1  UNL1       -0.0000
     31 C          -7.9575  -15.6816   26.6433 C.ar    1  UNL1       -0.0000
     32 C          -8.2353  -15.7638   25.1716 C.ar    1  UNL1       -0.0003
     33 C          -9.6414  -15.9484   24.6829 C.ar    1  UNL1       -0.0042
@<TRIPOS>UNITY_ATOM_ATTR
16 1
charge -1
@<TRIPOS>BOND
     1    20    21    1
     2    21    22    1
     3    21    23    1
     4    23    24    1
     5    24    25   ar
     6    25    26   ar
     7    26    27   ar
     8    27    28   ar
     9    28    29   ar
    10    29    30   ar
    11    30    31   ar
    12    31    32   ar
    13    32    33   ar
    14    21    18    1
    15    18     1    1
    16     1     2    1
    17     2     3    1
    18     2     5    1
    19     5     6    1
    20     6     7    1
    21     7     8   ar
    22     8     9   ar
    23     9    10   ar
    24    10    13    1
    25    13    14    1
    26    14    15    1
    27    15    16   ar
    28    15    17   ar
    29    10    11   ar
    30    11    12   ar
    31    33    24   ar
    32    12     7   ar
    33    32    27   ar
    34    18    19    1
    35     3     4    1
@<TRIPOS>MOLECULE
*****
 33 35 0 0 0
SMALL
GASTEIGER

@<TRIPOS>ATOM
      1 C         -11.0854  -20.2526   22.0217 C.3     1  UNL1        0.1020
      2 C         -10.3266  -20.0858   23.3048 C.3     1  UNL1        0.1697
      3 O         -11.0612  -19.7782   24.5760 O.3     1  UNL1       -0.3793
      4 H         -12.0123  -19.7210   24.3941 H       1  UNL1        0.2106
      5 C          -8.8333  -20.2267   23.3168 C.3     1  UNL1        0.2358
      6 O          -7.9653  -19.0337   23.0462 O.3     1  UNL1       -0.4728
      7 C          -6.7410  -19.1755   22.1911 C.ar    1  UNL1        0.1387
      8 C          -5.4639  -18.4982   22.5916 C.ar    1  UNL1        0.0366
      9 C          -4.2397  -18.6400   21.7366 C.ar    1  UNL1       -0.0011
     10 C          -4.2925  -19.4591   20.4811 C.ar    1  UNL1       -0.0216
     11 C          -5.5695  -20.1364   20.0806 C.ar    1  UNL1       -0.0011
     12 C          -6.7938  -19.9946   20.9356 C.ar    1  UNL1        0.0366
     13 C          -3.0682  -19.6009   19.6260 C.3     1  UNL1        0.0323
     14 C          -2.3353  -18.3791   19.1571 C.3     1  UNL1        0.0464
     15 C          -1.0540  -17.9716   19.8222 C.2     1  UNL1        0.0507
     16 O           0.1495  -18.8633   19.7415 O.co2   1  UNL1       -0.5492
     17 O          -0.9762  -16.6725   20.5680 O.co2   1  UNL1       -0.5492
     18 N         -11.8282  -19.0898   21.4331 N.3     1  UNL1       -0.2972
     19 H         -11.8573  -19.2391   20.4245 H       1  UNL1        0.1233
     20 C         -12.4671  -17.4297   22.5889 C.3     1  UNL1        0.0161
     21 C         -11.3274  -17.6926   21.6498 C.3     1  UNL1        0.0461
     22 C         -10.1876  -17.9555   20.7108 C.3     1  UNL1        0.0161
     23 C         -10.8265  -16.2954   21.8665 C.3     1  UNL1        0.0408
     24 C          -9.6245  -16.0552   22.7312 C.ar    1  UNL1       -0.0209
     25 C          -8.3370  -15.5947   22.1146 C.ar    1  UNL1       -0.0042
     26 C          -7.1351  -15.3545   22.9793 C.ar    1  UNL1       -0.0003
     27 C          -7.2206  -15.5749   24.4606 C.ar    1  UNL1       -0.0000
     28 C          -6.0187  -15.3347   25.3252 C.ar    1  UNL1       -0.0000
     29 C          -6.1042  -15.5551   26.8064 C.ar    1  UNL1       -0.0000
     30 C          -7.3918  -16.0156   27.4230 C.ar    1  UNL1       -0.0000
     31 C          -8.5937  -16.2558   26.5584 C.ar    1  UNL1       -0.0000
     32 C          -8.5081  -16.0354   25.0772 C.ar    1  UNL1       -0.0003
     33 C          -9.7101  -16.2756   24.2125 C.ar    1  UNL1       -0.0042
@<TRIPOS>UNITY_ATOM_ATTR
16 1
charge -1
@<TRIPOS>BOND
     1    20    21    1
     2    21    22    1
     3    21    23    1
     4    23    24    1
     5    24    25   ar
     6    25    26   ar
     7    26    27   ar
     8    27    28   ar
     9    28    29   ar
    10    29    30   ar
    11    30    31   ar
    12    31    32   ar
    13    32    33   ar
    14    21    18    1
    15    18     1    1
    16     1     2    1
    17     2     3    1
    18     2     5    1
    19     5     6    1
    20     6     7    1
    21     7     8   ar
    22     8     9   ar
    23     9    10   ar
    24    10    13    1
    25    13    14    1
    26    14    15    1
    27    15    16   ar
    28    15    17   ar
    29    10    11   ar
    30    11    12   ar
    31    33    24   ar
    32    12     7   ar
    33    32    27   ar
    34    18    19    1
    35     3     4    1
@<TRIPOS>MOLECULE
*****
 33 35 0 0 0
SMALL
GASTEIGER

@<TRIPOS>ATOM
      1 C         -10.3027  -18.6261   20.1581 C.3     1  UNL1        0.1020
      2 C         -11.5312  -17.9434   20.6823 C.3     1  UNL1        0.1697
      3 O         -12.2792  -16.9752   19.8144 O.3     1  UNL1       -0.3793
      4 H         -11.8389  -16.9063   18.9529 H       1  UNL1        0.2106
      5 C         -12.0117  -18.2289   22.0742 C.3     1  UNL1        0.2358
      6 O         -11.0836  -18.8508   23.0752 O.3     1  UNL1       -0.4728
      7 C         -10.3351  -17.9837   24.0438 C.ar    1  UNL1        0.1387
      8 C          -9.9033  -18.5389   25.3686 C.ar    1  UNL1        0.0366
      9 C          -9.1548  -17.6718   26.3371 C.ar    1  UNL1       -0.0011
     10 C          -8.8382  -16.2496   25.9808 C.ar    1  UNL1       -0.0216
     11 C          -9.2701  -15.6944   24.6559 C.ar    1  UNL1       -0.0011
     12 C         -10.0186  -16.5615   23.6875 C.ar    1  UNL1        0.0366
     13 C          -8.0898  -15.3825   26.9493 C.3     1  UNL1        0.0323
     14 C          -6.6220  -15.5989   27.1704 C.3     1  UNL1        0.0464
     15 C          -5.6757  -15.5682   26.0069 C.2     1  UNL1        0.0507
     16 O          -4.5036  -16.5034   25.9686 O.co2   1  UNL1       -0.5492
     17 O          -5.9017  -14.6023   24.8817 O.co2   1  UNL1       -0.5492
     18 N          -8.9434  -18.1479   20.5749 N.3     1  UNL1       -0.2972
     19 H          -8.6420  -17.4704   19.8745 H       1  UNL1        0.1233
     20 C          -7.5005  -18.5383   22.0802 C.3     1  UNL1        0.0161
     21 C          -7.8210  -19.1293   20.7393 C.3     1  UNL1        0.0461
     22 C          -8.1414  -19.7203   19.3984 C.3     1  UNL1        0.0161
     23 C          -6.6985  -20.1107   20.9036 C.3     1  UNL1        0.0408
     24 C          -5.2823  -19.6233   20.9871 C.ar    1  UNL1       -0.0209
     25 C          -4.5703  -19.6104   22.3073 C.ar    1  UNL1       -0.0042
     26 C          -3.1541  -19.1230   22.3909 C.ar    1  UNL1       -0.0003
     27 C          -2.4500  -18.6486   21.1543 C.ar    1  UNL1       -0.0000
     28 C          -1.0339  -18.1612   21.2378 C.ar    1  UNL1       -0.0000
     29 C          -0.3298  -17.6868   20.0013 C.ar    1  UNL1       -0.0000
     30 C          -1.0419  -17.6997   18.6811 C.ar    1  UNL1       -0.0000
     31 C          -2.4580  -18.1870   18.5975 C.ar    1  UNL1       -0.0000
     32 C          -3.1621  -18.6615   19.8341 C.ar    1  UNL1       -0.0003
     33 C          -4.5783  -19.1489   19.7506 C.ar    1  UNL1       -0.0042
@<TRIPOS>UNITY_ATOM_ATTR
16 1
charge -1
@<TRIPOS>BOND
     1    20    21    1
     2    21    22    1
     3    21    23    1
     4    23    24    1
     5    24    25   ar
     6    25    26   ar
     7    26    27   ar
     8    27    28   ar
     9    28    29   ar
    10    29    30   ar
    11    30    31   ar
    12    31    32   ar
    13    32    33   ar
    14    21    18    1
    15    18     1    1
    16     1     2    1
    17     2     3    1
    18     2     5    1
    19     5     6    1
    20     6     7    1
    21     7     8   ar
    22     8     9   ar
    23     9    10   ar
    24    10    13    1
    25    13    14    1
    26    14    15    1
    27    15    16   ar
    28    15    17   ar
    29    10    11   ar
    30    11    12   ar
    31    33    24   ar
    32    12     7   ar
    33    32    27   ar
    34    18    19    1
    35     3     4    1
@<TRIPOS>MOLECULE
*****
 33 35 0 0 0
SMALL
GASTEIGER

@<TRIPOS>ATOM
      1 C         -10.6591  -16.6678   20.0073 C.3     1  UNL1        0.1020
      2 C         -12.0850  -16.3077   20.3027 C.3     1  UNL1        0.1697
      3 O         -12.9036  -15.5827   19.2759 O.3     1  UNL1       -0.3793
      4 H         -12.3645  -15.4247   18.4852 H       1  UNL1        0.2106
      5 C         -12.6922  -16.6725   21.6249 C.3     1  UNL1        0.2358
      6 O         -12.1308  -17.8150   22.4183 O.3     1  UNL1       -0.4728
      7 C         -11.1244  -17.5542   23.4997 C.ar    1  UNL1        0.1387
      8 C         -10.4105  -16.2363   23.5578 C.ar    1  UNL1        0.0366
      9 C          -9.4042  -15.9756   24.6392 C.ar    1  UNL1       -0.0011
     10 C          -9.1118  -17.0328   25.6624 C.ar    1  UNL1       -0.0216
     11 C          -9.8258  -18.3507   25.6042 C.ar    1  UNL1       -0.0011
     12 C         -10.8321  -18.6114   24.5229 C.ar    1  UNL1        0.0366
     13 C          -8.1054  -16.7720   26.7437 C.3     1  UNL1        0.0323
     14 C          -7.2743  -15.5239   26.7096 C.3     1  UNL1        0.0464
     15 C          -6.0531  -15.4595   25.8408 C.2     1  UNL1        0.0507
     16 O          -6.1019  -14.7293   24.5314 O.co2   1  UNL1       -0.5492
     17 O          -4.7833  -16.1252   26.2814 O.co2   1  UNL1       -0.5492
     18 N         -10.2860  -18.0962   19.7416 N.3     1  UNL1       -0.2972
     19 H         -11.1585  -18.6175   19.6565 H       1  UNL1        0.1233
     20 C         -10.2337  -20.0849   20.4779 C.3     1  UNL1        0.0161
     21 C          -9.4296  -18.8423   20.7213 C.3     1  UNL1        0.0461
     22 C          -8.6255  -17.5996   20.9648 C.3     1  UNL1        0.0161
     23 C          -8.5732  -19.5884   21.7011 C.3     1  UNL1        0.0408
     24 C          -7.0824  -19.6031   21.5351 C.ar    1  UNL1       -0.0209
     25 C          -6.4521  -20.4829   20.4965 C.ar    1  UNL1       -0.0042
     26 C          -4.9614  -20.4976   20.3305 C.ar    1  UNL1       -0.0003
     27 C          -4.1010  -19.6324   21.2031 C.ar    1  UNL1       -0.0000
     28 C          -2.6103  -19.6471   21.0371 C.ar    1  UNL1       -0.0000
     29 C          -1.7499  -18.7820   21.9096 C.ar    1  UNL1       -0.0000
     30 C          -2.3803  -17.9022   22.9481 C.ar    1  UNL1       -0.0000
     31 C          -3.8710  -17.8875   23.1142 C.ar    1  UNL1       -0.0000
     32 C          -4.7313  -18.7526   22.2416 C.ar    1  UNL1       -0.0003
     33 C          -6.2221  -18.7380   22.4076 C.ar    1  UNL1       -0.0042
@<TRIPOS>UNITY_ATOM_ATTR
16 1
charge -1
@<TRIPOS>BOND
     1    20    21    1
     2    21    22    1
     3    21    23    1
     4    23    24    1
     5    24    25   ar
     6    25    26   ar
     7    26    27   ar
     8    27    28   ar
     9    28    29   ar
    10    29    30   ar
    11    30    31   ar
    12    31    32   ar
    13    32    33   ar
    14    21    18    1
    15    18     1    1
    16     1     2    1
    17     2     3    1
    18     2     5    1
    19     5     6    1
    20     6     7    1
    21     7     8   ar
    22     8     9   ar
    23     9    10   ar
    24    10    13    1
    25    13    14    1
    26    14    15    1
    27    15    16   ar
    28    15    17   ar
    29    10    11   ar
    30    11    12   ar
    31    33    24   ar
    32    12     7   ar
    33    32    27   ar
    34    18    19    1
    35     3     4    1
@<TRIPOS>MOLECULE
*****
 33 35 0 0 0
SMALL
GASTEIGER

@<TRIPOS>ATOM
      1 C          -3.8107  -19.1625   20.4862 C.3     1  UNL1        0.1020
      2 C          -2.7028  -19.2093   21.4964 C.3     1  UNL1        0.1697
      3 O          -1.8255  -20.4223   21.5916 O.3     1  UNL1       -0.3793
      4 H          -2.1075  -21.0778   20.9345 H       1  UNL1        0.2106
      5 C          -2.4723  -18.0433   22.4113 C.3     1  UNL1        0.2358
      6 O          -3.3885  -16.8567   22.3594 O.3     1  UNL1       -0.4728
      7 C          -4.1690  -16.4580   23.5768 C.ar    1  UNL1        0.1387
      8 C          -5.0526  -15.2466   23.5377 C.ar    1  UNL1        0.0366
      9 C          -5.8330  -14.8480   24.7551 C.ar    1  UNL1       -0.0011
     10 C          -5.7299  -15.6608   26.0115 C.ar    1  UNL1       -0.0216
     11 C          -4.8463  -16.8723   26.0506 C.ar    1  UNL1       -0.0011
     12 C          -4.0658  -17.2709   24.8332 C.ar    1  UNL1        0.0366
     13 C          -6.5104  -15.2622   27.2289 C.3     1  UNL1        0.0323
     14 C          -7.9852  -15.5277   27.2944 C.3     1  UNL1        0.0464
     15 C          -8.6370  -16.3994   26.2621 C.2     1  UNL1        0.0507
     16 O          -9.0084  -15.8292   24.9253 O.co2   1  UNL1       -0.5492
     17 O          -8.9173  -17.8411   26.5667 O.co2   1  UNL1       -0.5492
     18 N          -5.1206  -18.5222   20.8388 N.3     1  UNL1       -0.2972
     19 H          -4.9216  -17.8146   21.5460 H       1  UNL1        0.1233
     20 C          -6.6511  -18.2390   22.2801 C.3     1  UNL1        0.0161
     21 C          -6.2462  -19.3598   21.3691 C.3     1  UNL1        0.0461
     22 C          -5.8413  -20.4807   20.4582 C.3     1  UNL1        0.0161
     23 C          -7.3718  -20.1975   21.8995 C.3     1  UNL1        0.0408
     24 C          -8.7622  -19.6372   21.9548 C.ar    1  UNL1       -0.0209
     25 C          -9.4112  -19.1167   20.7066 C.ar    1  UNL1       -0.0042
     26 C         -10.8015  -18.5564   20.7619 C.ar    1  UNL1       -0.0003
     27 C         -11.5429  -18.5166   22.0653 C.ar    1  UNL1       -0.0000
     28 C         -12.9332  -17.9563   22.1206 C.ar    1  UNL1       -0.0000
     29 C         -13.6745  -17.9166   23.4240 C.ar    1  UNL1       -0.0000
     30 C         -13.0255  -18.4371   24.6721 C.ar    1  UNL1       -0.0000
     31 C         -11.6352  -18.9974   24.6168 C.ar    1  UNL1       -0.0000
     32 C         -10.8939  -19.0371   23.3135 C.ar    1  UNL1       -0.0003
     33 C          -9.5035  -19.5974   23.2581 C.ar    1  UNL1       -0.0042
@<TRIPOS>UNITY_ATOM_ATTR
16 1
charge -1
@<TRIPOS>BOND
     1    20    21    1
     2    21    22    1
     3    21    23    1
     4    23    24    1
     5    24    25   ar
     6    25    26   ar
     7    26    27   ar
     8    27    28   ar
     9    28    29   ar
    10    29    30   ar
    11    30    31   ar
    12    31    32   ar
    13    32    33   ar
    14    21    18    1
    15    18     1    1
    16     1     2    1
    17     2     3    1
    18     2     5    1
    19     5     6    1
    20     6     7    1
    21     7     8   ar
    22     8     9   ar
    23     9    10   ar
    24    10    13    1
    25    13    14    1
    26    14    15    1
    27    15    16   ar
    28    15    17   ar
    29    10    11   ar
    30    11    12   ar
    31    33    24   ar
    32    12     7   ar
    33    32    27   ar
    34    18    19    1
    35     3     4    1
@<TRIPOS>MOLECULE
*****
 33 35 0 0 0
SMALL
GASTEIGER

@<TRIPOS>ATOM
      1 C          -4.1222  -19.2379   19.5743 C.3     1  UNL1        0.1020
      2 C          -3.1145  -18.1742   19.2531 C.3     1  UNL1        0.1697
      3 O          -3.5286  -16.9582   18.4784 O.3     1  UNL1       -0.3793
      4 H          -4.4729  -17.0169   18.2649 H       1  UNL1        0.2106
      5 C          -1.6928  -18.3265   19.7065 C.3     1  UNL1        0.2358
      6 O          -1.2817  -17.8361   21.0631 O.3     1  UNL1       -0.4728
      7 C          -2.3188  -17.3444   22.0290 C.ar    1  UNL1        0.1387
      8 C          -2.7963  -15.9242   21.9581 C.ar    1  UNL1        0.0366
      9 C          -3.8333  -15.4326   22.9240 C.ar    1  UNL1       -0.0011
     10 C          -4.3928  -16.3612   23.9606 C.ar    1  UNL1       -0.0216
     11 C          -3.9153  -17.7814   24.0315 C.ar    1  UNL1       -0.0011
     12 C          -2.8783  -18.2730   23.0657 C.ar    1  UNL1        0.0366
     13 C          -5.4299  -15.8695   24.9265 C.3     1  UNL1        0.0323
     14 C          -6.5519  -14.9990   24.4434 C.3     1  UNL1        0.0464
     15 C          -7.6086  -15.5680   23.5436 C.2     1  UNL1        0.0507
     16 O          -8.5882  -16.5706   24.0777 O.co2   1  UNL1       -0.5492
     17 O          -7.6858  -15.1342   22.1098 O.co2   1  UNL1       -0.5492
     18 N          -5.5343  -18.8571   19.9075 N.3     1  UNL1       -0.2972
     19 H          -5.5126  -17.8845   20.2138 H       1  UNL1        0.1233
     20 C          -6.2209  -20.8551   20.0988 C.3     1  UNL1        0.0161
     21 C          -6.2912  -19.6232   20.9517 C.3     1  UNL1        0.0461
     22 C          -6.3614  -18.3913   21.8045 C.3     1  UNL1        0.0161
     23 C          -7.0480  -20.3893   21.9959 C.3     1  UNL1        0.0408
     24 C          -8.4012  -19.9172   22.4387 C.ar    1  UNL1       -0.0209
     25 C          -8.9226  -20.2986   23.7925 C.ar    1  UNL1       -0.0042
     26 C         -10.2757  -19.8266   24.2354 C.ar    1  UNL1       -0.0003
     27 C         -11.1076  -18.9732   23.3245 C.ar    1  UNL1       -0.0000
     28 C         -12.4607  -18.5012   23.7674 C.ar    1  UNL1       -0.0000
     29 C         -13.2925  -17.6478   22.8565 C.ar    1  UNL1       -0.0000
     30 C         -12.7712  -17.2664   21.5027 C.ar    1  UNL1       -0.0000
     31 C         -11.4180  -17.7384   21.0598 C.ar    1  UNL1       -0.0000
     32 C         -10.5862  -18.5918   21.9707 C.ar    1  UNL1       -0.0003
     33 C          -9.2330  -19.0638   21.5278 C.ar    1  UNL1       -0.0042
@<TRIPOS>UNITY_ATOM_ATTR
16 1
charge -1
@<TRIPOS>BOND
     1    20    21    1
     2    21    22    1
     3    21    23    1
     4    23    24    1
     5    24    25   ar
     6    25    26   ar
     7    26    27   ar
     8    27    28   ar
     9    28    29   ar
    10    29    30   ar
    11    30    31   ar
    12    31    32   ar
    13    32    33   ar
    14    21    18    1
    15    18     1    1
    16     1     2    1
    17     2     3    1
    18     2     5    1
    19     5     6    1
    20     6     7    1
    21     7     8   ar
    22     8     9   ar
    23     9    10   ar
    24    10    13    1
    25    13    14    1
    26    14    15    1
    27    15    16   ar
    28    15    17   ar
    29    10    11   ar
    30    11    12   ar
    31    33    24   ar
    32    12     7   ar
    33    32    27   ar
    34    18    19    1
    35     3     4    1
@<TRIPOS>MOLECULE
*****
 33 35 0 0 0
SMALL
GASTEIGER

@<TRIPOS>ATOM
      1 C          -2.2017  -16.5547   21.9688 C.3     1  UNL1        0.1020
      2 C          -3.2964  -16.6844   22.9860 C.3     1  UNL1        0.1697
      3 O          -3.3440  -17.8820   23.8881 O.3     1  UNL1       -0.3793
      4 H          -2.6003  -18.4704   23.6838 H       1  UNL1        0.2106
      5 C          -4.3435  -15.6166   23.1013 C.3     1  UNL1        0.2358
      6 O          -5.3059  -15.6310   24.2518 O.3     1  UNL1       -0.4728
      7 C          -6.7628  -15.8918   24.0078 C.ar    1  UNL1        0.1387
      8 C          -7.7249  -15.9074   25.1584 C.ar    1  UNL1        0.0366
      9 C          -9.1817  -16.1682   24.9143 C.ar    1  UNL1       -0.0011
     10 C          -9.6764  -16.4135   23.5196 C.ar    1  UNL1       -0.0216
     11 C          -8.7142  -16.3979   22.3690 C.ar    1  UNL1       -0.0011
     12 C          -7.2574  -16.1371   22.6131 C.ar    1  UNL1        0.0366
     13 C         -11.1333  -16.6744   23.2755 C.3     1  UNL1        0.0323
     14 C         -11.8814  -15.8603   22.2619 C.3     1  UNL1        0.0464
     15 C         -12.4894  -16.5284   21.0643 C.2     1  UNL1        0.0507
     16 O         -13.3503  -17.7441   21.2401 O.co2   1  UNL1       -0.5492
     17 O         -12.2366  -15.9807   19.6910 O.co2   1  UNL1       -0.5492
     18 N          -1.7929  -17.7441   21.1511 N.3     1  UNL1       -0.2972
     19 H          -1.1813  -17.3972   20.4122 H       1  UNL1        0.1233
     20 C          -2.4638  -19.7444   21.3716 C.3     1  UNL1        0.0161
     21 C          -2.8368  -18.5920   20.4868 C.3     1  UNL1        0.0461
     22 C          -3.2098  -17.4396   19.6020 C.3     1  UNL1        0.0161
     23 C          -3.8807  -19.4400   19.8225 C.3     1  UNL1        0.0408
     24 C          -5.2547  -19.5401   20.4159 C.ar    1  UNL1       -0.0209
     25 C          -5.4205  -19.7768   21.8878 C.ar    1  UNL1       -0.0042
     26 C          -6.7945  -19.8770   22.4812 C.ar    1  UNL1       -0.0003
     27 C          -8.0027  -19.7404   21.6027 C.ar    1  UNL1       -0.0000
     28 C          -9.3766  -19.8406   22.1962 C.ar    1  UNL1       -0.0000
     29 C         -10.5847  -19.7040   21.3177 C.ar    1  UNL1       -0.0000
     30 C         -10.4189  -19.4673   19.8458 C.ar    1  UNL1       -0.0000
     31 C          -9.0450  -19.3672   19.2524 C.ar    1  UNL1       -0.0000
     32 C          -7.8369  -19.5037   20.1308 C.ar    1  UNL1       -0.0003
     33 C          -6.4628  -19.4036   19.5374 C.ar    1  UNL1       -0.0042
@<TRIPOS>UNITY_ATOM_ATTR
16 1
charge -1
@<TRIPOS>BOND
     1    20    21    1
     2    21    22    1
     3    21    23    1
     4    23    24    1
     5    24    25   ar
     6    25    26   ar
     7    26    27   ar
     8    27    28   ar
     9    28    29   ar
    10    29    30   ar
    11    30    31   ar
    12    31    32   ar
    13    32    33   ar
    14    21    18    1
    15    18     1    1
    16     1     2    1
    17     2     3    1
    18     2     5    1
    19     5     6    1
    20     6     7    1
    21     7     8   ar
    22     8     9   ar
    23     9    10   ar
    24    10    13    1
    25    13    14    1
    26    14    15    1
    27    15    16   ar
    28    15    17   ar
    29    10    11   ar
    30    11    12   ar
    31    33    24   ar
    32    12     7   ar
    33    32    27   ar
    34    18    19    1
    35     3     4    1
@<TRIPOS>MOLECULE
*****
 33 35 0 0 0
SMALL
GASTEIGER

@<TRIPOS>ATOM
      1 C          -2.9960  -19.7209   20.5219 C.3     1  UNL1        0.1020
      2 C          -4.4402  -19.5420   20.1581 C.3     1  UNL1        0.1697
      3 O          -4.8684  -18.3529   19.3503 O.3     1  UNL1       -0.3793
      4 H          -4.0947  -17.8039   19.1479 H       1  UNL1        0.2106
      5 C          -5.4561  -20.5523   20.6021 C.3     1  UNL1        0.2358
      6 O          -6.3136  -20.2764   21.8015 O.3     1  UNL1       -0.4728
      7 C          -7.7272  -19.8081   21.6211 C.ar    1  UNL1        0.1387
      8 C          -8.2306  -19.4519   20.2538 C.ar    1  UNL1        0.0366
      9 C          -9.6441  -18.9836   20.0734 C.ar    1  UNL1       -0.0011
     10 C         -10.5543  -18.8717   21.2604 C.ar    1  UNL1       -0.0216
     11 C         -10.0510  -19.2279   22.6278 C.ar    1  UNL1       -0.0011
     12 C          -8.6375  -19.6962   22.8081 C.ar    1  UNL1        0.0366
     13 C         -11.9680  -18.4034   21.0800 C.3     1  UNL1        0.0323
     14 C         -12.2890  -16.9403   21.1573 C.3     1  UNL1        0.0464
     15 C         -11.5947  -15.9710   20.2470 C.2     1  UNL1        0.0507
     16 O         -12.2908  -15.4659   19.0180 O.co2   1  UNL1       -0.5492
     17 O         -10.2044  -15.5068   20.5658 O.co2   1  UNL1       -0.5492
     18 N          -2.4849  -19.2103   21.8365 N.3     1  UNL1       -0.2972
     19 H          -2.7617  -19.8905   22.5443 H       1  UNL1        0.1233
     20 C          -3.7486  -18.5249   23.3963 C.3     1  UNL1        0.0161
     21 C          -2.9169  -17.8640   22.3373 C.3     1  UNL1        0.0461
     22 C          -2.0853  -17.2031   21.2783 C.3     1  UNL1        0.0161
     23 C          -3.3490  -16.5177   22.8381 C.3     1  UNL1        0.0408
     24 C          -4.6915  -16.3544   23.4873 C.ar    1  UNL1       -0.0209
     25 C          -5.9403  -16.6591   22.7143 C.ar    1  UNL1       -0.0042
     26 C          -7.2827  -16.4958   23.3634 C.ar    1  UNL1       -0.0003
     27 C          -7.3763  -16.0278   24.7854 C.ar    1  UNL1       -0.0000
     28 C          -8.7186  -15.8645   25.4345 C.ar    1  UNL1       -0.0000
     29 C          -8.8121  -15.3965   26.8565 C.ar    1  UNL1       -0.0000
     30 C          -7.5633  -15.0918   27.6295 C.ar    1  UNL1       -0.0000
     31 C          -6.2209  -15.2551   26.9804 C.ar    1  UNL1       -0.0000
     32 C          -6.1274  -15.7231   25.5584 C.ar    1  UNL1       -0.0003
     33 C          -4.7850  -15.8864   24.9093 C.ar    1  UNL1       -0.0042
@<TRIPOS>UNITY_ATOM_ATTR
16 1
charge -1
@<TRIPOS>BOND
     1    20    21    1
     2    21    22    1
     3    21    23    1
     4    23    24    1
     5    24    25   ar
     6    25    26   ar
     7    26    27   ar
     8    27    28   ar
     9    28    29   ar
    10    29    30   ar
    11    30    31   ar
    12    31    32   ar
    13    32    33   ar
    14    21    18    1
    15    18     1    1
    16     1     2    1
    17     2     3    1
    18     2     5    1
    19     5     6    1
    20     6     7    1
    21     7     8   ar
    22     8     9   ar
    23     9    10   ar
    24    10    13    1
    25    13    14    1
    26    14    15    1
    27    15    16   ar
    28    15    17   ar
    29    10    11   ar
    30    11    12   ar
    31    33    24   ar
    32    12     7   ar
    33    32    27   ar
    34    18    19    1
    35     3     4    1
@<TRIPOS>MOLECULE
*****
 33 35 0 0 0
SMALL
GASTEIGER

@<TRIPOS>ATOM
      1 C         -12.3197  -17.2584   21.1234 C.3     1  UNL1        0.1020
      2 C         -12.3928  -16.7411   22.5295 C.3     1  UNL1        0.1697
      3 O         -12.5552  -15.2712   22.7804 O.3     1  UNL1       -0.3793
      4 H         -12.5960  -14.8011   21.9330 H       1  UNL1        0.2106
      5 C         -12.3034  -17.6938   23.6847 C.3     1  UNL1        0.2358
      6 O         -10.9845  -18.3076   24.0503 O.3     1  UNL1       -0.4728
      7 C          -9.9734  -17.5098   24.8192 C.ar    1  UNL1        0.1387
      8 C          -9.4530  -16.2194   24.2590 C.ar    1  UNL1        0.0366
      9 C          -8.4419  -15.4216   25.0278 C.ar    1  UNL1       -0.0011
     10 C          -7.9511  -15.9143   26.3569 C.ar    1  UNL1       -0.0216
     11 C          -8.4715  -17.2047   26.9171 C.ar    1  UNL1       -0.0011
     12 C          -9.4826  -18.0025   26.1483 C.ar    1  UNL1        0.0366
     13 C          -6.9400  -15.1164   27.1258 C.3     1  UNL1        0.0323
     14 C          -5.6271  -14.7609   26.4934 C.3     1  UNL1        0.0464
     15 C          -5.1189  -15.5519   25.3246 C.2     1  UNL1        0.0507
     16 O          -5.2118  -14.9858   23.9386 O.co2   1  UNL1       -0.5492
     17 O          -4.5180  -16.9090   25.5417 O.co2   1  UNL1       -0.5492
     18 N         -12.0825  -18.7182   20.8727 N.3     1  UNL1       -0.2972
     19 H         -12.1829  -19.1913   21.7707 H       1  UNL1        0.1233
     20 C         -10.8065  -20.3864   21.1711 C.3     1  UNL1        0.0161
     21 C         -10.7806  -19.1763   20.2851 C.3     1  UNL1        0.0461
     22 C         -10.7546  -17.9662   19.3991 C.3     1  UNL1        0.0161
     23 C          -9.4787  -19.6344   19.6975 C.3     1  UNL1        0.0408
     24 C          -8.1932  -19.3677   20.4232 C.ar    1  UNL1       -0.0209
     25 C          -8.1896  -18.5043   21.6498 C.ar    1  UNL1       -0.0042
     26 C          -6.9042  -18.2376   22.3754 C.ar    1  UNL1       -0.0003
     27 C          -5.6223  -18.8342   21.8744 C.ar    1  UNL1       -0.0000
     28 C          -4.3369  -18.5675   22.6000 C.ar    1  UNL1       -0.0000
     29 C          -3.0552  -19.1641   22.0990 C.ar    1  UNL1       -0.0000
     30 C          -3.0588  -20.0274   20.8724 C.ar    1  UNL1       -0.0000
     31 C          -4.3442  -20.2942   20.1468 C.ar    1  UNL1       -0.0000
     32 C          -5.6259  -19.6976   20.6478 C.ar    1  UNL1       -0.0003
     33 C          -6.9114  -19.9643   19.9222 C.ar    1  UNL1       -0.0042
@<TRIPOS>UNITY_ATOM_ATTR
16 1
charge -1
@<TRIPOS>BOND
     1    20    21    1
     2    21    22    1
     3    21    23    1
     4    23    24    1
     5    24    25   ar
     6    25    26   ar
     7    26    27   ar
     8    27    28   ar
     9    28    29   ar
    10    29    30   ar
    11    30    31   ar
    12    31    32   ar
    13    32    33   ar
    14    21    18    1
    15    18     1    1
    16     1     2    1
    17     2     3    1
    18     2     5    1
    19     5     6    1
    20     6     7    1
    21     7     8   ar
    22     8     9   ar
    23     9    10   ar
    24    10    13    1
    25    13    14    1
    26    14    15    1
    27    15    16   ar
    28    15    17   ar
    29    10    11   ar
    30    11    12   ar
    31    33    24   ar
    32    12     7   ar
    33    32    27   ar
    34    18    19    1
    35     3     4    1
