@<TRIPOS>MOLECULE
*****
 32 35 0 0 0
SMALL
GASTEIGER

@<TRIPOS>ATOM
      1 N          -4.5179  -17.7242   23.1801 N.am    1  UNL1       -0.2713
      2 C          -4.4838  -16.6359   24.2118 C.3     1  UNL1        0.0987
      3 C          -5.7622  -16.0071   24.6811 C.3     1  UNL1        0.0489
      4 C          -7.0747  -16.4665   24.1186 C.ar    1  UNL1       -0.0047
      5 C          -8.3531  -15.8376   24.5880 C.ar    1  UNL1        0.0537
      6 CL         -8.3190  -14.7493   25.6197 Cl      1  UNL1       -0.0826
      7 C          -9.6656  -16.2970   24.0255 C.ar    1  UNL1        0.0100
      8 C          -9.6996  -17.3853   22.9938 C.ar    1  UNL1        0.0162
      9 C          -8.4212  -18.0142   22.5245 C.ar    1  UNL1        0.0600
     10 CL         -8.4553  -19.1024   21.4928 Cl      1  UNL1       -0.0824
     11 C          -7.1088  -17.5548   23.0869 C.ar    1  UNL1        0.0608
     12 C          -5.8304  -18.1836   22.6177 C.2     1  UNL1        0.2498
     13 O          -5.8644  -19.2719   21.5859 O.2     1  UNL1       -0.2699
     14 C          -3.2395  -18.3531   22.7108 C.3     1  UNL1        0.1283
     15 C          -2.8637  -19.2711   20.3095 C.ar    1  UNL1        0.1420
     16 C          -2.4006  -19.0651   18.8977 C.ar    1  UNL1        0.0494
     17 C          -1.8503  -17.7351   18.4754 C.ar    1  UNL1        0.0394
     18 C          -1.3873  -17.5291   17.0636 C.3     1  UNL1        0.0500
     19 N          -1.7631  -16.6111   19.4649 N.ar    1  UNL1       -0.3245
     20 C          -2.2262  -16.8171   20.8767 C.ar    1  UNL1        0.2579
     21 O          -2.1390  -15.6931   21.8662 O.2     1  UNL1       -0.2674
     22 C          -2.7764  -18.1471   21.2990 C.ar    1  UNL1        0.0875
     23 H          -1.4020  -15.7382   19.1877 H       1  UNL1        0.1686
     24 C          -4.3338  -21.3562   19.8189 C.3     1  UNL1        0.2525
     25 O          -3.4139  -20.6011   20.7318 O.3     1  UNL1       -0.4715
     26 C         -11.0121  -17.8448   22.4313 C.3     1  UNL1        0.1431
     27 C         -11.5252  -17.2584   21.1495 C.3     1  UNL1        0.0906
     28 C         -11.1950  -17.4319   19.6966 C.3     1  UNL1        0.1474
     29 O         -12.2509  -16.4291   19.3369 O.3     1  UNL1       -0.3534
     30 C         -12.5811  -16.2555   20.7898 C.3     1  UNL1        0.1474
     31 O         -11.8114  -18.8905   23.1506 O.3     1  UNL1       -0.3490
     32 C         -12.7287  -18.4954   24.2697 C.3     1  UNL1        0.1745
@<TRIPOS>BOND
     1    24    25    1
     2    25    15    1
     3    15    16   ar
     4    16    17   ar
     5    17    18    1
     6    17    19   ar
     7    19    20   ar
     8    20    21    2
     9    20    22   ar
    10    22    14    1
    11    14     1    1
    12     1     2    1
    13     2     3    1
    14     3     4    1
    15     4     5   ar
    16     5     6    1
    17     5     7   ar
    18     7     8   ar
    19     8    26    1
    20    26    31    1
    21    31    32    1
    22    26    27    1
    23    27    28    1
    24    28    29    1
    25    29    30    1
    26     8     9   ar
    27     9    10    1
    28     9    11   ar
    29    11    12    1
    30    12    13    2
    31    22    15   ar
    32    12     1   am
    33    11     4   ar
    34    30    27    1
    35    19    23    1
@<TRIPOS>MOLECULE
*****
 32 35 0 0 0
SMALL
GASTEIGER

@<TRIPOS>ATOM
      1 N          -8.9319  -18.1015   22.4549 N.am    1  UNL1       -0.2713
      2 C          -8.8433  -17.0017   23.4711 C.3     1  UNL1        0.0987
      3 C          -7.5032  -16.4745   23.8907 C.3     1  UNL1        0.0489
      4 C          -6.2517  -17.0471   23.2941 C.ar    1  UNL1       -0.0047
      5 C          -4.9115  -16.5199   23.7138 C.ar    1  UNL1        0.0537
      6 CL         -4.8229  -15.4202   24.7300 Cl      1  UNL1       -0.0826
      7 C          -3.6600  -17.0925   23.1173 C.ar    1  UNL1        0.0100
      8 C          -3.7487  -18.1923   22.1011 C.ar    1  UNL1        0.0162
      9 C          -5.0888  -18.7195   21.6814 C.ar    1  UNL1        0.0600
     10 CL         -5.1774  -19.8192   20.6653 Cl      1  UNL1       -0.0824
     11 C          -6.3403  -18.1469   22.2780 C.ar    1  UNL1        0.0608
     12 C          -7.6804  -18.6740   21.8583 C.2     1  UNL1        0.2498
     13 O          -7.7691  -19.7738   20.8421 O.2     1  UNL1       -0.2699
     14 C         -10.2721  -18.6287   22.0352 C.3     1  UNL1        0.1283
     15 C         -12.7231  -17.9556   22.5734 C.ar    1  UNL1        0.1420
     16 C         -13.8785  -17.9129   23.5290 C.ar    1  UNL1        0.0494
     17 C         -13.7385  -18.5009   24.9019 C.ar    1  UNL1        0.0394
     18 C         -14.8939  -18.4583   25.8575 C.3     1  UNL1        0.0500
     19 N         -12.4430  -19.1313   25.3192 N.ar    1  UNL1       -0.3245
     20 C         -11.2875  -19.1739   24.3636 C.ar    1  UNL1        0.2579
     21 O          -9.9920  -19.8045   24.7809 O.2     1  UNL1       -0.2674
     22 C         -11.4276  -18.5861   22.9908 C.ar    1  UNL1        0.0875
     23 H         -12.3510  -19.5172   26.2202 H       1  UNL1        0.1686
     24 C         -12.1261  -16.1108   20.8442 C.3     1  UNL1        0.2525
     25 O         -12.8631  -17.3677   21.2006 O.3     1  UNL1       -0.4715
     26 C          -2.4972  -18.7649   21.5045 C.3     1  UNL1        0.1431
     27 C          -1.4727  -17.8548   20.8943 C.3     1  UNL1        0.0906
     28 C          -1.2616  -16.3702   20.8554 C.3     1  UNL1        0.1474
     29 O          -0.0239  -16.5678   20.0314 O.3     1  UNL1       -0.3534
     30 C          -0.2350  -18.0523   20.0702 C.3     1  UNL1        0.1474
     31 O          -2.2701  -20.2475   21.5182 O.3     1  UNL1       -0.3490
     32 C          -2.4216  -21.0411   20.2544 C.3     1  UNL1        0.1745
@<TRIPOS>BOND
     1    24    25    1
     2    25    15    1
     3    15    16   ar
     4    16    17   ar
     5    17    18    1
     6    17    19   ar
     7    19    20   ar
     8    20    21    2
     9    20    22   ar
    10    22    14    1
    11    14     1    1
    12     1     2    1
    13     2     3    1
    14     3     4    1
    15     4     5   ar
    16     5     6    1
    17     5     7   ar
    18     7     8   ar
    19     8    26    1
    20    26    31    1
    21    31    32    1
    22    26    27    1
    23    27    28    1
    24    28    29    1
    25    29    30    1
    26     8     9   ar
    27     9    10    1
    28     9    11   ar
    29    11    12    1
    30    12    13    2
    31    22    15   ar
    32    12     1   am
    33    11     4   ar
    34    30    27    1
    35    19    23    1
@<TRIPOS>MOLECULE
*****
 32 35 0 0 0
SMALL
GASTEIGER

@<TRIPOS>ATOM
      1 N           0.1123    3.0245   20.9299 N.am    1  UNL1       -0.2713
      2 C           0.3289    2.8785   22.4069 C.3     1  UNL1        0.0987
      3 C           1.1635    1.7493   22.9344 C.3     1  UNL1        0.0489
      4 C           1.7815    0.7662   21.9849 C.ar    1  UNL1       -0.0047
      5 C           2.6161   -0.3631   22.5125 C.ar    1  UNL1        0.0537
      6 CL          2.8328   -0.5092   23.9895 Cl      1  UNL1       -0.0826
      7 C           3.2341   -1.3462   21.5629 C.ar    1  UNL1        0.0100
      8 C           3.0174   -1.2001   20.0858 C.ar    1  UNL1        0.0162
      9 C           2.1828   -0.0709   19.5583 C.ar    1  UNL1        0.0600
     10 CL          1.9662    0.0752   18.0813 Cl      1  UNL1       -0.0824
     11 C           1.5648    0.9122   20.5079 C.ar    1  UNL1        0.0608
     12 C           0.7302    2.0414   19.9804 C.2     1  UNL1        0.2498
     13 O           0.5135    2.1876   18.5033 O.2     1  UNL1       -0.2699
     14 C          -0.7224    4.1538   20.4023 C.3     1  UNL1        0.1283
     15 C          -2.5405    4.1431   18.5464 C.ar    1  UNL1        0.1420
     16 C          -3.9551    3.8923   18.1152 C.ar    1  UNL1        0.0494
     17 C          -4.9662    3.4014   19.1086 C.ar    1  UNL1        0.0394
     18 C          -6.3808    3.1505   18.6773 C.3     1  UNL1        0.0500
     19 N          -4.5627    3.1612   20.5331 N.ar    1  UNL1       -0.3245
     20 C          -3.1480    3.4120   20.9644 C.ar    1  UNL1        0.2579
     21 O          -2.7445    3.1718   22.3890 O.2     1  UNL1       -0.2674
     22 C          -2.1370    3.9030   19.9711 C.ar    1  UNL1        0.0875
     23 H          -5.2262    2.8390   21.1851 H       1  UNL1        0.1686
     24 C          -1.6115    4.1963   16.1208 C.3     1  UNL1        0.2525
     25 O          -1.5295    4.6341   17.5531 O.3     1  UNL1       -0.4715
     26 C           3.6354   -2.1832   19.1363 C.3     1  UNL1        0.1431
     27 C           4.8859   -1.8215   18.3909 C.3     1  UNL1        0.0906
     28 C           6.1935   -2.5043   18.1188 C.3     1  UNL1        0.1474
     29 O           6.6543   -1.3100   17.3368 O.3     1  UNL1       -0.3534
     30 C           5.3467   -0.6273   17.6090 C.3     1  UNL1        0.1474
     31 O           3.0029   -3.5279   18.9321 O.3     1  UNL1       -0.3490
     32 C           3.6566   -4.7568   19.4911 C.3     1  UNL1        0.1745
@<TRIPOS>BOND
     1    24    25    1
     2    25    15    1
     3    15    16   ar
     4    16    17   ar
     5    17    18    1
     6    17    19   ar
     7    19    20   ar
     8    20    21    2
     9    20    22   ar
    10    22    14    1
    11    14     1    1
    12     1     2    1
    13     2     3    1
    14     3     4    1
    15     4     5   ar
    16     5     6    1
    17     5     7   ar
    18     7     8   ar
    19     8    26    1
    20    26    31    1
    21    31    32    1
    22    26    27    1
    23    27    28    1
    24    28    29    1
    25    29    30    1
    26     8     9   ar
    27     9    10    1
    28     9    11   ar
    29    11    12    1
    30    12    13    2
    31    22    15   ar
    32    12     1   am
    33    11     4   ar
    34    30    27    1
    35    19    23    1
@<TRIPOS>MOLECULE
*****
 32 35 0 0 0
SMALL
GASTEIGER

@<TRIPOS>ATOM
      1 N           0.1420    3.0222   20.8812 N.am    1  UNL1       -0.2713
      2 C           0.3398    2.8759   22.3609 C.3     1  UNL1        0.0987
      3 C           1.1638    1.7440   22.8991 C.3     1  UNL1        0.0489
      4 C           1.7901    0.7584   21.9576 C.ar    1  UNL1       -0.0047
      5 C           2.6142   -0.3735   22.4959 C.ar    1  UNL1        0.0537
      6 CL          2.8120   -0.5198   23.9755 Cl      1  UNL1       -0.0826
      7 C           3.2404   -1.3592   21.5544 C.ar    1  UNL1        0.0100
      8 C           3.0426   -1.2128   20.0747 C.ar    1  UNL1        0.0162
      9 C           2.2185   -0.0809   19.5365 C.ar    1  UNL1        0.0600
     10 CL          2.0208    0.0653   18.0568 Cl      1  UNL1       -0.0824
     11 C           1.5923    0.9047   20.4780 C.ar    1  UNL1        0.0608
     12 C           0.7682    2.0366   19.9398 C.2     1  UNL1        0.2498
     13 O           0.5704    2.1829   18.4600 O.2     1  UNL1       -0.2699
     14 C          -0.6821    4.1541   20.3430 C.3     1  UNL1        0.1283
     15 C          -3.1332    3.6218   21.0204 C.ar    1  UNL1        0.1420
     16 C          -4.5655    3.3916   20.6390 C.ar    1  UNL1        0.0494
     17 C          -4.9791    3.4634   19.1988 C.ar    1  UNL1        0.0394
     18 C          -6.4114    3.2331   18.8175 C.3     1  UNL1        0.0500
     19 N          -3.9603    3.7654   18.1402 N.ar    1  UNL1       -0.3245
     20 C          -2.5280    3.9957   18.5215 C.ar    1  UNL1        0.2579
     21 O          -1.5092    4.2977   17.4628 O.2     1  UNL1       -0.2674
     22 C          -2.1144    3.9239   19.9616 C.ar    1  UNL1        0.0875
     23 H          -4.2317    3.8125   17.1950 H       1  UNL1        0.1686
     24 C          -3.7564    3.6147   23.5425 C.3     1  UNL1        0.2525
     25 O          -2.7197    3.5500   22.4604 O.3     1  UNL1       -0.4715
     26 C           3.6689   -2.1985   19.1332 C.3     1  UNL1        0.1431
     27 C           4.9101   -1.8284   18.3765 C.3     1  UNL1        0.0906
     28 C           5.3220   -0.6715   17.5152 C.3     1  UNL1        0.1474
     29 O           6.6654   -1.3052   17.3065 O.3     1  UNL1       -0.3534
     30 C           6.2535   -2.4621   18.1678 C.3     1  UNL1        0.1474
     31 O           3.0540   -3.5541   18.9484 O.3     1  UNL1       -0.3490
     32 C           3.7380   -4.7695   19.5005 C.3     1  UNL1        0.1745
@<TRIPOS>BOND
     1    24    25    1
     2    25    15    1
     3    15    16   ar
     4    16    17   ar
     5    17    18    1
     6    17    19   ar
     7    19    20   ar
     8    20    21    2
     9    20    22   ar
    10    22    14    1
    11    14     1    1
    12     1     2    1
    13     2     3    1
    14     3     4    1
    15     4     5   ar
    16     5     6    1
    17     5     7   ar
    18     7     8   ar
    19     8    26    1
    20    26    31    1
    21    31    32    1
    22    26    27    1
    23    27    28    1
    24    28    29    1
    25    29    30    1
    26     8     9   ar
    27     9    10    1
    28     9    11   ar
    29    11    12    1
    30    12    13    2
    31    22    15   ar
    32    12     1   am
    33    11     4   ar
    34    30    27    1
    35    19    23    1
@<TRIPOS>MOLECULE
*****
 32 35 0 0 0
SMALL
GASTEIGER

@<TRIPOS>ATOM
      1 N          -4.9558  -18.3727   22.6863 N.am    1  UNL1       -0.2713
      2 C          -4.6996  -17.1960   23.5805 C.3     1  UNL1        0.0987
      3 C          -5.8474  -16.3689   24.0790 C.3     1  UNL1        0.0489
      4 C          -7.2513  -16.7185   23.6831 C.ar    1  UNL1       -0.0047
      5 C          -8.3992  -15.8914   24.1816 C.ar    1  UNL1        0.0537
      6 CL         -8.1430  -14.7147   25.0759 Cl      1  UNL1       -0.0826
      7 C          -9.8031  -16.2410   23.7858 C.ar    1  UNL1        0.0100
      8 C         -10.0593  -17.4178   22.8915 C.ar    1  UNL1        0.0162
      9 C          -8.9115  -18.2448   22.3931 C.ar    1  UNL1        0.0600
     10 CL         -9.1676  -19.4215   21.4988 Cl      1  UNL1       -0.0824
     11 C          -7.5075  -17.8952   22.7889 C.ar    1  UNL1        0.0608
     12 C          -6.3597  -18.7223   22.2905 C.2     1  UNL1        0.2498
     13 O          -6.6158  -19.8991   21.3962 O.2     1  UNL1       -0.2699
     14 C          -3.8079  -19.1998   22.1878 C.3     1  UNL1        0.1283
     15 C          -2.2112  -17.6732   20.8203 C.ar    1  UNL1        0.1420
     16 C          -1.5419  -17.3234   19.5243 C.ar    1  UNL1        0.0494
     17 C          -1.8000  -18.1505   18.2998 C.ar    1  UNL1        0.0394
     18 C          -1.1306  -17.8007   17.0037 C.3     1  UNL1        0.0500
     19 N          -2.7273  -19.3273   18.3713 N.ar    1  UNL1       -0.3245
     20 C          -3.3967  -19.6770   19.6673 C.ar    1  UNL1        0.2579
     21 O          -4.3241  -20.8539   19.7388 O.2     1  UNL1       -0.2674
     22 C          -3.1386  -18.8500   20.8918 C.ar    1  UNL1        0.0875
     23 H          -2.8967  -19.8701   17.5676 H       1  UNL1        0.1686
     24 C          -2.3266  -15.3936   22.0611 C.3     1  UNL1        0.2525
     25 O          -1.9531  -16.8462   22.0448 O.3     1  UNL1       -0.4715
     26 C         -11.4632  -17.7674   22.4957 C.3     1  UNL1        0.1431
     27 C         -12.4764  -18.1081   23.5481 C.3     1  UNL1        0.0906
     28 C         -12.4382  -18.8273   24.8639 C.3     1  UNL1        0.1474
     29 O         -13.9093  -18.5898   25.0363 O.3     1  UNL1       -0.3534
     30 C         -13.9474  -17.8706   23.7205 C.3     1  UNL1        0.1474
     31 O         -11.8540  -17.7764   21.0475 O.3     1  UNL1       -0.3490
     32 C         -11.8580  -16.4974   20.2638 C.3     1  UNL1        0.1745
@<TRIPOS>BOND
     1    24    25    1
     2    25    15    1
     3    15    16   ar
     4    16    17   ar
     5    17    18    1
     6    17    19   ar
     7    19    20   ar
     8    20    21    2
     9    20    22   ar
    10    22    14    1
    11    14     1    1
    12     1     2    1
    13     2     3    1
    14     3     4    1
    15     4     5   ar
    16     5     6    1
    17     5     7   ar
    18     7     8   ar
    19     8    26    1
    20    26    31    1
    21    31    32    1
    22    26    27    1
    23    27    28    1
    24    28    29    1
    25    29    30    1
    26     8     9   ar
    27     9    10    1
    28     9    11   ar
    29    11    12    1
    30    12    13    2
    31    22    15   ar
    32    12     1   am
    33    11     4   ar
    34    30    27    1
    35    19    23    1
@<TRIPOS>MOLECULE
*****
 32 35 0 0 0
SMALL
GASTEIGER

@<TRIPOS>ATOM
      1 N           4.1902   -0.3056   25.7199 N.am    1  UNL1       -0.2713
      2 C           5.1412   -1.2798   26.3495 C.3     1  UNL1        0.0987
      3 C           5.7653   -2.3618   25.5192 C.3     1  UNL1        0.0489
      4 C           5.4385   -2.4697   24.0592 C.ar    1  UNL1       -0.0047
      5 C           6.0627   -3.5519   23.2289 C.ar    1  UNL1        0.0537
      6 CL          7.0137   -4.5260   23.8585 Cl      1  UNL1       -0.0826
      7 C           5.7358   -3.6597   21.7689 C.ar    1  UNL1        0.0100
      8 C           4.7847   -2.6855   21.1393 C.ar    1  UNL1        0.0162
      9 C           4.1605   -1.6034   21.9696 C.ar    1  UNL1        0.0600
     10 CL          3.2095   -0.6292   21.3400 Cl      1  UNL1       -0.0824
     11 C           4.4874   -1.4955   23.4296 C.ar    1  UNL1        0.0608
     12 C           3.8633   -0.4135   24.2600 C.2     1  UNL1        0.2498
     13 O           2.9122    0.5608   23.6304 O.2     1  UNL1       -0.2699
     14 C           3.5660    0.7766   26.5503 C.3     1  UNL1        0.1283
     15 C           1.0213    1.2861   26.6725 C.ar    1  UNL1        0.1420
     16 C          -0.3188    1.0644   27.3089 C.ar    1  UNL1        0.0494
     17 C          -0.4543    0.1115   28.4594 C.ar    1  UNL1        0.0394
     18 C          -1.7944   -0.1102   29.0958 C.3     1  UNL1        0.0500
     19 N           0.7502   -0.6197   28.9735 N.ar    1  UNL1       -0.3245
     20 C           2.0903   -0.3980   28.3371 C.ar    1  UNL1        0.2579
     21 O           3.2949   -1.1293   28.8512 O.2     1  UNL1       -0.2674
     22 C           2.2259    0.5549   27.1867 C.ar    1  UNL1        0.0875
     23 H           0.6613   -1.2451   29.7286 H       1  UNL1        0.1686
     24 C           0.0106    2.4399   24.5756 C.3     1  UNL1        0.2525
     25 O           1.1568    2.2390   25.5221 O.3     1  UNL1       -0.4715
     26 C           4.4578   -2.7934   19.6793 C.3     1  UNL1        0.1431
     27 C           5.3223   -2.1058   18.6644 C.3     1  UNL1        0.0906
     28 C           5.1319   -0.9685   17.7050 C.3     1  UNL1        0.1474
     29 O           6.5448   -1.1335   17.2291 O.3     1  UNL1       -0.3534
     30 C           6.7352   -2.2708   18.1885 C.3     1  UNL1        0.1474
     31 O           3.2665   -3.5888   19.2343 O.3     1  UNL1       -0.3490
     32 C           3.2764   -5.0841   19.3524 C.3     1  UNL1        0.1745
@<TRIPOS>BOND
     1    24    25    1
     2    25    15    1
     3    15    16   ar
     4    16    17   ar
     5    17    18    1
     6    17    19   ar
     7    19    20   ar
     8    20    21    2
     9    20    22   ar
    10    22    14    1
    11    14     1    1
    12     1     2    1
    13     2     3    1
    14     3     4    1
    15     4     5   ar
    16     5     6    1
    17     5     7   ar
    18     7     8   ar
    19     8    26    1
    20    26    31    1
    21    31    32    1
    22    26    27    1
    23    27    28    1
    24    28    29    1
    25    29    30    1
    26     8     9   ar
    27     9    10    1
    28     9    11   ar
    29    11    12    1
    30    12    13    2
    31    22    15   ar
    32    12     1   am
    33    11     4   ar
    34    30    27    1
    35    19    23    1
@<TRIPOS>MOLECULE
*****
 32 35 0 0 0
SMALL
GASTEIGER

@<TRIPOS>ATOM
      1 N           2.4116    0.4046   25.0406 N.am    1  UNL1       -0.2713
      2 C           1.3465    1.3427   24.5551 C.3     1  UNL1        0.0987
      3 C           0.9413    1.3344   23.1109 C.3     1  UNL1        0.0489
      4 C           1.6011    0.3881   22.1522 C.ar    1  UNL1       -0.0047
      5 C           1.1958    0.3798   20.7080 C.ar    1  UNL1        0.0537
      6 CL          0.1308    1.3179   20.2225 Cl      1  UNL1       -0.0826
      7 C           1.8557   -0.5665   19.7493 C.ar    1  UNL1        0.0100
      8 C           2.9208   -1.5046   20.2348 C.ar    1  UNL1        0.0162
      9 C           3.3260   -1.4963   21.6790 C.ar    1  UNL1        0.0600
     10 CL          4.3910   -2.4343   22.1645 Cl      1  UNL1       -0.0824
     11 C           2.6662   -0.5500   22.6377 C.ar    1  UNL1        0.0608
     12 C           3.0714   -0.5417   24.0819 C.2     1  UNL1        0.2498
     13 O           4.1365   -1.4798   24.5674 O.2     1  UNL1       -0.2699
     14 C           2.8169    0.4129   26.4848 C.3     1  UNL1        0.1283
     15 C           1.1390    1.1817   28.3135 C.ar    1  UNL1        0.1420
     16 C           0.6171    2.2458   29.2329 C.ar    1  UNL1        0.0494
     17 C           1.2510    3.6053   29.2429 C.ar    1  UNL1        0.0394
     18 C           0.7291    4.6694   30.1622 C.3     1  UNL1        0.0500
     19 N           2.4068    3.9005   28.3336 N.ar    1  UNL1       -0.3245
     20 C           2.9288    2.8364   27.4142 C.ar    1  UNL1        0.2579
     21 O           4.0846    3.1318   26.5049 O.2     1  UNL1       -0.2674
     22 C           2.2949    1.4770   27.4042 C.ar    1  UNL1        0.0875
     23 H           2.8229    4.7928   28.3401 H       1  UNL1        0.1686
     24 C          -0.9114   -0.3481   28.7662 C.3     1  UNL1        0.2525
     25 O           0.5052   -0.1778   28.3035 O.3     1  UNL1       -0.4715
     26 C           3.5806   -2.4509   19.2761 C.3     1  UNL1        0.1431
     27 C           4.7622   -1.9992   18.4700 C.3     1  UNL1        0.0906
     28 C           5.0527   -0.8288   17.5779 C.3     1  UNL1        0.1474
     29 O           6.4333   -1.3604   17.3301 O.3     1  UNL1       -0.3534
     30 C           6.1428   -2.5308   18.2222 C.3     1  UNL1        0.1474
     31 O           3.0588   -3.8489   19.1235 O.3     1  UNL1       -0.3490
     32 C           3.8524   -5.0074   19.6508 C.3     1  UNL1        0.1745
@<TRIPOS>BOND
     1    24    25    1
     2    25    15    1
     3    15    16   ar
     4    16    17   ar
     5    17    18    1
     6    17    19   ar
     7    19    20   ar
     8    20    21    2
     9    20    22   ar
    10    22    14    1
    11    14     1    1
    12     1     2    1
    13     2     3    1
    14     3     4    1
    15     4     5   ar
    16     5     6    1
    17     5     7   ar
    18     7     8   ar
    19     8    26    1
    20    26    31    1
    21    31    32    1
    22    26    27    1
    23    27    28    1
    24    28    29    1
    25    29    30    1
    26     8     9   ar
    27     9    10    1
    28     9    11   ar
    29    11    12    1
    30    12    13    2
    31    22    15   ar
    32    12     1   am
    33    11     4   ar
    34    30    27    1
    35    19    23    1
@<TRIPOS>MOLECULE
*****
 32 35 0 0 0
SMALL
GASTEIGER

@<TRIPOS>ATOM
      1 N           6.8169   -2.8854   25.5135 N.am    1  UNL1       -0.2713
      2 C           5.8485   -1.9615   26.1906 C.3     1  UNL1        0.0987
      3 C           4.7140   -1.3631   25.4129 C.3     1  UNL1        0.0489
      4 C           4.5480   -1.6886   23.9581 C.ar    1  UNL1       -0.0047
      5 C           3.4134   -1.0902   23.1804 C.ar    1  UNL1        0.0537
      6 CL          2.4450   -0.1663   23.8575 Cl      1  UNL1       -0.0826
      7 C           3.2474   -1.4157   21.7256 C.ar    1  UNL1        0.0100
      8 C           4.2159   -2.3396   21.0484 C.ar    1  UNL1        0.0162
      9 C           5.3504   -2.9380   21.8261 C.ar    1  UNL1        0.0600
     10 CL          6.3188   -3.8618   21.1490 Cl      1  UNL1       -0.0824
     11 C           5.5164   -2.6125   23.2810 C.ar    1  UNL1        0.0608
     12 C           6.6509   -3.2109   24.0586 C.2     1  UNL1        0.2498
     13 O           7.6194   -4.1348   23.3815 O.2     1  UNL1       -0.2699
     14 C           7.9515   -3.4838   26.2911 C.3     1  UNL1        0.1283
     15 C           8.1236   -3.3160   28.8781 C.ar    1  UNL1        0.1420
     16 C           7.8754   -3.9004   30.2371 C.ar    1  UNL1        0.0494
     17 C           7.2069   -5.2368   30.3682 C.ar    1  UNL1        0.0394
     18 C           6.9587   -5.8212   31.7272 C.3     1  UNL1        0.0500
     19 N           6.7866   -5.9888   29.1403 N.ar    1  UNL1       -0.3245
     20 C           7.0348   -5.4045   27.7813 C.ar    1  UNL1        0.2579
     21 O           6.6145   -6.1566   26.5534 O.2     1  UNL1       -0.2674
     22 C           7.7033   -4.0681   27.6502 C.ar    1  UNL1        0.0875
     23 H           6.3479   -6.8659   29.2264 H       1  UNL1        0.1686
     24 C           8.1029   -0.7442   29.2454 C.3     1  UNL1        0.2525
     25 O           8.7921   -1.9797   28.7470 O.3     1  UNL1       -0.4715
     26 C           4.0498   -2.6651   19.5936 C.3     1  UNL1        0.1431
     27 C           4.7980   -1.8779   18.5588 C.3     1  UNL1        0.0906
     28 C           4.4282   -0.8314   17.5499 C.3     1  UNL1        0.1474
     29 O           5.8561   -0.7648   17.0955 O.3     1  UNL1       -0.3534
     30 C           6.2260   -1.8114   18.1044 C.3     1  UNL1        0.1474
     31 O           3.1357   -3.7776   19.1736 O.3     1  UNL1       -0.3490
     32 C           3.4703   -5.1968   19.5260 C.3     1  UNL1        0.1745
@<TRIPOS>BOND
     1    24    25    1
     2    25    15    1
     3    15    16   ar
     4    16    17   ar
     5    17    18    1
     6    17    19   ar
     7    19    20   ar
     8    20    21    2
     9    20    22   ar
    10    22    14    1
    11    14     1    1
    12     1     2    1
    13     2     3    1
    14     3     4    1
    15     4     5   ar
    16     5     6    1
    17     5     7   ar
    18     7     8   ar
    19     8    26    1
    20    26    31    1
    21    31    32    1
    22    26    27    1
    23    27    28    1
    24    28    29    1
    25    29    30    1
    26     8     9   ar
    27     9    10    1
    28     9    11   ar
    29    11    12    1
    30    12    13    2
    31    22    15   ar
    32    12     1   am
    33    11     4   ar
    34    30    27    1
    35    19    23    1
@<TRIPOS>MOLECULE
*****
 32 35 0 0 0
SMALL
GASTEIGER

@<TRIPOS>ATOM
      1 N           1.7426    1.6928   31.3175 N.am    1  UNL1       -0.2713
      2 C           0.8637    2.8637   30.9911 C.3     1  UNL1        0.0987
      3 C           0.5856    3.9062   32.0330 C.3     1  UNL1        0.0489
      4 C           1.1865    3.7780   33.4014 C.ar    1  UNL1       -0.0047
      5 C           0.9084    4.8206   34.4434 C.ar    1  UNL1        0.0537
      6 CL          0.0295    5.9915   34.1169 Cl      1  UNL1       -0.0826
      7 C           1.5092    4.6923   35.8118 C.ar    1  UNL1        0.0100
      8 C           2.3881    3.5214   36.1382 C.ar    1  UNL1        0.0162
      9 C           2.6662    2.4788   35.0963 C.ar    1  UNL1        0.0600
     10 CL          3.5450    1.3080   35.4228 Cl      1  UNL1       -0.0824
     11 C           2.0653    2.6071   33.7279 C.ar    1  UNL1        0.0608
     12 C           2.3434    1.5645   32.6859 C.2     1  UNL1        0.2498
     13 O           3.2223    0.3936   33.0124 O.2     1  UNL1       -0.2699
     14 C           2.0206    0.6502   30.2756 C.3     1  UNL1        0.1283
     15 C           2.4458    1.6266   27.9057 C.ar    1  UNL1        0.1420
     16 C           1.9985    1.8427   26.4904 C.ar    1  UNL1        0.0494
     17 C           0.6788    1.2986   26.0295 C.ar    1  UNL1        0.0394
     18 C           0.2315    1.5147   24.6142 C.3     1  UNL1        0.0500
     19 N          -0.1936    0.5384   26.9840 N.ar    1  UNL1       -0.3245
     20 C           0.2537    0.3222   28.3993 C.ar    1  UNL1        0.2579
     21 O          -0.6187   -0.4380   29.3538 O.2     1  UNL1       -0.2674
     22 C           1.5734    0.8663   28.8602 C.ar    1  UNL1        0.0875
     23 H          -1.0597    0.1813   26.6815 H       1  UNL1        0.1686
     24 C           3.8705    3.5949   28.8252 C.3     1  UNL1        0.2525
     25 O           3.7654    2.1706   28.3666 O.3     1  UNL1       -0.4715
     26 C           2.9889    3.3931   37.5066 C.3     1  UNL1        0.1431
     27 C           2.4359    2.3925   38.4778 C.3     1  UNL1        0.0906
     28 C           2.8496    1.0291   38.9470 C.3     1  UNL1        0.1474
     29 O           1.6538    0.9775   39.8511 O.3     1  UNL1       -0.3534
     30 C           1.2401    2.3408   39.3819 C.3     1  UNL1        0.1474
     31 O           4.1427    4.2654   37.9040 O.3     1  UNL1       -0.3490
     32 C           3.9346    5.3865   38.8785 C.3     1  UNL1        0.1745
@<TRIPOS>BOND
     1    24    25    1
     2    25    15    1
     3    15    16   ar
     4    16    17   ar
     5    17    18    1
     6    17    19   ar
     7    19    20   ar
     8    20    21    2
     9    20    22   ar
    10    22    14    1
    11    14     1    1
    12     1     2    1
    13     2     3    1
    14     3     4    1
    15     4     5   ar
    16     5     6    1
    17     5     7   ar
    18     7     8   ar
    19     8    26    1
    20    26    31    1
    21    31    32    1
    22    26    27    1
    23    27    28    1
    24    28    29    1
    25    29    30    1
    26     8     9   ar
    27     9    10    1
    28     9    11   ar
    29    11    12    1
    30    12    13    2
    31    22    15   ar
    32    12     1   am
    33    11     4   ar
    34    30    27    1
    35    19    23    1
