@<TRIPOS>MOLECULE
*****
 33 36 0 0 0
SMALL
GASTEIGER

@<TRIPOS>ATOM
      1 C          -8.9215  -18.6838   20.7194 C.ar    1  UNL1        0.0951
      2 C          -9.6415  -19.2626   19.5377 C.ar    1  UNL1        0.1454
      3 F         -11.0388  -18.8192   19.2201 F       1  UNL1       -0.2040
      4 C          -8.9642  -20.2847   18.6736 C.ar    1  UNL1        0.0312
      5 C          -7.5669  -20.7280   18.9913 C.ar    1  UNL1        0.0204
      6 C          -6.8469  -20.1492   20.1731 C.ar    1  UNL1        0.0924
      7 C          -7.5241  -19.1271   21.0372 C.ar    1  UNL1        0.1598
      8 F          -6.8040  -18.5484   22.2189 F       1  UNL1       -0.2026
      9 C          -9.5987  -17.6617   21.5835 C.2     1  UNL1        0.2036
     10 O          -9.9587  -16.3204   21.0167 O.2     1  UNL1       -0.2863
     11 C          -7.4817  -16.1979   25.7177 C.2     1  UNL1        0.0974
     12 C          -8.1344  -16.7709   26.9406 C.2     1  UNL1        0.2421
     13 N          -9.3116  -17.6901   26.8016 N.2     1  UNL1       -0.0304
     14 C          -9.8360  -18.0363   25.4396 C.2     1  UNL1        0.3721
     15 N         -10.9720  -18.9081   24.9932 N.2     1  UNL1       -0.0307
     16 C         -11.0214  -18.8740   23.4944 C.2     1  UNL1        0.2390
     17 C          -9.9159  -17.9810   23.0144 C.2     1  UNL1        0.0896
     18 C          -9.1833  -17.4632   24.2167 C.2     1  UNL1        0.0782
     19 C          -8.0061  -16.5440   24.3557 C.3     1  UNL1        0.0751
     20 N          -5.1274  -14.3594   25.9959 N.1     1  UNL1       -0.1910
     21 C          -6.3045  -15.2787   25.8568 C.1     1  UNL1        0.1003
     22 N          -5.4495  -20.5926   20.4907 N.pl3   1  UNL1       -0.2127
     23 H          -5.2651  -21.5409   20.6805 H       1  UNL1        0.1738
     24 S          -4.3331  -19.5912   20.5192 S.O2    1  UNL1        0.0758
     25 O          -3.6245  -20.4106   21.5566 O.2     1  UNL1       -0.1499
     26 O          -5.0418  -18.7717   19.4818 O.2     1  UNL1       -0.1499
     27 C          -3.2167  -18.5897   20.5476 C.ar    1  UNL1        0.1524
     28 C          -2.2426  -18.5200   19.4091 C.ar    1  UNL1        0.0225
     29 C          -1.1262  -17.5186   19.4375 C.ar    1  UNL1        0.0015
     30 C          -0.9840  -16.5868   20.6044 C.ar    1  UNL1        0.0024
     31 C          -1.9581  -16.6565   21.7429 C.ar    1  UNL1        0.0310
     32 C          -3.0744  -17.6579   21.7145 C.ar    1  UNL1        0.1589
     33 F          -4.0486  -17.7277   22.8530 F       1  UNL1       -0.2027
@<TRIPOS>BOND
     1    20    21    3
     2    21    11    1
     3    11    12    2
     4    12    13    1
     5    13    14    2
     6    14    15    1
     7    15    16    2
     8    16    17    1
     9    17     9    1
    10     9    10    2
    11     9     1    1
    12     1     2   ar
    13     2     3    1
    14     2     4   ar
    15     4     5   ar
    16     5     6   ar
    17     6    22    1
    18    22    24    1
    19    24    25    2
    20    24    26    2
    21    24    27    1
    22    27    28   ar
    23    28    29   ar
    24    29    30   ar
    25    30    31   ar
    26    31    32   ar
    27    32    33    1
    28     6     7   ar
    29     7     8    1
    30    17    18    2
    31    18    19    1
    32    19    11    1
    33    18    14    1
    34     7     1   ar
    35    32    27   ar
    36    22    23    1
@<TRIPOS>MOLECULE
*****
 33 36 0 0 0
SMALL
GASTEIGER

@<TRIPOS>ATOM
      1 C         -10.3929  -19.1378   22.2624 C.ar    1  UNL1        0.0951
      2 C         -11.4262  -18.6611   21.2852 C.ar    1  UNL1        0.1454
      3 F         -12.7505  -18.1592   21.7794 F       1  UNL1       -0.2040
      4 C         -11.1352  -18.6861   19.8139 C.ar    1  UNL1        0.0312
      5 C          -9.8108  -19.1880   19.3198 C.ar    1  UNL1        0.0204
      6 C          -8.7774  -19.6648   20.2970 C.ar    1  UNL1        0.0924
      7 C          -9.0684  -19.6397   21.7683 C.ar    1  UNL1        0.1598
      8 F          -8.0351  -20.1165   22.7454 F       1  UNL1       -0.2026
      9 C         -10.6838  -19.1128   23.7337 C.2     1  UNL1        0.2036
     10 O         -11.7685  -19.9814   24.2986 O.2     1  UNL1       -0.2863
     11 C          -7.9675  -15.1904   22.7578 C.2     1  UNL1        0.0974
     12 C          -7.3425  -14.5952   23.9846 C.2     1  UNL1        0.2421
     13 N          -7.5882  -15.2158   25.3279 N.2     1  UNL1       -0.0304
     14 C          -8.4589  -16.4316   25.4444 C.2     1  UNL1        0.3721
     15 N          -8.8789  -17.2561   26.6250 N.2     1  UNL1       -0.0307
     16 C          -9.7634  -18.3608   26.1279 C.2     1  UNL1        0.2390
     17 C          -9.8902  -18.2191   24.6400 C.2     1  UNL1        0.0896
     18 C          -9.0840  -17.0268   24.2176 C.2     1  UNL1        0.0782
     19 C          -8.8382  -16.4061   22.8743 C.3     1  UNL1        0.0751
     20 N          -7.4760  -13.9491   20.0712 N.1     1  UNL1       -0.1910
     21 C          -7.7218  -14.5697   21.4145 C.1     1  UNL1        0.1003
     22 N          -7.4531  -20.1667   19.8029 N.pl3   1  UNL1       -0.2127
     23 H          -7.4163  -20.7973   19.0478 H       1  UNL1        0.1738
     24 S          -6.1848  -19.7077   20.4591 S.O2    1  UNL1        0.0758
     25 O          -6.5459  -18.2828   20.1606 O.2     1  UNL1       -0.1499
     26 O          -5.8236  -21.1326   20.7577 O.2     1  UNL1       -0.1499
     27 C          -4.9164  -19.2487   21.1155 C.ar    1  UNL1        0.1524
     28 C          -4.9604  -18.6278   22.4802 C.ar    1  UNL1        0.0225
     29 C          -3.6921  -18.1688   23.1366 C.ar    1  UNL1        0.0015
     30 C          -2.3798  -18.3308   22.4282 C.ar    1  UNL1        0.0024
     31 C          -2.3359  -18.9517   21.0635 C.ar    1  UNL1        0.0310
     32 C          -3.6042  -19.4107   20.4071 C.ar    1  UNL1        0.1589
     33 F          -3.5603  -20.0316   19.0424 F       1  UNL1       -0.2027
@<TRIPOS>BOND
     1    20    21    3
     2    21    11    1
     3    11    12    2
     4    12    13    1
     5    13    14    2
     6    14    15    1
     7    15    16    2
     8    16    17    1
     9    17     9    1
    10     9    10    2
    11     9     1    1
    12     1     2   ar
    13     2     3    1
    14     2     4   ar
    15     4     5   ar
    16     5     6   ar
    17     6    22    1
    18    22    24    1
    19    24    25    2
    20    24    26    2
    21    24    27    1
    22    27    28   ar
    23    28    29   ar
    24    29    30   ar
    25    30    31   ar
    26    31    32   ar
    27    32    33    1
    28     6     7   ar
    29     7     8    1
    30    17    18    2
    31    18    19    1
    32    19    11    1
    33    18    14    1
    34     7     1   ar
    35    32    27   ar
    36    22    23    1
@<TRIPOS>MOLECULE
*****
 33 36 0 0 0
SMALL
GASTEIGER

@<TRIPOS>ATOM
      1 C          -5.7904  -15.7481   24.4149 C.ar    1  UNL1        0.0951
      2 C          -5.4470  -15.7760   25.8747 C.ar    1  UNL1        0.1454
      3 F          -4.0115  -15.7383   26.3083 F       1  UNL1       -0.2040
      4 C          -6.5390  -15.8416   26.9010 C.ar    1  UNL1        0.0312
      5 C          -7.9745  -15.8793   26.4674 C.ar    1  UNL1        0.0204
      6 C          -8.3179  -15.8514   25.0075 C.ar    1  UNL1        0.0924
      7 C          -7.2259  -15.7859   23.9812 C.ar    1  UNL1        0.1598
      8 F          -7.5694  -15.7580   22.5213 F       1  UNL1       -0.2026
      9 C          -4.6984  -15.6826   23.3886 C.2     1  UNL1        0.2036
     10 O          -4.3931  -14.3853   22.7002 O.2     1  UNL1       -0.2863
     11 C          -5.8315  -19.5245   20.6188 C.2     1  UNL1        0.0974
     12 C          -4.7308  -20.5415   20.5556 C.2     1  UNL1        0.2421
     13 N          -3.4511  -20.3090   21.3026 N.2     1  UNL1       -0.0304
     14 C          -3.2720  -19.0594   22.1129 C.2     1  UNL1        0.3721
     15 N          -2.1308  -18.5599   22.9484 N.2     1  UNL1       -0.0307
     16 C          -2.5263  -17.2341   23.5280 C.2     1  UNL1        0.2390
     17 C          -3.9118  -16.9142   23.0507 C.2     1  UNL1        0.0896
     18 C          -4.3727  -18.0424   22.1760 C.2     1  UNL1        0.0782
     19 C          -5.6525  -18.2749   21.4290 C.3     1  UNL1        0.0751
     20 N          -8.3911  -19.9895   19.1246 N.1     1  UNL1       -0.1910
     21 C          -7.1113  -19.7570   19.8717 C.1     1  UNL1        0.1003
     22 N          -9.7534  -15.8892   24.5739 N.pl3   1  UNL1       -0.2127
     23 H         -10.4210  -15.3297   25.0327 H       1  UNL1        0.1738
     24 S         -10.1716  -16.7793   23.4413 S.O2    1  UNL1        0.0758
     25 O         -11.1195  -15.7213   22.9598 O.2     1  UNL1       -0.1499
     26 O          -9.2237  -17.8374   23.9228 O.2     1  UNL1       -0.1499
     27 C         -10.5898  -17.6695   22.3087 C.ar    1  UNL1        0.1524
     28 C         -10.8801  -19.1192   22.5621 C.ar    1  UNL1        0.0225
     29 C         -11.2983  -20.0094   21.4296 C.ar    1  UNL1        0.0015
     30 C         -11.4262  -19.4499   20.0437 C.ar    1  UNL1        0.0024
     31 C         -11.1360  -18.0003   19.7903 C.ar    1  UNL1        0.0310
     32 C         -10.7178  -17.1100   20.9228 C.ar    1  UNL1        0.1589
     33 F         -10.4275  -15.6604   20.6696 F       1  UNL1       -0.2027
@<TRIPOS>BOND
     1    20    21    3
     2    21    11    1
     3    11    12    2
     4    12    13    1
     5    13    14    2
     6    14    15    1
     7    15    16    2
     8    16    17    1
     9    17     9    1
    10     9    10    2
    11     9     1    1
    12     1     2   ar
    13     2     3    1
    14     2     4   ar
    15     4     5   ar
    16     5     6   ar
    17     6    22    1
    18    22    24    1
    19    24    25    2
    20    24    26    2
    21    24    27    1
    22    27    28   ar
    23    28    29   ar
    24    29    30   ar
    25    30    31   ar
    26    31    32   ar
    27    32    33    1
    28     6     7   ar
    29     7     8    1
    30    17    18    2
    31    18    19    1
    32    19    11    1
    33    18    14    1
    34     7     1   ar
    35    32    27   ar
    36    22    23    1
@<TRIPOS>MOLECULE
*****
 33 36 0 0 0
SMALL
GASTEIGER

@<TRIPOS>ATOM
      1 C         -15.5156   -1.2830   19.0365 C.ar    1  UNL1        0.0951
      2 C         -15.5810   -0.9560   17.5741 C.ar    1  UNL1        0.1454
      3 F         -16.8177   -0.3306   17.0001 F       1  UNL1       -0.2040
      4 C         -14.4098   -1.2544   16.6856 C.ar    1  UNL1        0.0312
      5 C         -13.1731   -1.8798   17.2596 C.ar    1  UNL1        0.0204
      6 C         -13.1077   -2.2068   18.7222 C.ar    1  UNL1        0.0924
      7 C         -14.2789   -1.9084   19.6106 C.ar    1  UNL1        0.1598
      8 F         -14.2134   -2.2355   21.0730 F       1  UNL1       -0.2026
      9 C         -16.6867   -0.9846   19.9249 C.2     1  UNL1        0.2036
     10 O         -16.6824    0.2450   20.7840 O.2     1  UNL1       -0.2863
     11 C         -16.9347   -5.8179   19.3829 C.2     1  UNL1        0.0974
     12 C         -18.3354   -6.3443   19.4869 C.2     1  UNL1        0.2421
     13 N         -19.4749   -5.4005   19.7337 N.2     1  UNL1       -0.0304
     14 C         -19.2137   -3.9304   19.8765 C.2     1  UNL1        0.3721
     15 N         -20.1287   -2.7676   20.1225 N.2     1  UNL1       -0.0307
     16 C         -19.2935   -1.5226   20.1706 C.2     1  UNL1        0.2390
     17 C         -17.8622   -1.9159   19.9543 C.2     1  UNL1        0.0896
     18 C         -17.8129   -3.4041   19.7725 C.2     1  UNL1        0.0782
     19 C         -16.6734   -4.3478   19.5257 C.3     1  UNL1        0.0751
     20 N         -14.6557   -7.7055   18.8894 N.1     1  UNL1       -0.1910
     21 C         -15.7952   -6.7617   19.1362 C.1     1  UNL1        0.1003
     22 N         -11.8710   -2.8322   19.2962 N.pl3   1  UNL1       -0.2127
     23 H         -11.3375   -2.3444   19.9645 H       1  UNL1        0.1738
     24 S         -11.4473   -4.2009   18.8520 S.O2    1  UNL1        0.0758
     25 O         -10.2924   -3.6013   18.1060 O.2     1  UNL1       -0.1499
     26 O         -12.6022   -4.8006   19.5980 O.2     1  UNL1       -0.1499
     27 C         -11.0236   -5.5696   18.4078 C.ar    1  UNL1        0.1524
     28 C          -9.8588   -6.2453   19.0686 C.ar    1  UNL1        0.0225
     29 C          -9.4351   -7.6140   18.6245 C.ar    1  UNL1        0.0015
     30 C         -10.1761   -8.3069   17.5196 C.ar    1  UNL1        0.0024
     31 C         -11.3409   -7.6311   16.8588 C.ar    1  UNL1        0.0310
     32 C         -11.7646   -6.2625   17.3029 C.ar    1  UNL1        0.1589
     33 F         -12.9294   -5.5866   16.6422 F       1  UNL1       -0.2027
@<TRIPOS>BOND
     1    20    21    3
     2    21    11    1
     3    11    12    2
     4    12    13    1
     5    13    14    2
     6    14    15    1
     7    15    16    2
     8    16    17    1
     9    17     9    1
    10     9    10    2
    11     9     1    1
    12     1     2   ar
    13     2     3    1
    14     2     4   ar
    15     4     5   ar
    16     5     6   ar
    17     6    22    1
    18    22    24    1
    19    24    25    2
    20    24    26    2
    21    24    27    1
    22    27    28   ar
    23    28    29   ar
    24    29    30   ar
    25    30    31   ar
    26    31    32   ar
    27    32    33    1
    28     6     7   ar
    29     7     8    1
    30    17    18    2
    31    18    19    1
    32    19    11    1
    33    18    14    1
    34     7     1   ar
    35    32    27   ar
    36    22    23    1
@<TRIPOS>MOLECULE
*****
 33 36 0 0 0
SMALL
GASTEIGER

@<TRIPOS>ATOM
      1 C           6.6834   -3.8210   21.3571 C.ar    1  UNL1        0.0951
      2 C           8.1820   -3.7951   21.2979 C.ar    1  UNL1        0.1454
      3 F           8.8813   -3.8545   19.9722 F       1  UNL1       -0.2040
      4 C           8.9813   -3.7098   22.5644 C.ar    1  UNL1        0.0312
      5 C           8.2819   -3.6504   23.8900 C.ar    1  UNL1        0.0204
      6 C           6.7833   -3.6763   23.9492 C.ar    1  UNL1        0.0924
      7 C           5.9840   -3.7616   22.6827 C.ar    1  UNL1        0.1598
      8 F           4.4854   -3.7874   22.7420 F       1  UNL1       -0.2026
      9 C           5.8841   -3.9063   20.0906 C.2     1  UNL1        0.2036
     10 O           5.0881   -5.1411   19.7878 O.2     1  UNL1       -0.2863
     11 C           2.5867   -0.4064   19.3199 C.2     1  UNL1        0.0974
     12 C           2.9975    0.5536   18.2430 C.2     1  UNL1        0.2421
     13 N           4.3071    0.3707   17.5349 N.2     1  UNL1       -0.0304
     14 C           5.2060   -0.7721   17.9037 C.2     1  UNL1        0.3721
     15 N           6.5456   -1.2034   17.3846 N.2     1  UNL1       -0.0307
     16 C           6.9627   -2.4300   18.1407 C.2     1  UNL1        0.2390
     17 C           5.8809   -2.7568   19.1270 C.2     1  UNL1        0.0896
     18 C           4.7951   -1.7321   18.9805 C.2     1  UNL1        0.0782
     19 C           3.4855   -1.5492   19.6886 C.3     1  UNL1        0.0751
     20 N          -0.0326   -0.0407   20.7361 N.1     1  UNL1       -0.1910
     21 C           1.2771   -0.2235   20.0280 C.1     1  UNL1        0.1003
     22 N           6.0840   -3.6169   25.2749 N.pl3   1  UNL1       -0.2127
     23 H           5.2189   -3.1537   25.3548 H       1  UNL1        0.1738
     24 S           6.7026   -4.2631   26.4788 S.O2    1  UNL1        0.0758
     25 O           6.8546   -2.9173   27.1233 O.2     1  UNL1       -0.1499
     26 O           6.5508   -5.6091   25.8344 O.2     1  UNL1       -0.1499
     27 C           7.3214   -4.9095   27.6828 C.ar    1  UNL1        0.1524
     28 C           6.5250   -5.0613   28.9449 C.ar    1  UNL1        0.0225
     29 C           7.1437   -5.7076   30.1488 C.ar    1  UNL1        0.0015
     30 C           8.5586   -6.2022   30.0908 C.ar    1  UNL1        0.0024
     31 C           9.3549   -6.0504   28.8287 C.ar    1  UNL1        0.0310
     32 C           8.7363   -5.4040   27.6247 C.ar    1  UNL1        0.1589
     33 F           9.5326   -5.2522   26.3627 F       1  UNL1       -0.2027
@<TRIPOS>BOND
     1    20    21    3
     2    21    11    1
     3    11    12    2
     4    12    13    1
     5    13    14    2
     6    14    15    1
     7    15    16    2
     8    16    17    1
     9    17     9    1
    10     9    10    2
    11     9     1    1
    12     1     2   ar
    13     2     3    1
    14     2     4   ar
    15     4     5   ar
    16     5     6   ar
    17     6    22    1
    18    22    24    1
    19    24    25    2
    20    24    26    2
    21    24    27    1
    22    27    28   ar
    23    28    29   ar
    24    29    30   ar
    25    30    31   ar
    26    31    32   ar
    27    32    33    1
    28     6     7   ar
    29     7     8    1
    30    17    18    2
    31    18    19    1
    32    19    11    1
    33    18    14    1
    34     7     1   ar
    35    32    27   ar
    36    22    23    1
@<TRIPOS>MOLECULE
*****
 33 36 0 0 0
SMALL
GASTEIGER

@<TRIPOS>ATOM
      1 C           5.1728   -3.2274   23.0682 C.ar    1  UNL1        0.0951
      2 C           4.3477   -2.0921   23.5973 C.ar    1  UNL1        0.1454
      3 F           3.2989   -1.4598   22.7311 F       1  UNL1       -0.2040
      4 C           4.5712   -1.5889   24.9926 C.ar    1  UNL1        0.0312
      5 C           5.6200   -2.2211   25.8588 C.ar    1  UNL1        0.0204
      6 C           6.4452   -3.3566   25.3297 C.ar    1  UNL1        0.0924
      7 C           6.2216   -3.8598   23.9344 C.ar    1  UNL1        0.1598
      8 F           7.0468   -4.9952   23.4054 F       1  UNL1       -0.2026
      9 C           4.9492   -3.7306   21.6729 C.2     1  UNL1        0.2036
     10 O           3.9875   -4.8551   21.4262 O.2     1  UNL1       -0.2863
     11 C           3.5260   -0.4346   18.3825 C.2     1  UNL1        0.0974
     12 C           4.6041   -0.0924   17.3973 C.2     1  UNL1        0.2421
     13 N           5.9483   -0.7505   17.4978 N.2     1  UNL1       -0.0304
     14 C           6.2144   -1.7508   18.5834 C.2     1  UNL1        0.3721
     15 N           7.4317   -2.5557   18.9303 N.2     1  UNL1       -0.0307
     16 C           7.1059   -3.3953   20.1298 C.2     1  UNL1        0.2390
     17 C           5.6873   -3.1093   20.5244 C.2     1  UNL1        0.0896
     18 C           5.1363   -2.0929   19.5686 C.2     1  UNL1        0.0782
     19 C           3.7921   -1.4348   19.4681 C.3     1  UNL1        0.0751
     20 N           0.8377    0.8817   18.1816 N.1     1  UNL1       -0.1910
     21 C           2.1819    0.2235   18.2820 C.1     1  UNL1        0.1003
     22 N           7.4939   -3.9888   26.1959 N.pl3   1  UNL1       -0.2127
     23 H           8.3248   -4.3304   25.7931 H       1  UNL1        0.1738
     24 S           7.2768   -4.1006   27.6759 S.O2    1  UNL1        0.0758
     25 O           6.1092   -5.0110   27.4359 O.2     1  UNL1       -0.1499
     26 O           8.4445   -3.1902   27.9160 O.2     1  UNL1       -0.1499
     27 C           7.0598   -4.2124   29.1560 C.ar    1  UNL1        0.1524
     28 C           6.5595   -3.0302   29.9319 C.ar    1  UNL1        0.0225
     29 C           6.3424   -3.1419   31.4119 C.ar    1  UNL1        0.0015
     30 C           6.6256   -4.4358   32.1159 C.ar    1  UNL1        0.0024
     31 C           7.1259   -5.6180   31.3400 C.ar    1  UNL1        0.0310
     32 C           7.3429   -5.5063   29.8600 C.ar    1  UNL1        0.1589
     33 F           7.8432   -6.6884   29.0840 F       1  UNL1       -0.2027
@<TRIPOS>BOND
     1    20    21    3
     2    21    11    1
     3    11    12    2
     4    12    13    1
     5    13    14    2
     6    14    15    1
     7    15    16    2
     8    16    17    1
     9    17     9    1
    10     9    10    2
    11     9     1    1
    12     1     2   ar
    13     2     3    1
    14     2     4   ar
    15     4     5   ar
    16     5     6   ar
    17     6    22    1
    18    22    24    1
    19    24    25    2
    20    24    26    2
    21    24    27    1
    22    27    28   ar
    23    28    29   ar
    24    29    30   ar
    25    30    31   ar
    26    31    32   ar
    27    32    33    1
    28     6     7   ar
    29     7     8    1
    30    17    18    2
    31    18    19    1
    32    19    11    1
    33    18    14    1
    34     7     1   ar
    35    32    27   ar
    36    22    23    1
@<TRIPOS>MOLECULE
*****
 33 36 0 0 0
SMALL
GASTEIGER

@<TRIPOS>ATOM
      1 C           3.7809   -1.4975   19.2042 C.ar    1  UNL1        0.0951
      2 C           4.9095   -0.8415   18.4654 C.ar    1  UNL1        0.1454
      3 F           6.1493   -1.6221   18.1434 F       1  UNL1       -0.2040
      4 C           4.7985    0.5952   18.0485 C.ar    1  UNL1        0.0312
      5 C           3.5588    1.3759   18.3705 C.ar    1  UNL1        0.0204
      6 C           2.4301    0.7198   19.1093 C.ar    1  UNL1        0.0924
      7 C           2.5412   -0.7168   19.5262 C.ar    1  UNL1        0.1598
      8 F           1.4125   -1.3728   20.2650 F       1  UNL1       -0.2026
      9 C           3.8920   -2.9341   19.6210 C.2     1  UNL1        0.2036
     10 O           2.8595   -3.9265   19.1748 O.2     1  UNL1       -0.2863
     11 C           4.8416   -2.1036   24.3248 C.2     1  UNL1        0.0974
     12 C           6.1151   -2.7492   24.7844 C.2     1  UNL1        0.2421
     13 N           6.9415   -3.5478   23.8204 N.2     1  UNL1       -0.0304
     14 C           6.4944   -3.7009   22.3968 C.2     1  UNL1        0.3721
     15 N           7.0962   -4.4229   21.2278 N.2     1  UNL1       -0.0307
     16 C           6.1946   -4.2235   20.0457 C.2     1  UNL1        0.2390
     17 C           5.0356   -3.3783   20.4841 C.2     1  UNL1        0.0896
     18 C           5.2209   -3.0553   21.9372 C.2     1  UNL1        0.0782
     19 C           4.3945   -2.2567   22.9012 C.3     1  UNL1        0.0751
     20 N           3.1887   -0.5064   26.2527 N.1     1  UNL1       -0.1910
     21 C           4.0151   -1.3050   25.2887 C.1     1  UNL1        0.1003
     22 N           1.1904    1.5005   19.4313 N.pl3   1  UNL1       -0.2127
     23 H           0.6445    1.8790   18.7047 H       1  UNL1        0.1738
     24 S           0.7825    1.7044   20.8603 S.O2    1  UNL1        0.0758
     25 O          -0.4739    0.9232   20.6132 O.2     1  UNL1       -0.1499
     26 O           2.0388    2.4857   21.1074 O.2     1  UNL1       -0.1499
     27 C           0.3745    1.9084   22.2893 C.ar    1  UNL1        0.1524
     28 C          -0.6020    2.9906   22.6433 C.ar    1  UNL1        0.0225
     29 C          -1.0099    3.1946   24.0722 C.ar    1  UNL1        0.0015
     30 C          -0.4413    2.3165   25.1472 C.ar    1  UNL1        0.0024
     31 C           0.5353    1.2344   24.7933 C.ar    1  UNL1        0.0310
     32 C           0.9432    1.0304   23.3643 C.ar    1  UNL1        0.1589
     33 F           1.9197   -0.0517   23.0103 F       1  UNL1       -0.2027
@<TRIPOS>BOND
     1    20    21    3
     2    21    11    1
     3    11    12    2
     4    12    13    1
     5    13    14    2
     6    14    15    1
     7    15    16    2
     8    16    17    1
     9    17     9    1
    10     9    10    2
    11     9     1    1
    12     1     2   ar
    13     2     3    1
    14     2     4   ar
    15     4     5   ar
    16     5     6   ar
    17     6    22    1
    18    22    24    1
    19    24    25    2
    20    24    26    2
    21    24    27    1
    22    27    28   ar
    23    28    29   ar
    24    29    30   ar
    25    30    31   ar
    26    31    32   ar
    27    32    33    1
    28     6     7   ar
    29     7     8    1
    30    17    18    2
    31    18    19    1
    32    19    11    1
    33    18    14    1
    34     7     1   ar
    35    32    27   ar
    36    22    23    1
@<TRIPOS>MOLECULE
*****
 33 36 0 0 0
SMALL
GASTEIGER

@<TRIPOS>ATOM
      1 C           4.8186   -2.6755   19.7840 C.ar    1  UNL1        0.0951
      2 C           6.1816   -2.5050   19.1814 C.ar    1  UNL1        0.1454
      3 F           7.3318   -3.3262   19.6840 F       1  UNL1       -0.2040
      4 C           6.3944   -1.5134   18.0762 C.ar    1  UNL1        0.0312
      5 C           5.2441   -0.6923   17.5735 C.ar    1  UNL1        0.0204
      6 C           3.8811   -0.8628   18.1762 C.ar    1  UNL1        0.0924
      7 C           3.6683   -1.8543   19.2815 C.ar    1  UNL1        0.1598
      8 F           2.3053   -2.0247   19.8840 F       1  UNL1       -0.2026
      9 C           4.6059   -3.6670   20.8893 C.2     1  UNL1        0.2036
     10 O           3.9297   -4.9751   20.6034 O.2     1  UNL1       -0.2863
     11 C           2.9462   -0.4461   24.1431 C.2     1  UNL1        0.0974
     12 C           3.7194   -0.4657   25.4282 C.2     1  UNL1        0.2421
     13 N           4.8685   -1.4149   25.5978 N.2     1  UNL1       -0.0304
     14 C           5.2443   -2.3445   24.4822 C.2     1  UNL1        0.3721
     15 N           6.3205   -3.3821   24.3598 N.2     1  UNL1       -0.0307
     16 C           6.2123   -4.0039   22.9990 C.2     1  UNL1        0.2390
     17 C           5.0693   -3.3505   22.2803 C.2     1  UNL1        0.0896
     18 C           4.4710   -2.3249   23.1970 C.2     1  UNL1        0.0782
     19 C           3.3219   -1.3757   23.0275 C.3     1  UNL1        0.0751
     20 N           0.6481    1.4523   23.8040 N.1     1  UNL1       -0.1910
     21 C           1.7971    0.5031   23.9736 C.1     1  UNL1        0.1003
     22 N           2.7308   -0.0416   17.6736 N.pl3   1  UNL1       -0.2127
     23 H           2.3161   -0.2542   16.8064 H       1  UNL1        0.1738
     24 S           2.2125    1.1035   18.4922 S.O2    1  UNL1        0.0758
     25 O           3.4920    1.8503   18.2578 O.2     1  UNL1       -0.1499
     26 O           0.9329    0.3567   18.7266 O.2     1  UNL1       -0.1499
     27 C           1.6941    2.2486   19.3109 C.ar    1  UNL1        0.1524
     28 C           2.3429    2.5889   20.6198 C.ar    1  UNL1        0.0225
     29 C           1.8246    3.7339   21.4385 C.ar    1  UNL1        0.0015
     30 C           0.6575    4.5387   20.9482 C.ar    1  UNL1        0.0024
     31 C           0.0088    4.1984   19.6393 C.ar    1  UNL1        0.0310
     32 C           0.5271    3.0534   18.8206 C.ar    1  UNL1        0.1589
     33 F          -0.1216    2.7130   17.5117 F       1  UNL1       -0.2027
@<TRIPOS>BOND
     1    20    21    3
     2    21    11    1
     3    11    12    2
     4    12    13    1
     5    13    14    2
     6    14    15    1
     7    15    16    2
     8    16    17    1
     9    17     9    1
    10     9    10    2
    11     9     1    1
    12     1     2   ar
    13     2     3    1
    14     2     4   ar
    15     4     5   ar
    16     5     6   ar
    17     6    22    1
    18    22    24    1
    19    24    25    2
    20    24    26    2
    21    24    27    1
    22    27    28   ar
    23    28    29   ar
    24    29    30   ar
    25    30    31   ar
    26    31    32   ar
    27    32    33    1
    28     6     7   ar
    29     7     8    1
    30    17    18    2
    31    18    19    1
    32    19    11    1
    33    18    14    1
    34     7     1   ar
    35    32    27   ar
    36    22    23    1
@<TRIPOS>MOLECULE
*****
 33 36 0 0 0
SMALL
GASTEIGER

@<TRIPOS>ATOM
      1 C           5.1932   -2.9518   22.8309 C.ar    1  UNL1        0.0951
      2 C           4.1229   -2.0244   23.3251 C.ar    1  UNL1        0.1454
      3 F           2.9346   -1.7223   22.4610 F       1  UNL1       -0.2040
      4 C           4.2408   -1.3991   24.6835 C.ar    1  UNL1        0.0312
      5 C           5.4290   -1.7012   25.5476 C.ar    1  UNL1        0.0204
      6 C           6.4994   -2.6287   25.0533 C.ar    1  UNL1        0.0924
      7 C           6.3815   -3.2539   23.6950 C.ar    1  UNL1        0.1598
      8 F           7.4518   -4.1813   23.2008 F       1  UNL1       -0.2026
      9 C           5.0752   -3.5771   21.4725 C.2     1  UNL1        0.2036
     10 O           4.2807   -4.8366   21.2931 O.2     1  UNL1       -0.2863
     11 C           3.4662   -0.2777   18.2723 C.2     1  UNL1        0.0974
     12 C           4.4929    0.0798   17.2388 C.2     1  UNL1        0.2421
     13 N           5.8464   -0.5659   17.2714 N.2     1  UNL1       -0.0304
     14 C           6.1732   -1.5692   18.3375 C.2     1  UNL1        0.3721
     15 N           7.4131   -2.3642   18.6214 N.2     1  UNL1       -0.0307
     16 C           7.1527   -3.2131   19.8304 C.2     1  UNL1        0.2390
     17 C           5.7519   -2.9428   20.2937 C.2     1  UNL1        0.0896
     18 C           5.1466   -1.9268   19.3709 C.2     1  UNL1        0.0782
     19 C           3.7931   -1.2810   19.3383 C.3     1  UNL1        0.0751
     20 N           0.7593    1.0138   18.2070 N.1     1  UNL1       -0.1910
     21 C           2.1127    0.3680   18.2397 C.1     1  UNL1        0.1003
     22 N           7.6877   -2.9308   25.9175 N.pl3   1  UNL1       -0.2127
     23 H           8.3128   -2.2112   26.1639 H       1  UNL1        0.1738
     24 S           7.9235   -4.3292   26.4062 S.O2    1  UNL1        0.0758
     25 O           6.5968   -4.3085   27.1056 O.2     1  UNL1       -0.1499
     26 O           9.2502   -4.3499   25.7067 O.2     1  UNL1       -0.1499
     27 C           8.1594   -5.7276   26.8949 C.ar    1  UNL1        0.1524
     28 C           8.6282   -5.9618   28.3004 C.ar    1  UNL1        0.0225
     29 C           8.8641   -7.3602   28.7891 C.ar    1  UNL1        0.0015
     30 C           8.6312   -8.5244   27.8724 C.ar    1  UNL1        0.0024
     31 C           8.1624   -8.2902   26.4669 C.ar    1  UNL1        0.0310
     32 C           7.9265   -6.8918   25.9782 C.ar    1  UNL1        0.1589
     33 F           7.4577   -6.6576   24.5727 F       1  UNL1       -0.2027
@<TRIPOS>BOND
     1    20    21    3
     2    21    11    1
     3    11    12    2
     4    12    13    1
     5    13    14    2
     6    14    15    1
     7    15    16    2
     8    16    17    1
     9    17     9    1
    10     9    10    2
    11     9     1    1
    12     1     2   ar
    13     2     3    1
    14     2     4   ar
    15     4     5   ar
    16     5     6   ar
    17     6    22    1
    18    22    24    1
    19    24    25    2
    20    24    26    2
    21    24    27    1
    22    27    28   ar
    23    28    29   ar
    24    29    30   ar
    25    30    31   ar
    26    31    32   ar
    27    32    33    1
    28     6     7   ar
    29     7     8    1
    30    17    18    2
    31    18    19    1
    32    19    11    1
    33    18    14    1
    34     7     1   ar
    35    32    27   ar
    36    22    23    1
