@<TRIPOS>MOLECULE
*****
 17 19 0 0 0
SMALL
GASTEIGER

@<TRIPOS>ATOM
      1 C          -9.7789  -17.6454   22.6397 C.3     1  UNL1        0.0347
      2 C          -9.4272  -18.5899   23.7506 C.3     1  UNL1        0.0054
      3 C         -10.2370  -19.8396   23.5702 C.3     1  UNL1        0.0004
      4 C         -11.0891  -19.6674   22.3478 C.3     1  UNL1        0.0017
      5 C         -10.8060  -18.3113   21.7727 C.3     1  UNL1        0.0208
      6 C         -11.1577  -17.3668   20.6618 C.3     1  UNL1        0.0689
      7 N         -10.3479  -16.1170   20.8421 N.3     1  UNL1       -0.2972
      8 C          -9.4958  -16.2892   22.0645 C.3     1  UNL1        0.0726
      9 H         -10.9687  -15.3167   20.9628 H       1  UNL1        0.1233
     10 CL         -5.6703  -14.9814   26.1070 Cl      1  UNL1       -0.0814
     11 C          -6.6974  -15.6474   25.2402 C.ar    1  UNL1        0.0682
     12 C          -6.3280  -16.1144   23.8635 C.ar    1  UNL1        0.0119
     13 C          -7.3552  -16.7804   22.9967 C.ar    1  UNL1       -0.0033
     14 C          -8.7518  -16.9794   23.5066 C.ar    1  UNL1       -0.0206
     15 C          -9.1211  -16.5123   24.8833 C.ar    1  UNL1        0.0080
     16 C          -8.0941  -15.8464   25.7501 C.ar    1  UNL1        0.0679
     17 CL         -8.4635  -15.3793   27.1268 Cl      1  UNL1       -0.0814
@<TRIPOS>BOND
     1    10    11    1
     2    11    12   ar
     3    12    13   ar
     4    13    14   ar
     5     1    14    1
     6     1     2    1
     7     2     3    1
     8     3     4    1
     9     5     4    1
    10     5     6    1
    11     6     7    1
    12     7     8    1
    13    14    15   ar
    14    15    16   ar
    15    16    17    1
    16    16    11   ar
    17     5     1    1
    18     8     1    1
    19     7     9    1
@<TRIPOS>MOLECULE
*****
 17 19 0 0 0
SMALL
GASTEIGER

@<TRIPOS>ATOM
      1 C          -7.6646  -16.1417   25.0174 C.3     1  UNL1        0.0347
      2 C          -8.6141  -16.1743   26.1781 C.3     1  UNL1        0.0054
      3 C          -7.9019  -15.6178   27.3752 C.3     1  UNL1        0.0004
      4 C          -6.5122  -15.2414   26.9543 C.3     1  UNL1        0.0017
      5 C          -6.3656  -15.5652   25.4971 C.3     1  UNL1        0.0208
      6 C          -5.4161  -15.5327   24.3363 C.3     1  UNL1        0.0689
      7 N          -6.1283  -16.0891   23.1391 N.3     1  UNL1       -0.2972
      8 C          -7.5180  -16.4655   23.5601 C.3     1  UNL1        0.0726
      9 H          -5.6355  -16.9134   22.7953 H       1  UNL1        0.1233
     10 CL        -12.8606  -18.4481   23.0984 Cl      1  UNL1       -0.0814
     11 C         -11.5616  -17.8715   23.5781 C.ar    1  UNL1        0.0682
     12 C         -10.7552  -18.5983   24.6132 C.ar    1  UNL1        0.0119
     13 C          -9.4562  -18.0217   25.0929 C.ar    1  UNL1       -0.0033
     14 C          -8.9636  -16.7183   24.5376 C.ar    1  UNL1       -0.0206
     15 C          -9.7701  -15.9915   23.5025 C.ar    1  UNL1        0.0080
     16 C         -11.0690  -16.5680   23.0228 C.ar    1  UNL1        0.0679
     17 CL        -11.8754  -15.8412   21.9877 Cl      1  UNL1       -0.0814
@<TRIPOS>BOND
     1    10    11    1
     2    11    12   ar
     3    12    13   ar
     4    13    14   ar
     5     1    14    1
     6     1     2    1
     7     2     3    1
     8     3     4    1
     9     5     4    1
    10     5     6    1
    11     6     7    1
    12     7     8    1
    13    14    15   ar
    14    15    16   ar
    15    16    17    1
    16    16    11   ar
    17     5     1    1
    18     8     1    1
    19     7     9    1
@<TRIPOS>MOLECULE
*****
 17 19 0 0 0
SMALL
GASTEIGER

@<TRIPOS>ATOM
      1 C         -10.2492  -17.7716   23.0948 C.3     1  UNL1        0.0347
      2 C         -10.5816  -16.3098   23.1458 C.3     1  UNL1        0.0054
      3 C         -11.9172  -16.1150   22.4914 C.3     1  UNL1        0.0004
      4 C         -12.4103  -17.4565   22.0360 C.3     1  UNL1        0.0017
      5 C         -11.3794  -18.4803   22.4090 C.3     1  UNL1        0.0208
      6 C         -11.0471  -19.9421   22.3580 C.3     1  UNL1        0.0689
      7 N          -9.7114  -20.1369   23.0124 N.3     1  UNL1       -0.2972
      8 C          -9.2184  -18.7954   23.4678 C.3     1  UNL1        0.0726
      9 H          -9.0538  -20.5388   22.3442 H       1  UNL1        0.1233
     10 CL         -5.7283  -14.9370   25.8381 Cl      1  UNL1       -0.0814
     11 C          -6.8585  -15.6456   25.1524 C.ar    1  UNL1        0.0682
     12 C          -6.7590  -15.9799   23.6935 C.ar    1  UNL1        0.0119
     13 C          -7.8893  -16.6885   23.0077 C.ar    1  UNL1       -0.0033
     14 C          -9.1190  -17.0629   23.7807 C.ar    1  UNL1       -0.0206
     15 C          -9.2184  -16.7287   25.2396 C.ar    1  UNL1        0.0080
     16 C          -8.0882  -16.0201   25.9254 C.ar    1  UNL1        0.0679
     17 CL         -8.1877  -15.6858   27.3843 Cl      1  UNL1       -0.0814
@<TRIPOS>BOND
     1    10    11    1
     2    11    12   ar
     3    12    13   ar
     4    13    14   ar
     5     1    14    1
     6     1     2    1
     7     2     3    1
     8     3     4    1
     9     5     4    1
    10     5     6    1
    11     6     7    1
    12     7     8    1
    13    14    15   ar
    14    15    16   ar
    15    16    17    1
    16    16    11   ar
    17     5     1    1
    18     8     1    1
    19     7     9    1
@<TRIPOS>MOLECULE
*****
 17 19 0 0 0
SMALL
GASTEIGER

@<TRIPOS>ATOM
      1 C          -9.6961  -17.6808   22.4403 C.3     1  UNL1        0.0347
      2 C          -9.2827  -18.6693   23.4901 C.3     1  UNL1        0.0054
      3 C          -9.9815  -19.9659   23.2066 C.3     1  UNL1        0.0004
      4 C         -10.8269  -19.7789   21.9817 C.3     1  UNL1        0.0017
      5 C         -10.6505  -18.3666   21.5081 C.3     1  UNL1        0.0208
      6 C         -11.0640  -17.3781   20.4584 C.3     1  UNL1        0.0689
      7 N         -10.3652  -16.0814   20.7418 N.3     1  UNL1       -0.2972
      8 C          -9.5198  -16.2685   21.9667 C.3     1  UNL1        0.0726
      9 H         -11.0529  -15.3459   20.9049 H       1  UNL1        0.1233
     10 CL         -5.8790  -14.9376   26.1690 Cl      1  UNL1       -0.0814
     11 C          -6.8332  -15.6234   25.2369 C.ar    1  UNL1        0.0682
     12 C          -8.2954  -15.6778   25.5670 C.ar    1  UNL1        0.0119
     13 C          -9.2497  -16.3636   24.6347 C.ar    1  UNL1       -0.0033
     14 C          -8.7418  -16.9950   23.3725 C.ar    1  UNL1       -0.0206
     15 C          -7.2796  -16.9406   23.0424 C.ar    1  UNL1        0.0080
     16 C          -6.3253  -16.2548   23.9745 C.ar    1  UNL1        0.0679
     17 CL         -4.8631  -16.2004   23.6445 Cl      1  UNL1       -0.0814
@<TRIPOS>BOND
     1    10    11    1
     2    11    12   ar
     3    12    13   ar
     4    13    14   ar
     5     1    14    1
     6     1     2    1
     7     2     3    1
     8     3     4    1
     9     5     4    1
    10     5     6    1
    11     6     7    1
    12     7     8    1
    13    14    15   ar
    14    15    16   ar
    15    16    17    1
    16    16    11   ar
    17     5     1    1
    18     8     1    1
    19     7     9    1
@<TRIPOS>MOLECULE
*****
 17 19 0 0 0
SMALL
GASTEIGER

@<TRIPOS>ATOM
      1 C          -7.4745  -16.0092   24.9423 C.3     1  UNL1        0.0347
      2 C          -8.6413  -16.0073   25.8849 C.3     1  UNL1        0.0054
      3 C          -8.1639  -15.4973   27.2123 C.3     1  UNL1        0.0004
      4 C          -6.7021  -15.1841   27.0900 C.3     1  UNL1        0.0017
      5 C          -6.2760  -15.5005   25.6871 C.3     1  UNL1        0.0208
      6 C          -5.1092  -15.5024   24.7444 C.3     1  UNL1        0.0689
      7 N          -5.5866  -16.0124   23.4169 N.3     1  UNL1       -0.2972
      8 C          -7.0484  -16.3256   23.5393 C.3     1  UNL1        0.0726
      9 H          -5.0717  -16.8561   23.1648 H       1  UNL1        0.1233
     10 CL        -12.2683  -18.0441   21.9626 Cl      1  UNL1       -0.0814
     11 C         -11.0699  -17.5354   22.7075 C.ar    1  UNL1        0.0682
     12 C         -10.2633  -16.4022   22.1461 C.ar    1  UNL1        0.0119
     13 C          -9.0649  -15.8935   22.8911 C.ar    1  UNL1       -0.0033
     14 C          -8.6730  -16.5180   24.1974 C.ar    1  UNL1       -0.0206
     15 C          -9.4796  -17.6513   24.7587 C.ar    1  UNL1        0.0080
     16 C         -10.6780  -18.1600   24.0138 C.ar    1  UNL1        0.0679
     17 CL        -11.4846  -19.2932   24.5752 Cl      1  UNL1       -0.0814
@<TRIPOS>BOND
     1    10    11    1
     2    11    12   ar
     3    12    13   ar
     4    13    14   ar
     5     1    14    1
     6     1     2    1
     7     2     3    1
     8     3     4    1
     9     5     4    1
    10     5     6    1
    11     6     7    1
    12     7     8    1
    13    14    15   ar
    14    15    16   ar
    15    16    17    1
    16    16    11   ar
    17     5     1    1
    18     8     1    1
    19     7     9    1
@<TRIPOS>MOLECULE
*****
 17 19 0 0 0
SMALL
GASTEIGER

@<TRIPOS>ATOM
      1 C          -9.9094  -18.0891   22.5898 C.3     1  UNL1        0.0347
      2 C          -9.5838  -19.4564   23.1138 C.3     1  UNL1        0.0054
      3 C         -10.6544  -19.8457   24.0897 C.3     1  UNL1        0.0004
      4 C         -11.6416  -18.7192   24.1687 C.3     1  UNL1        0.0017
      5 C         -11.1812  -17.6335   23.2417 C.3     1  UNL1        0.0208
      6 C         -11.5068  -16.2663   22.7176 C.3     1  UNL1        0.0689
      7 N         -10.4362  -15.8768   21.7418 N.3     1  UNL1       -0.2972
      8 C          -9.4490  -17.0035   21.6628 C.3     1  UNL1        0.0726
      9 H          -9.9685  -15.0285   22.0613 H       1  UNL1        0.1233
     10 CL         -4.8224  -19.9113   19.9817 Cl      1  UNL1       -0.0814
     11 C          -6.0941  -19.4558   20.6337 C.ar    1  UNL1        0.0682
     12 C          -7.4100  -19.6809   19.9498 C.ar    1  UNL1        0.0119
     13 C          -8.6817  -19.2253   20.6018 C.ar    1  UNL1       -0.0033
     14 C          -8.6376  -18.5447   21.9378 C.ar    1  UNL1       -0.0206
     15 C          -7.3217  -18.3196   22.6217 C.ar    1  UNL1        0.0080
     16 C          -6.0500  -18.7751   21.9697 C.ar    1  UNL1        0.0679
     17 CL         -4.7341  -18.5500   22.6536 Cl      1  UNL1       -0.0814
@<TRIPOS>BOND
     1    10    11    1
     2    11    12   ar
     3    12    13   ar
     4    13    14   ar
     5     1    14    1
     6     1     2    1
     7     2     3    1
     8     3     4    1
     9     5     4    1
    10     5     6    1
    11     6     7    1
    12     7     8    1
    13    14    15   ar
    14    15    16   ar
    15    16    17    1
    16    16    11   ar
    17     5     1    1
    18     8     1    1
    19     7     9    1
@<TRIPOS>MOLECULE
*****
 17 19 0 0 0
SMALL
GASTEIGER

@<TRIPOS>ATOM
      1 C         -10.2158  -17.8830   23.3211 C.3     1  UNL1        0.0347
      2 C         -10.5558  -16.4222   23.3423 C.3     1  UNL1        0.0054
      3 C         -11.7914  -16.2219   22.5159 C.3     1  UNL1        0.0004
      4 C         -12.2151  -17.5589   21.9839 C.3     1  UNL1        0.0017
      5 C         -11.2413  -18.5855   22.4816 C.3     1  UNL1        0.0208
      6 C         -10.9014  -20.0463   22.4604 C.3     1  UNL1        0.0689
      7 N          -9.6657  -20.2467   23.2869 N.3     1  UNL1       -0.2972
      8 C          -9.2420  -18.9097   23.8188 C.3     1  UNL1        0.0726
      9 H          -8.9230  -20.6406   22.7092 H       1  UNL1        0.1233
     10 CL         -6.1138  -15.0735   26.6796 Cl      1  UNL1       -0.0814
     11 C          -7.1392  -15.7758   25.8400 C.ar    1  UNL1        0.0682
     12 C          -8.3367  -16.4045   26.4886 C.ar    1  UNL1        0.0119
     13 C          -9.3622  -17.1069   25.6490 C.ar    1  UNL1       -0.0033
     14 C          -9.1902  -17.1806   24.1607 C.ar    1  UNL1       -0.0206
     15 C          -7.9927  -16.5519   23.5121 C.ar    1  UNL1        0.0080
     16 C          -6.9673  -15.8496   24.3517 C.ar    1  UNL1        0.0679
     17 CL         -5.7698  -15.2209   23.7030 Cl      1  UNL1       -0.0814
@<TRIPOS>BOND
     1    10    11    1
     2    11    12   ar
     3    12    13   ar
     4    13    14   ar
     5     1    14    1
     6     1     2    1
     7     2     3    1
     8     3     4    1
     9     5     4    1
    10     5     6    1
    11     6     7    1
    12     7     8    1
    13    14    15   ar
    14    15    16   ar
    15    16    17    1
    16    16    11   ar
    17     5     1    1
    18     8     1    1
    19     7     9    1
@<TRIPOS>MOLECULE
*****
 17 19 0 0 0
SMALL
GASTEIGER

@<TRIPOS>ATOM
      1 C          -6.9486  -16.6451   23.4078 C.3     1  UNL1        0.0347
      2 C          -7.1214  -17.9161   22.6301 C.3     1  UNL1        0.0054
      3 C          -5.7627  -18.5109   22.4062 C.3     1  UNL1        0.0004
      4 C          -4.7502  -17.6075   23.0455 C.3     1  UNL1        0.0017
      5 C          -5.4831  -16.4544   23.6645 C.3     1  UNL1        0.0208
      6 C          -5.3103  -15.1835   24.4422 C.3     1  UNL1        0.0689
      7 N          -6.6690  -14.5886   24.6661 N.3     1  UNL1       -0.2972
      8 C          -7.6815  -15.4920   24.0268 C.3     1  UNL1        0.0726
      9 H          -6.7153  -13.6620   24.2423 H       1  UNL1        0.1233
     10 CL        -12.8107  -17.4078   22.3811 Cl      1  UNL1       -0.0814
     11 C         -11.3452  -17.2172   22.6377 C.ar    1  UNL1        0.0682
     12 C         -10.7247  -17.7684   23.8871 C.ar    1  UNL1        0.0119
     13 C          -9.2591  -17.5777   24.1438 C.ar    1  UNL1       -0.0033
     14 C          -8.4142  -16.8358   23.1510 C.ar    1  UNL1       -0.0206
     15 C          -9.0347  -16.2845   21.9016 C.ar    1  UNL1        0.0080
     16 C         -10.5002  -16.4752   21.6450 C.ar    1  UNL1        0.0679
     17 CL        -11.1208  -15.9239   20.3956 Cl      1  UNL1       -0.0814
@<TRIPOS>BOND
     1    10    11    1
     2    11    12   ar
     3    12    13   ar
     4    13    14   ar
     5     1    14    1
     6     1     2    1
     7     2     3    1
     8     3     4    1
     9     5     4    1
    10     5     6    1
    11     6     7    1
    12     7     8    1
    13    14    15   ar
    14    15    16   ar
    15    16    17    1
    16    16    11   ar
    17     5     1    1
    18     8     1    1
    19     7     9    1
@<TRIPOS>MOLECULE
*****
 17 19 0 0 0
SMALL
GASTEIGER

@<TRIPOS>ATOM
      1 C          -9.9646  -17.3654   23.0109 C.3     1  UNL1        0.0347
      2 C          -9.5469  -18.4329   23.9782 C.3     1  UNL1        0.0054
      3 C         -10.7873  -19.0249   24.5791 C.3     1  UNL1        0.0004
      4 C         -11.9715  -18.3233   23.9831 C.3     1  UNL1        0.0017
      5 C         -11.4631  -17.2976   23.0138 C.3     1  UNL1        0.0208
      6 C         -11.8808  -16.2300   22.0465 C.3     1  UNL1        0.0689
      7 N         -10.6404  -15.6379   21.4456 N.3     1  UNL1       -0.2972
      8 C          -9.4562  -16.3397   22.0416 C.3     1  UNL1        0.0726
      9 H         -10.5949  -14.6412   21.6574 H       1  UNL1        0.1233
     10 CL         -3.9708  -17.6365   22.9985 Cl      1  UNL1       -0.0814
     11 C          -5.4692  -17.5687   23.0016 C.ar    1  UNL1        0.0682
     12 C          -6.2688  -18.6164   22.2855 C.ar    1  UNL1        0.0119
     13 C          -7.7673  -18.5486   22.2886 C.ar    1  UNL1       -0.0033
     14 C          -8.4661  -17.4331   23.0078 C.ar    1  UNL1       -0.0206
     15 C          -7.6664  -16.3854   23.7239 C.ar    1  UNL1        0.0080
     16 C          -6.1681  -16.4532   23.7209 C.ar    1  UNL1        0.0679
     17 CL         -5.3684  -15.4055   24.4370 Cl      1  UNL1       -0.0814
@<TRIPOS>BOND
     1    10    11    1
     2    11    12   ar
     3    12    13   ar
     4    13    14   ar
     5     1    14    1
     6     1     2    1
     7     2     3    1
     8     3     4    1
     9     5     4    1
    10     5     6    1
    11     6     7    1
    12     7     8    1
    13    14    15   ar
    14    15    16   ar
    15    16    17    1
    16    16    11   ar
    17     5     1    1
    18     8     1    1
    19     7     9    1
