@<TRIPOS>MOLECULE
*****
 40 41 0 0 0
SMALL
GASTEIGER

@<TRIPOS>ATOM
      1 P          -7.6338  -15.8405   22.7554 P.3     1  UNL1        0.3697
      2 O          -7.2791  -14.4707   23.2534 O.2     1  UNL1       -0.2553
      3 O          -8.5363  -15.2317   21.7235 O.3     1  UNL1       -0.3218
      4 H          -8.5145  -14.2653   21.8047 H       1  UNL1        0.2198
      5 C          -7.9885  -17.2102   22.2575 C.3     1  UNL1        0.2579
      6 O          -7.3268  -17.7555   21.0267 O.3     1  UNL1       -0.3426
      7 C          -6.6483  -19.0926   21.0697 C.3     1  UNL1        0.1387
      8 C          -6.9657  -20.1284   20.0323 C.3     1  UNL1        0.0342
      9 C          -5.6523  -19.3938   22.1502 C.3     1  UNL1        0.1384
     10 N          -4.2753  -18.8023   22.0871 N.ar    1  UNL1       -0.2918
     11 C          -3.4952  -18.2588   23.2472 C.ar    1  UNL1        0.1798
     12 N          -2.1744  -17.7711   22.7297 N.ar    1  UNL1       -0.2195
     13 C          -2.1383  -18.0132   21.2498 C.ar    1  UNL1        0.1481
     14 C          -1.0908  -17.7357   20.2127 C.ar    1  UNL1        0.1480
     15 N           0.2076  -17.0984   20.6099 N.pl3   1  UNL1       -0.3413
     16 N          -1.3419  -18.0955   18.7783 N.ar    1  UNL1       -0.2078
     17 C          -2.6403  -18.7329   18.3811 C.ar    1  UNL1        0.2015
     18 N          -3.6878  -19.0104   19.4183 N.ar    1  UNL1       -0.2048
     19 C          -3.4368  -18.6506   20.8526 C.ar    1  UNL1        0.1674
     20 H           0.3724  -16.8622   21.5513 H       1  UNL1        0.1438
     21 H           0.8951  -16.9162   19.9291 H       1  UNL1        0.1438
     22 O          -6.7313  -16.4493   23.7873 O.3     1  UNL1       -0.2926
     23 C          -5.5382  -15.6876   24.2836 C.3     1  UNL1        0.1514
     24 C          -5.2029  -15.6884   25.7457 C.3     1  UNL1        0.0326
     25 C          -6.1667  -15.1059   26.7365 C.3     1  UNL1        0.0026
     26 C          -7.2617  -15.9575   27.3074 C.3     1  UNL1        0.0001
     27 C          -8.4983  -16.2280   26.5028 C.3     1  UNL1        0.0000
     28 C          -9.1460  -17.5800   26.5546 C.3     1  UNL1        0.0000
     29 C          -9.8545  -18.1190   25.3472 C.3     1  UNL1        0.0000
     30 C          -9.9839  -19.6007   25.1528 C.3     1  UNL1        0.0000
     31 C         -10.7389  -20.1393   23.9739 C.3     1  UNL1        0.0000
     32 C         -10.1605  -20.0206   22.5950 C.3     1  UNL1        0.0000
     33 C         -11.0681  -19.9921   21.4010 C.3     1  UNL1        0.0000
     34 C         -10.5653  -19.4664   20.0892 C.3     1  UNL1        0.0000
     35 C         -10.8398  -18.0453   19.6958 C.3     1  UNL1        0.0000
     36 C         -11.9692  -17.2944   20.3367 C.3     1  UNL1        0.0010
     37 C         -11.6799  -16.1356   21.2441 C.3     1  UNL1        0.0140
     38 C         -11.7774  -16.3049   22.7313 C.3     1  UNL1        0.0770
     39 C         -13.8761  -18.1007   23.9021 C.1     1  UNL1       -0.0141
     40 C         -12.8267  -17.2028   23.3167 C.1     1  UNL1       -0.0779
@<TRIPOS>BOND
     1    39    40    3
     2    40    38    1
     3    38    37    1
     4    37    36    1
     5    36    35    1
     6    35    34    1
     7    34    33    1
     8    33    32    1
     9    32    31    1
    10    31    30    1
    11    30    29    1
    12    29    28    1
    13    28    27    1
    14    27    26    1
    15    26    25    1
    16    25    24    1
    17    24    23    1
    18    23    22    1
    19    22     1    1
    20     1     2    2
    21     1     3    1
    22     1     5    1
    23     5     6    1
    24     6     7    1
    25     7     8    1
    26     7     9    1
    27     9    10    1
    28    10    11   ar
    29    11    12   ar
    30    12    13   ar
    31    13    14   ar
    32    14    15    1
    33    14    16   ar
    34    16    17   ar
    35    17    18   ar
    36    18    19   ar
    37    19    10   ar
    38    19    13   ar
    39     3     4    1
    40    15    20    1
    41    15    21    1
@<TRIPOS>MOLECULE
*****
 40 41 0 0 0
SMALL
GASTEIGER

@<TRIPOS>ATOM
      1 P          -7.9765  -15.7434   22.0852 P.3     1  UNL1        0.3697
      2 O          -8.8754  -15.1035   21.0692 O.2     1  UNL1       -0.2553
      3 O          -7.7877  -14.4147   22.7551 O.3     1  UNL1       -0.3218
      4 H          -8.2951  -13.7381   22.2801 H       1  UNL1        0.2198
      5 C          -7.0775  -16.3834   23.1012 C.3     1  UNL1        0.2579
      6 O          -5.8264  -15.6834   23.5424 O.3     1  UNL1       -0.3426
      7 C          -4.8777  -16.3649   24.4835 C.3     1  UNL1        0.1387
      8 C          -4.8044  -15.9327   25.9180 C.3     1  UNL1        0.0342
      9 C          -4.0023  -17.4787   23.9900 C.3     1  UNL1        0.1384
     10 N          -3.2699  -17.3365   22.6888 N.ar    1  UNL1       -0.2918
     11 C          -2.3706  -16.1997   22.3028 C.ar    1  UNL1        0.1798
     12 N          -1.8531  -16.4669   20.9205 N.ar    1  UNL1       -0.2195
     13 C          -2.4325  -17.7688   20.4521 C.ar    1  UNL1        0.1481
     14 C          -2.2758  -18.5343   19.1718 C.ar    1  UNL1        0.1480
     15 N          -1.4002  -17.9968   18.0789 N.pl3   1  UNL1       -0.3413
     16 N          -2.9949  -19.8373   18.9842 N.ar    1  UNL1       -0.2078
     17 C          -3.8705  -20.3747   20.0771 C.ar    1  UNL1        0.2015
     18 N          -4.0272  -19.6092   21.3575 N.ar    1  UNL1       -0.2048
     19 C          -3.3081  -18.3063   21.5450 C.ar    1  UNL1        0.1674
     20 H          -0.9283  -17.1416   18.2020 H       1  UNL1        0.1438
     21 H          -1.2974  -18.4993   17.2385 H       1  UNL1        0.1438
     22 O          -8.1652  -17.0722   21.4153 O.3     1  UNL1       -0.2926
     23 C          -7.2914  -18.2322   21.7905 C.3     1  UNL1        0.1514
     24 C          -7.4335  -19.5414   21.0723 C.3     1  UNL1        0.0326
     25 C          -7.8222  -19.5639   19.6238 C.3     1  UNL1        0.0026
     26 C          -9.2625  -19.7228   19.2361 C.3     1  UNL1        0.0001
     27 C         -10.3125  -19.8733   20.2966 C.3     1  UNL1        0.0000
     28 C         -11.4720  -18.9230   20.3443 C.3     1  UNL1        0.0000
     29 C         -11.2697  -17.4753   20.0073 C.3     1  UNL1        0.0000
     30 C         -12.1193  -16.4270   20.6623 C.3     1  UNL1        0.0000
     31 C         -11.8993  -16.0762   22.1040 C.3     1  UNL1        0.0000
     32 C         -12.9216  -16.4577   23.1332 C.3     1  UNL1        0.0000
     33 C         -13.2560  -17.9024   23.3586 C.3     1  UNL1        0.0000
     34 C         -12.5289  -18.6851   24.4115 C.3     1  UNL1        0.0000
     35 C         -11.3536  -19.5375   24.0347 C.3     1  UNL1        0.0000
     36 C          -9.9706  -18.9567   24.0490 C.3     1  UNL1        0.0010
     37 C          -9.7021  -17.6773   24.7844 C.3     1  UNL1        0.0140
     38 C          -9.1866  -17.7156   26.1925 C.3     1  UNL1        0.0770
     39 C          -7.9937  -15.2523   27.4211 C.1     1  UNL1       -0.0141
     40 C          -8.5902  -16.4840   26.8067 C.1     1  UNL1       -0.0779
@<TRIPOS>BOND
     1    39    40    3
     2    40    38    1
     3    38    37    1
     4    37    36    1
     5    36    35    1
     6    35    34    1
     7    34    33    1
     8    33    32    1
     9    32    31    1
    10    31    30    1
    11    30    29    1
    12    29    28    1
    13    28    27    1
    14    27    26    1
    15    26    25    1
    16    25    24    1
    17    24    23    1
    18    23    22    1
    19    22     1    1
    20     1     2    2
    21     1     3    1
    22     1     5    1
    23     5     6    1
    24     6     7    1
    25     7     8    1
    26     7     9    1
    27     9    10    1
    28    10    11   ar
    29    11    12   ar
    30    12    13   ar
    31    13    14   ar
    32    14    15    1
    33    14    16   ar
    34    16    17   ar
    35    17    18   ar
    36    18    19   ar
    37    19    10   ar
    38    19    13   ar
    39     3     4    1
    40    15    20    1
    41    15    21    1
@<TRIPOS>MOLECULE
*****
 40 41 0 0 0
SMALL
GASTEIGER

@<TRIPOS>ATOM
      1 P          -5.2252  -15.7439   24.5300 P.3     1  UNL1        0.3697
      2 O          -5.2187  -14.3351   25.0449 O.2     1  UNL1       -0.2553
      3 O          -4.7970  -15.2521   23.1791 O.3     1  UNL1       -0.3218
      4 H          -4.7007  -14.2872   23.2019 H       1  UNL1        0.2198
      5 C          -5.2317  -17.1527   24.0150 C.3     1  UNL1        0.2579
      6 O          -6.0935  -17.5190   22.8433 O.3     1  UNL1       -0.3426
      7 C          -6.2358  -18.9559   22.4370 C.3     1  UNL1        0.1387
      8 C          -7.5981  -19.5357   22.1958 C.3     1  UNL1        0.0342
      9 C          -5.0159  -19.8130   22.2719 C.3     1  UNL1        0.1384
     10 N          -4.0857  -19.5795   21.1185 N.ar    1  UNL1       -0.2918
     11 C          -3.9797  -20.4274   19.8857 C.ar    1  UNL1        0.1798
     12 N          -2.9267  -19.8290   19.0008 N.ar    1  UNL1       -0.2195
     13 C          -2.3820  -18.6113   19.6866 C.ar    1  UNL1        0.1481
     14 C          -1.3263  -17.6229   19.2884 C.ar    1  UNL1        0.1480
     15 N          -0.6099  -17.7771   17.9796 N.pl3   1  UNL1       -0.3413
     16 N          -0.9869  -16.4804   20.1991 N.ar    1  UNL1       -0.2078
     17 C          -1.7032  -16.3262   21.5080 C.ar    1  UNL1        0.2015
     18 N          -2.7589  -17.3145   21.9061 N.ar    1  UNL1       -0.2048
     19 C          -3.0983  -18.4571   20.9955 C.ar    1  UNL1        0.1674
     20 H          -0.8327  -18.5270   17.3819 H       1  UNL1        0.1438
     21 H           0.0830  -17.1284   17.7182 H       1  UNL1        0.1438
     22 O          -5.6534  -16.2357   25.8808 O.3     1  UNL1       -0.2926
     23 C          -6.2671  -15.2848   26.8653 C.3     1  UNL1        0.1514
     24 C          -7.7333  -15.3651   27.1716 C.3     1  UNL1        0.0326
     25 C          -8.4561  -16.6730   27.0419 C.3     1  UNL1        0.0026
     26 C          -9.1584  -17.0181   25.7622 C.3     1  UNL1        0.0001
     27 C          -9.1852  -16.0322   24.6320 C.3     1  UNL1        0.0000
     28 C          -8.8953  -16.4875   23.2325 C.3     1  UNL1        0.0000
     29 C          -9.5185  -15.7762   22.0680 C.3     1  UNL1        0.0000
     30 C         -10.9121  -16.1236   21.6355 C.3     1  UNL1        0.0000
     31 C         -12.0373  -16.0819   22.6265 C.3     1  UNL1        0.0000
     32 C         -13.1237  -17.1148   22.5718 C.3     1  UNL1        0.0000
     33 C         -13.2751  -18.1039   23.6893 C.3     1  UNL1        0.0000
     34 C         -12.0916  -18.4640   24.5376 C.3     1  UNL1        0.0000
     35 C         -11.2480  -19.6523   24.1825 C.3     1  UNL1        0.0000
     36 C         -10.5320  -19.6971   22.8651 C.3     1  UNL1        0.0010
     37 C         -11.2506  -20.1713   21.6368 C.3     1  UNL1        0.0140
     38 C         -11.0606  -19.4543   20.3330 C.3     1  UNL1        0.0770
     39 C          -8.6565  -20.0384   18.6361 C.1     1  UNL1       -0.0141
     40 C          -9.8586  -19.7463   19.4846 C.1     1  UNL1       -0.0779
@<TRIPOS>BOND
     1    39    40    3
     2    40    38    1
     3    38    37    1
     4    37    36    1
     5    36    35    1
     6    35    34    1
     7    34    33    1
     8    33    32    1
     9    32    31    1
    10    31    30    1
    11    30    29    1
    12    29    28    1
    13    28    27    1
    14    27    26    1
    15    26    25    1
    16    25    24    1
    17    24    23    1
    18    23    22    1
    19    22     1    1
    20     1     2    2
    21     1     3    1
    22     1     5    1
    23     5     6    1
    24     6     7    1
    25     7     8    1
    26     7     9    1
    27     9    10    1
    28    10    11   ar
    29    11    12   ar
    30    12    13   ar
    31    13    14   ar
    32    14    15    1
    33    14    16   ar
    34    16    17   ar
    35    17    18   ar
    36    18    19   ar
    37    19    10   ar
    38    19    13   ar
    39     3     4    1
    40    15    20    1
    41    15    21    1
@<TRIPOS>MOLECULE
*****
 40 41 0 0 0
SMALL
GASTEIGER

@<TRIPOS>ATOM
      1 P          -5.3111  -15.7783   24.4452 P.3     1  UNL1        0.3697
      2 O          -5.1189  -14.3933   24.9882 O.2     1  UNL1       -0.2553
      3 O          -4.8257  -15.3191   23.1023 O.3     1  UNL1       -0.3218
      4 H          -4.6039  -14.3757   23.1438 H       1  UNL1        0.2198
      5 C          -5.5032  -17.1633   23.9022 C.3     1  UNL1        0.2579
      6 O          -6.6349  -17.4492   22.9602 O.3     1  UNL1       -0.3426
      7 C          -6.5351  -18.5912   21.9927 C.3     1  UNL1        0.1387
      8 C          -7.6189  -18.8127   20.9796 C.3     1  UNL1        0.0342
      9 C          -5.3515  -19.5117   22.0384 C.3     1  UNL1        0.1384
     10 N          -4.2627  -19.3846   21.0146 N.ar    1  UNL1       -0.2918
     11 C          -4.0476  -20.2912   19.8390 C.ar    1  UNL1        0.1798
     12 N          -2.8497  -19.7955   19.0845 N.ar    1  UNL1       -0.2195
     13 C          -2.3244  -18.5825   19.7937 C.ar    1  UNL1        0.1481
     14 C          -1.1638  -17.6765   19.5074 C.ar    1  UNL1        0.1480
     15 N          -0.2905  -17.9304   18.3146 N.pl3   1  UNL1       -0.3413
     16 N          -0.8765  -16.5165   20.4140 N.ar    1  UNL1       -0.2078
     17 C          -1.7497  -16.2626   21.6068 C.ar    1  UNL1        0.2015
     18 N          -2.9104  -17.1686   21.8931 N.ar    1  UNL1       -0.2048
     19 C          -3.1977  -18.3286   20.9866 C.ar    1  UNL1        0.1674
     20 H          -0.4791  -18.6918   17.7196 H       1  UNL1        0.1438
     21 H           0.4712  -17.3358   18.1267 H       1  UNL1        0.1438
     22 O          -5.7964  -16.2374   25.7882 O.3     1  UNL1       -0.2926
     23 C          -6.2240  -15.2314   26.8153 C.3     1  UNL1        0.1514
     24 C          -7.5933  -15.3147   27.4222 C.3     1  UNL1        0.0326
     25 C          -8.4273  -16.5458   27.2252 C.3     1  UNL1        0.0026
     26 C          -8.9309  -16.8995   25.8572 C.3     1  UNL1        0.0001
     27 C          -9.1528  -15.8218   24.8378 C.3     1  UNL1        0.0000
     28 C          -9.9959  -16.0960   23.6278 C.3     1  UNL1        0.0000
     29 C          -9.4062  -15.9564   22.2556 C.3     1  UNL1        0.0000
     30 C         -10.3059  -15.8270   21.0623 C.3     1  UNL1        0.0000
     31 C         -11.7596  -16.1781   21.1774 C.3     1  UNL1        0.0000
     32 C         -12.2316  -17.5515   20.8020 C.3     1  UNL1        0.0000
     33 C         -11.2345  -18.6324   20.5062 C.3     1  UNL1        0.0000
     34 C         -11.3709  -19.9770   21.1568 C.3     1  UNL1        0.0000
     35 C         -10.4195  -20.3851   22.2422 C.3     1  UNL1        0.0000
     36 C         -10.2074  -19.4921   23.4286 C.3     1  UNL1        0.0010
     37 C         -11.2861  -19.3476   24.4609 C.3     1  UNL1        0.0140
     38 C         -12.4766  -18.4779   24.1849 C.3     1  UNL1        0.0770
     39 C         -14.8088  -18.4843   26.0720 C.1     1  UNL1       -0.0141
     40 C         -13.6427  -18.4811   25.1284 C.1     1  UNL1       -0.0779
@<TRIPOS>BOND
     1    39    40    3
     2    40    38    1
     3    38    37    1
     4    37    36    1
     5    36    35    1
     6    35    34    1
     7    34    33    1
     8    33    32    1
     9    32    31    1
    10    31    30    1
    11    30    29    1
    12    29    28    1
    13    28    27    1
    14    27    26    1
    15    26    25    1
    16    25    24    1
    17    24    23    1
    18    23    22    1
    19    22     1    1
    20     1     2    2
    21     1     3    1
    22     1     5    1
    23     5     6    1
    24     6     7    1
    25     7     8    1
    26     7     9    1
    27     9    10    1
    28    10    11   ar
    29    11    12   ar
    30    12    13   ar
    31    13    14   ar
    32    14    15    1
    33    14    16   ar
    34    16    17   ar
    35    17    18   ar
    36    18    19   ar
    37    19    10   ar
    38    19    13   ar
    39     3     4    1
    40    15    20    1
    41    15    21    1
@<TRIPOS>MOLECULE
*****
 40 41 0 0 0
SMALL
GASTEIGER

@<TRIPOS>ATOM
      1 P          -7.9958  -16.1977   22.4346 P.3     1  UNL1        0.3697
      2 O          -8.7510  -16.7999   21.2869 O.2     1  UNL1       -0.2553
      3 O          -8.4385  -14.8295   22.0080 O.3     1  UNL1       -0.3218
      4 H          -8.9943  -14.9017   21.2163 H       1  UNL1        0.2198
      5 C          -7.2407  -15.5956   23.5823 C.3     1  UNL1        0.2579
      6 O          -5.7474  -15.4710   23.5147 O.3     1  UNL1       -0.3426
      7 C          -4.8887  -16.1935   24.5099 C.3     1  UNL1        0.1387
      8 C          -5.0055  -15.8763   25.9713 C.3     1  UNL1        0.0342
      9 C          -3.9131  -17.2333   24.0437 C.3     1  UNL1        0.1384
     10 N          -3.2438  -17.0889   22.7091 N.ar    1  UNL1       -0.2918
     11 C          -2.5424  -15.8635   22.2025 C.ar    1  UNL1        0.1798
     12 N          -2.0235  -16.1619   20.8271 N.ar    1  UNL1       -0.2195
     13 C          -2.4041  -17.5716   20.4837 C.ar    1  UNL1        0.1481
     14 C          -2.1614  -18.4075   19.2622 C.ar    1  UNL1        0.1480
     15 N          -1.4072  -17.8346   18.0990 N.pl3   1  UNL1       -0.3413
     16 N          -2.6728  -19.8164   19.2038 N.ar    1  UNL1       -0.2078
     17 C          -3.4269  -20.3893   20.3670 C.ar    1  UNL1        0.2015
     18 N          -3.6697  -19.5534   21.5885 N.ar    1  UNL1       -0.2048
     19 C          -3.1583  -18.1445   21.6469 C.ar    1  UNL1        0.1674
     20 H          -1.0715  -16.9099   18.1373 H       1  UNL1        0.1438
     21 H          -1.2479  -18.3833   17.2972 H       1  UNL1        0.1438
     22 O          -7.5531  -17.5660   22.8612 O.3     1  UNL1       -0.2926
     23 C          -6.6726  -18.3833   21.9632 C.3     1  UNL1        0.1514
     24 C          -6.9532  -19.8433   21.7641 C.3     1  UNL1        0.0326
     25 C          -7.0809  -20.4002   20.3772 C.3     1  UNL1        0.0026
     26 C          -7.8249  -19.6313   19.3259 C.3     1  UNL1        0.0001
     27 C          -9.2503  -19.9769   19.0117 C.3     1  UNL1        0.0000
     28 C         -10.3518  -19.0307   19.3873 C.3     1  UNL1        0.0000
     29 C         -11.3873  -19.4453   20.3904 C.3     1  UNL1        0.0000
     30 C         -11.0080  -20.3382   21.5344 C.3     1  UNL1        0.0000
     31 C          -9.9883  -19.8824   22.5355 C.3     1  UNL1        0.0000
     32 C          -9.9801  -20.4667   23.9170 C.3     1  UNL1        0.0000
     33 C         -10.3330  -19.6091   25.0961 C.3     1  UNL1        0.0000
     34 C         -11.2076  -18.4045   24.9123 C.3     1  UNL1        0.0000
     35 C         -12.6589  -18.5759   24.5740 C.3     1  UNL1        0.0000
     36 C         -13.1856  -18.0834   23.2587 C.3     1  UNL1        0.0010
     37 C         -13.0816  -16.6291   22.9063 C.3     1  UNL1        0.0140
     38 C         -11.8639  -16.1143   22.1977 C.3     1  UNL1        0.0770
     39 C         -11.9084  -15.7332   19.2223 C.1     1  UNL1       -0.0141
     40 C         -11.8861  -15.9237   20.7101 C.1     1  UNL1       -0.0779
@<TRIPOS>BOND
     1    39    40    3
     2    40    38    1
     3    38    37    1
     4    37    36    1
     5    36    35    1
     6    35    34    1
     7    34    33    1
     8    33    32    1
     9    32    31    1
    10    31    30    1
    11    30    29    1
    12    29    28    1
    13    28    27    1
    14    27    26    1
    15    26    25    1
    16    25    24    1
    17    24    23    1
    18    23    22    1
    19    22     1    1
    20     1     2    2
    21     1     3    1
    22     1     5    1
    23     5     6    1
    24     6     7    1
    25     7     8    1
    26     7     9    1
    27     9    10    1
    28    10    11   ar
    29    11    12   ar
    30    12    13   ar
    31    13    14   ar
    32    14    15    1
    33    14    16   ar
    34    16    17   ar
    35    17    18   ar
    36    18    19   ar
    37    19    10   ar
    38    19    13   ar
    39     3     4    1
    40    15    20    1
    41    15    21    1
@<TRIPOS>MOLECULE
*****
 40 41 0 0 0
SMALL
GASTEIGER

@<TRIPOS>ATOM
      1 P          -7.9388  -15.4922   22.3843 P.3     1  UNL1        0.3697
      2 O          -8.0764  -14.8613   21.0304 O.2     1  UNL1       -0.2553
      3 O          -7.8392  -14.1318   23.0081 O.3     1  UNL1       -0.3218
      4 H          -7.9016  -13.4539   22.3172 H       1  UNL1        0.2198
      5 C          -7.8011  -16.1231   23.7382 C.3     1  UNL1        0.2579
      6 O          -6.9962  -15.4418   24.8049 O.3     1  UNL1       -0.3426
      7 C          -5.6036  -15.9097   25.1076 C.3     1  UNL1        0.1387
      8 C          -4.8167  -15.2605   26.2073 C.3     1  UNL1        0.0342
      9 C          -4.9978  -17.0269   24.3106 C.3     1  UNL1        0.1384
     10 N          -3.9944  -16.7243   23.2375 N.ar    1  UNL1       -0.2918
     11 C          -3.6169  -15.3594   22.7429 C.ar    1  UNL1        0.1798
     12 N          -2.5815  -15.5251   21.6704 N.ar    1  UNL1       -0.2195
     13 C          -2.3190  -16.9923   21.5021 C.ar    1  UNL1        0.1481
     14 C          -1.3976  -17.7492   20.5921 C.ar    1  UNL1        0.1480
     15 N          -0.5244  -17.0080   19.6235 N.pl3   1  UNL1       -0.3413
     16 N          -1.3495  -19.2473   20.6506 N.ar    1  UNL1       -0.2078
     17 C          -2.2227  -19.9884   21.6192 C.ar    1  UNL1        0.2015
     18 N          -3.1441  -19.2315   22.5292 N.ar    1  UNL1       -0.2048
     19 C          -3.1922  -17.7335   22.4707 C.ar    1  UNL1        0.1674
     20 H          -0.5560  -16.0248   19.5851 H       1  UNL1        0.1438
     21 H           0.0804  -17.5048   19.0262 H       1  UNL1        0.1438
     22 O          -8.0383  -16.8527   21.7605 O.3     1  UNL1       -0.2926
     23 C          -8.1167  -18.0726   22.6298 C.3     1  UNL1        0.1514
     24 C          -7.5477  -19.3744   22.1485 C.3     1  UNL1        0.0326
     25 C          -6.2493  -19.3935   21.3977 C.3     1  UNL1        0.0026
     26 C          -6.2438  -19.6187   19.9147 C.3     1  UNL1        0.0001
     27 C          -7.3894  -20.3321   19.2601 C.3     1  UNL1        0.0000
     28 C          -8.6318  -19.5764   18.8921 C.3     1  UNL1        0.0000
     29 C          -9.9609  -20.0066   19.4386 C.3     1  UNL1        0.0000
     30 C         -10.8698  -18.9999   20.0793 C.3     1  UNL1        0.0000
     31 C         -10.7554  -17.5487   19.7173 C.3     1  UNL1        0.0000
     32 C         -11.2618  -16.4982   20.6607 C.3     1  UNL1        0.0000
     33 C         -12.7172  -16.4526   21.0211 C.3     1  UNL1        0.0000
     34 C         -13.3466  -17.6047   21.7468 C.3     1  UNL1        0.0000
     35 C         -13.0231  -17.8483   23.1911 C.3     1  UNL1        0.0000
     36 C         -11.5976  -18.0337   23.6195 C.3     1  UNL1        0.0010
     37 C         -11.0668  -19.4118   23.8826 C.3     1  UNL1        0.0140
     38 C         -10.2275  -19.6727   25.0981 C.3     1  UNL1        0.0770
     39 C          -9.1283  -17.3753   26.6837 C.1     1  UNL1       -0.0141
     40 C          -9.6779  -18.5241   25.8909 C.1     1  UNL1       -0.0779
@<TRIPOS>BOND
     1    39    40    3
     2    40    38    1
     3    38    37    1
     4    37    36    1
     5    36    35    1
     6    35    34    1
     7    34    33    1
     8    33    32    1
     9    32    31    1
    10    31    30    1
    11    30    29    1
    12    29    28    1
    13    28    27    1
    14    27    26    1
    15    26    25    1
    16    25    24    1
    17    24    23    1
    18    23    22    1
    19    22     1    1
    20     1     2    2
    21     1     3    1
    22     1     5    1
    23     5     6    1
    24     6     7    1
    25     7     8    1
    26     7     9    1
    27     9    10    1
    28    10    11   ar
    29    11    12   ar
    30    12    13   ar
    31    13    14   ar
    32    14    15    1
    33    14    16   ar
    34    16    17   ar
    35    17    18   ar
    36    18    19   ar
    37    19    10   ar
    38    19    13   ar
    39     3     4    1
    40    15    20    1
    41    15    21    1
@<TRIPOS>MOLECULE
*****
 40 41 0 0 0
SMALL
GASTEIGER

@<TRIPOS>ATOM
      1 P          -6.1911  -15.0923   24.5938 P.3     1  UNL1        0.3697
      2 O          -7.3188  -14.1044   24.6409 O.2     1  UNL1       -0.2553
      3 O          -5.9908  -14.7944   23.1374 O.3     1  UNL1       -0.3218
      4 H          -6.6352  -14.1279   22.8522 H       1  UNL1        0.2198
      5 C          -5.0633  -16.0803   24.5468 C.3     1  UNL1        0.2579
      6 O          -4.9917  -17.0843   23.4347 O.3     1  UNL1       -0.3426
      7 C          -3.9186  -18.1324   23.4385 C.3     1  UNL1        0.1387
      8 C          -2.8162  -18.0735   24.4540 C.3     1  UNL1        0.0342
      9 C          -3.9479  -19.2394   22.4266 C.3     1  UNL1        0.1384
     10 N          -3.5678  -18.9636   21.0020 N.ar    1  UNL1       -0.2918
     11 C          -4.4725  -19.0748   19.8107 C.ar    1  UNL1        0.1798
     12 N          -3.6801  -18.7081   18.5911 N.ar    1  UNL1       -0.2195
     13 C          -2.2856  -18.3702   19.0286 C.ar    1  UNL1        0.1481
     14 C          -1.0701  -17.9392   18.2626 C.ar    1  UNL1        0.1480
     15 N          -1.1395  -17.7813   16.7726 N.pl3   1  UNL1       -0.3413
     16 N           0.2148  -17.6661   18.9867 N.ar    1  UNL1       -0.2078
     17 C           0.2842  -17.8240   20.4768 C.ar    1  UNL1        0.2015
     18 N          -0.9313  -18.2550   21.2427 N.ar    1  UNL1       -0.2048
     19 C          -2.2162  -18.5281   20.5186 C.ar    1  UNL1        0.1674
     20 H          -1.9829  -17.9606   16.2973 H       1  UNL1        0.1438
     21 H          -0.3417  -17.4984   16.2699 H       1  UNL1        0.1438
     22 O          -6.3913  -15.3903   26.0502 O.3     1  UNL1       -0.2926
     23 C          -7.7783  -15.4699   26.6157 C.3     1  UNL1        0.1514
     24 C          -8.5255  -16.7703   26.5894 C.3     1  UNL1        0.0326
     25 C          -9.2518  -17.1929   25.3468 C.3     1  UNL1        0.0026
     26 C          -9.5550  -16.1867   24.2765 C.3     1  UNL1        0.0001
     27 C         -10.2470  -16.6168   23.0171 C.3     1  UNL1        0.0000
     28 C         -11.7448  -16.5930   22.9387 C.3     1  UNL1        0.0000
     29 C         -12.4227  -16.2097   21.6566 C.3     1  UNL1        0.0000
     30 C         -11.6388  -16.1632   20.3785 C.3     1  UNL1        0.0000
     31 C         -11.2769  -17.4370   19.6739 C.3     1  UNL1        0.0000
     32 C         -11.5796  -18.7598   20.3130 C.3     1  UNL1        0.0000
     33 C         -10.6113  -19.8974   20.1773 C.3     1  UNL1        0.0000
     34 C          -9.4224  -19.7663   19.2721 C.3     1  UNL1        0.0000
     35 C          -8.0775  -19.4295   19.8445 C.3     1  UNL1        0.0000
     36 C          -7.9783  -18.5840   21.0795 C.3     1  UNL1        0.0010
     37 C          -7.4979  -19.1884   22.3655 C.3     1  UNL1        0.0140
     38 C          -8.2168  -20.3652   22.9557 C.3     1  UNL1        0.0770
     39 C         -10.9788  -20.0277   24.0773 C.1     1  UNL1       -0.0141
     40 C          -9.5978  -20.1964   23.5164 C.1     1  UNL1       -0.0779
@<TRIPOS>BOND
     1    39    40    3
     2    40    38    1
     3    38    37    1
     4    37    36    1
     5    36    35    1
     6    35    34    1
     7    34    33    1
     8    33    32    1
     9    32    31    1
    10    31    30    1
    11    30    29    1
    12    29    28    1
    13    28    27    1
    14    27    26    1
    15    26    25    1
    16    25    24    1
    17    24    23    1
    18    23    22    1
    19    22     1    1
    20     1     2    2
    21     1     3    1
    22     1     5    1
    23     5     6    1
    24     6     7    1
    25     7     8    1
    26     7     9    1
    27     9    10    1
    28    10    11   ar
    29    11    12   ar
    30    12    13   ar
    31    13    14   ar
    32    14    15    1
    33    14    16   ar
    34    16    17   ar
    35    17    18   ar
    36    18    19   ar
    37    19    10   ar
    38    19    13   ar
    39     3     4    1
    40    15    20    1
    41    15    21    1
@<TRIPOS>MOLECULE
*****
 40 41 0 0 0
SMALL
GASTEIGER

@<TRIPOS>ATOM
      1 P          -6.4406  -15.2224   23.8368 P.3     1  UNL1        0.3697
      2 O          -7.3186  -15.4401   22.6402 O.2     1  UNL1       -0.2553
      3 O          -5.4202  -14.5512   22.9659 O.3     1  UNL1       -0.3218
      4 H          -5.7356  -14.5393   22.0487 H       1  UNL1        0.2198
      5 C          -5.5626  -15.0046   25.0333 C.3     1  UNL1        0.2579
      6 O          -5.1435  -16.1709   25.8783 O.3     1  UNL1       -0.3426
      7 C          -4.2675  -17.2413   25.2979 C.3     1  UNL1        0.1387
      8 C          -3.0753  -17.7322   26.0645 C.3     1  UNL1        0.0342
      9 C          -4.5836  -17.8208   23.9509 C.3     1  UNL1        0.1384
     10 N          -3.6554  -17.5850   22.7964 N.ar    1  UNL1       -0.2918
     11 C          -2.6604  -16.4687   22.6788 C.ar    1  UNL1        0.1798
     12 N          -1.9493  -16.6181   21.3666 N.ar    1  UNL1       -0.2195
     13 C          -2.5047  -17.8267   20.6732 C.ar    1  UNL1        0.1481
     14 C          -2.1866  -18.4602   19.3513 C.ar    1  UNL1        0.1480
     15 N          -1.1321  -17.8626   18.4676 N.pl3   1  UNL1       -0.3413
     16 N          -2.9229  -19.6914   18.9132 N.ar    1  UNL1       -0.2078
     17 C          -3.9773  -20.2890   19.7969 C.ar    1  UNL1        0.2015
     18 N          -4.2955  -19.6555   21.1188 N.ar    1  UNL1       -0.2048
     19 C          -3.5592  -18.4243   21.5569 C.ar    1  UNL1        0.1674
     20 H          -0.6488  -17.0545   18.7552 H       1  UNL1        0.1438
     21 H          -0.9233  -18.2784   17.6000 H       1  UNL1        0.1438
     22 O          -7.4609  -15.8935   24.7076 O.3     1  UNL1       -0.2926
     23 C          -8.9197  -15.7804   24.3775 C.3     1  UNL1        0.1514
     24 C          -9.7911  -17.0012   24.4017 C.3     1  UNL1        0.0326
     25 C          -9.6213  -18.0224   25.4871 C.3     1  UNL1        0.0026
     26 C         -10.4063  -19.2998   25.4445 C.3     1  UNL1        0.0001
     27 C          -9.7971  -20.5351   24.8504 C.3     1  UNL1        0.0000
     28 C          -8.8692  -20.4239   23.6771 C.3     1  UNL1        0.0000
     29 C          -9.3917  -19.9632   22.3486 C.3     1  UNL1        0.0000
     30 C         -10.8473  -20.1173   22.0208 C.3     1  UNL1        0.0000
     31 C         -11.3106  -20.0160   20.5978 C.3     1  UNL1        0.0000
     32 C         -10.3644  -19.5466   19.5326 C.3     1  UNL1        0.0000
     33 C         -10.0427  -18.0871   19.4054 C.3     1  UNL1        0.0000
     34 C         -11.1165  -17.0612   19.6163 C.3     1  UNL1        0.0000
     35 C         -11.1726  -16.2870   20.8998 C.3     1  UNL1        0.0000
     36 C         -12.4938  -16.0217   21.5586 C.3     1  UNL1        0.0010
     37 C         -12.7346  -16.4782   22.9670 C.3     1  UNL1        0.0140
     38 C         -13.2619  -17.8579   23.2284 C.3     1  UNL1        0.0770
     39 C         -14.4811  -18.5188   25.8887 C.1     1  UNL1       -0.0141
     40 C         -13.8715  -18.1883   24.5585 C.1     1  UNL1       -0.0779
@<TRIPOS>BOND
     1    39    40    3
     2    40    38    1
     3    38    37    1
     4    37    36    1
     5    36    35    1
     6    35    34    1
     7    34    33    1
     8    33    32    1
     9    32    31    1
    10    31    30    1
    11    30    29    1
    12    29    28    1
    13    28    27    1
    14    27    26    1
    15    26    25    1
    16    25    24    1
    17    24    23    1
    18    23    22    1
    19    22     1    1
    20     1     2    2
    21     1     3    1
    22     1     5    1
    23     5     6    1
    24     6     7    1
    25     7     8    1
    26     7     9    1
    27     9    10    1
    28    10    11   ar
    29    11    12   ar
    30    12    13   ar
    31    13    14   ar
    32    14    15    1
    33    14    16   ar
    34    16    17   ar
    35    17    18   ar
    36    18    19   ar
    37    19    10   ar
    38    19    13   ar
    39     3     4    1
    40    15    20    1
    41    15    21    1
@<TRIPOS>MOLECULE
*****
 40 41 0 0 0
SMALL
GASTEIGER

@<TRIPOS>ATOM
      1 P          -6.3185  -15.4106   23.6578 P.3     1  UNL1        0.3697
      2 O          -7.3381  -14.7538   22.7752 O.2     1  UNL1       -0.2553
      3 O          -5.2350  -14.6022   23.0077 O.3     1  UNL1       -0.3218
      4 H          -5.6231  -14.0276   22.3294 H       1  UNL1        0.2198
      5 C          -5.2989  -16.0673   24.5405 C.3     1  UNL1        0.2579
      6 O          -4.9906  -17.5258   24.3737 O.3     1  UNL1       -0.3426
      7 C          -3.8142  -17.9541   23.5476 C.3     1  UNL1        0.1387
      8 C          -2.4776  -17.3046   23.7523 C.3     1  UNL1        0.0342
      9 C          -3.9742  -19.0319   22.5166 C.3     1  UNL1        0.1384
     10 N          -3.6180  -18.7594   21.0852 N.ar    1  UNL1       -0.2918
     11 C          -4.5756  -18.7147   19.9315 C.ar    1  UNL1        0.1798
     12 N          -3.7911  -18.4114   18.6895 N.ar    1  UNL1       -0.2195
     13 C          -2.3486  -18.2688   19.0756 C.ar    1  UNL1        0.1481
     14 C          -1.1188  -17.9708   18.2702 C.ar    1  UNL1        0.1480
     15 N          -1.2257  -17.7557   16.7896 N.pl3   1  UNL1       -0.3413
     16 N           0.2180  -17.8879   18.9455 N.ar    1  UNL1       -0.2078
     17 C           0.3249  -18.1030   20.4262 C.ar    1  UNL1        0.2015
     18 N          -0.9049  -18.4009   21.2315 N.ar    1  UNL1       -0.2048
     19 C          -2.2417  -18.4838   20.5562 C.ar    1  UNL1        0.1674
     20 H          -2.1031  -17.8101   16.3464 H       1  UNL1        0.1438
     21 H          -0.4185  -17.5602   16.2610 H       1  UNL1        0.1438
     22 O          -7.4020  -16.2189   24.3080 O.3     1  UNL1       -0.2926
     23 C          -8.6735  -16.5038   23.5652 C.3     1  UNL1        0.1514
     24 C          -8.6864  -17.5209   22.4628 C.3     1  UNL1        0.0326
     25 C          -7.4428  -18.2964   22.1433 C.3     1  UNL1        0.0026
     26 C          -7.5163  -19.7805   21.9380 C.3     1  UNL1        0.0001
     27 C          -7.3294  -20.3581   20.5664 C.3     1  UNL1        0.0000
     28 C          -7.9236  -19.6680   19.3745 C.3     1  UNL1        0.0000
     29 C          -9.3331  -19.9694   18.9588 C.3     1  UNL1        0.0000
     30 C         -10.4358  -19.9480   19.9755 C.3     1  UNL1        0.0000
     31 C         -11.2910  -18.7253   20.1288 C.3     1  UNL1        0.0000
     32 C         -10.7968  -17.3977   19.6356 C.3     1  UNL1        0.0000
     33 C         -11.4575  -16.1328   20.0978 C.3     1  UNL1        0.0000
     34 C         -12.6703  -16.1984   20.9780 C.3     1  UNL1        0.0000
     35 C         -12.5399  -15.9619   22.4534 C.3     1  UNL1        0.0000
     36 C         -12.9447  -17.0321   23.4233 C.3     1  UNL1        0.0010
     37 C         -12.2450  -18.3588   23.4113 C.3     1  UNL1        0.0140
     38 C         -11.4958  -18.8226   24.6252 C.3     1  UNL1        0.0770
     39 C          -9.4969  -21.0478   24.3951 C.1     1  UNL1       -0.0141
     40 C         -10.4964  -19.9352   24.5102 C.1     1  UNL1       -0.0779
@<TRIPOS>BOND
     1    39    40    3
     2    40    38    1
     3    38    37    1
     4    37    36    1
     5    36    35    1
     6    35    34    1
     7    34    33    1
     8    33    32    1
     9    32    31    1
    10    31    30    1
    11    30    29    1
    12    29    28    1
    13    28    27    1
    14    27    26    1
    15    26    25    1
    16    25    24    1
    17    24    23    1
    18    23    22    1
    19    22     1    1
    20     1     2    2
    21     1     3    1
    22     1     5    1
    23     5     6    1
    24     6     7    1
    25     7     8    1
    26     7     9    1
    27     9    10    1
    28    10    11   ar
    29    11    12   ar
    30    12    13   ar
    31    13    14   ar
    32    14    15    1
    33    14    16   ar
    34    16    17   ar
    35    17    18   ar
    36    18    19   ar
    37    19    10   ar
    38    19    13   ar
    39     3     4    1
    40    15    20    1
    41    15    21    1
