@<TRIPOS>MOLECULE
*****
 34 38 0 0 0
SMALL
GASTEIGER

@<TRIPOS>ATOM
      1 N          -0.6668    3.3696   23.9067 N.am    1  UNL1       -0.2683
      2 C           0.1643    2.1755   24.2722 C.2     1  UNL1        0.3047
      3 O          -0.3722    1.1532   25.2299 O.2     1  UNL1       -0.2525
      4 N           1.5317    2.0037   23.6801 N.am    1  UNL1       -0.2863
      5 H          -0.3147    4.0406   23.2782 H       1  UNL1        0.1564
      6 H           1.8838    2.6747   23.0516 H       1  UNL1        0.1512
      7 C          -4.0988    3.5428   19.7304 C.3     1  UNL1        0.0521
      8 C          -4.2663    3.6284   21.2186 C.ar    1  UNL1        0.0594
      9 C          -3.0665    3.5421   22.1146 C.ar    1  UNL1        0.0160
     10 C          -3.2341    3.6276   23.6028 C.ar    1  UNL1        0.0162
     11 C          -2.0342    3.5414   24.4988 C.ar    1  UNL1        0.0516
     12 C          -2.2018    3.6269   25.9870 C.ar    1  UNL1        0.0147
     13 C          -3.5693    3.7986   26.5791 C.ar    1  UNL1        0.0013
     14 C          -4.7691    3.8849   25.6830 C.ar    1  UNL1        0.0016
     15 C          -4.6015    3.7994   24.1949 C.ar    1  UNL1        0.0204
     16 C          -5.8013    3.8856   23.2988 C.ar    1  UNL1        0.0984
     17 N          -5.6338    3.8001   21.8107 N.ar    1  UNL1       -0.2481
     18 C           2.3626    0.8097   24.0457 C.3     1  UNL1        0.1021
     19 C           2.7970    0.6048   25.4667 C.3     1  UNL1        0.0700
     20 C           3.6280   -0.5893   25.8322 C.3     1  UNL1        0.2000
     21 O           4.0246   -1.5785   24.7767 O.3     1  UNL1       -0.4772
     22 C           3.5902   -1.3737   23.3557 C.ar    1  UNL1        0.1356
     23 C           3.9868   -2.3629   22.3002 C.ar    1  UNL1        0.0323
     24 C           3.5523   -2.1581   20.8792 C.ar    1  UNL1       -0.0195
     25 C           2.7214   -0.9641   20.5136 C.ar    1  UNL1       -0.0043
     26 C           2.3248    0.0252   21.5691 C.ar    1  UNL1        0.0000
     27 C           2.7592   -0.1796   22.9902 C.ar    1  UNL1        0.0296
     28 C           3.9490   -3.1474   19.8237 C.3     1  UNL1        0.0225
     29 C           4.8659   -3.5632   18.7118 C.3     1  UNL1        0.0047
     30 C           3.7189   -4.4451   19.1074 C.3     1  UNL1        0.0047
     31 C           4.4163   -1.5564   26.6648 C.3     1  UNL1        0.2357
     32 F           5.4965   -2.3833   26.0329 F       1  UNL1       -0.2303
     33 C           3.5052    0.0641   27.1769 C.3     1  UNL1        0.2357
     34 F           2.7938   -0.6430   28.2921 F       1  UNL1       -0.2303
@<TRIPOS>BOND
     1     7     8    1
     2     8     9   ar
     3     9    10   ar
     4    10    11   ar
     5    11     1    1
     6     1     2   am
     7     2     3    2
     8     2     4   am
     9    18     4    1
    10    18    19    1
    11    19    20    1
    12    20    31    1
    13    31    32    1
    14    20    33    1
    15    33    34    1
    16    20    21    1
    17    21    22    1
    18    22    23   ar
    19    23    24   ar
    20    24    28    1
    21    28    29    1
    22    29    30    1
    23    24    25   ar
    24    25    26   ar
    25    26    27   ar
    26    11    12   ar
    27    12    13   ar
    28    13    14   ar
    29    14    15   ar
    30    15    16   ar
    31    16    17   ar
    32    17     8   ar
    33    15    10   ar
    34    27    18    1
    35    27    22   ar
    36    30    28    1
    37     1     5    1
    38     4     6    1
@<TRIPOS>MOLECULE
*****
 34 38 0 0 0
SMALL
GASTEIGER

@<TRIPOS>ATOM
      1 N           8.1279   -3.4649   23.0280 N.am    1  UNL1       -0.2683
      2 C           6.8950   -3.0206   22.2982 C.2     1  UNL1        0.3047
      3 O           5.7671   -3.9841   22.0755 O.2     1  UNL1       -0.2525
      4 N           6.7900   -1.6129   21.7911 N.am    1  UNL1       -0.2863
      5 H           8.8682   -2.8326   23.1742 H       1  UNL1        0.1564
      6 H           7.5303   -0.9805   21.9372 H       1  UNL1        0.1512
      7 C           6.1410   -3.3994   28.0577 C.3     1  UNL1        0.0521
      8 C           6.7164   -4.4716   27.1807 C.ar    1  UNL1        0.0594
      9 C           7.1869   -4.1360   25.7965 C.ar    1  UNL1        0.0160
     10 C           7.7623   -5.2083   24.9194 C.ar    1  UNL1        0.0162
     11 C           8.2328   -4.8727   23.5352 C.ar    1  UNL1        0.0516
     12 C           8.8083   -5.9449   22.6581 C.ar    1  UNL1        0.0147
     13 C           8.9132   -7.3527   23.1653 C.ar    1  UNL1        0.0013
     14 C           8.4427   -7.6882   24.5495 C.ar    1  UNL1        0.0016
     15 C           7.8673   -6.6160   25.4265 C.ar    1  UNL1        0.0204
     16 C           7.3968   -6.9515   26.8107 C.ar    1  UNL1        0.0984
     17 N           6.8214   -5.8793   27.6878 N.ar    1  UNL1       -0.2481
     18 C           5.5572   -1.1686   21.0613 C.3     1  UNL1        0.1021
     19 C           5.4752   -1.3126   19.5705 C.3     1  UNL1        0.0700
     20 C           4.2423   -0.8683   18.8407 C.3     1  UNL1        0.2000
     21 O           3.0913   -0.2800   19.6017 O.3     1  UNL1       -0.4772
     22 C           3.1733   -0.1360   21.0925 C.ar    1  UNL1        0.1356
     23 C           2.0224    0.4523   21.8536 C.ar    1  UNL1        0.0323
     24 C           2.1043    0.5963   23.3444 C.ar    1  UNL1       -0.0195
     25 C           3.3371    0.1521   24.0742 C.ar    1  UNL1       -0.0043
     26 C           4.4881   -0.4362   23.3131 C.ar    1  UNL1        0.0000
     27 C           4.4061   -0.5803   21.8223 C.ar    1  UNL1        0.0296
     28 C           0.9533    1.1847   24.1054 C.3     1  UNL1        0.0225
     29 C          -0.1189    2.2250   24.2400 C.3     1  UNL1        0.0047
     30 C           0.0319    1.1634   25.2889 C.3     1  UNL1        0.0047
     31 C           3.2949   -0.5955   17.7102 C.3     1  UNL1        0.2357
     32 F           3.6799   -0.9546   16.3057 F       1  UNL1       -0.2303
     33 C           5.0642   -1.3619   17.6870 C.3     1  UNL1        0.2357
     34 F           5.7063   -2.7161   17.7487 F       1  UNL1       -0.2303
@<TRIPOS>BOND
     1     7     8    1
     2     8     9   ar
     3     9    10   ar
     4    10    11   ar
     5    11     1    1
     6     1     2   am
     7     2     3    2
     8     2     4   am
     9    18     4    1
    10    18    19    1
    11    19    20    1
    12    20    31    1
    13    31    32    1
    14    20    33    1
    15    33    34    1
    16    20    21    1
    17    21    22    1
    18    22    23   ar
    19    23    24   ar
    20    24    28    1
    21    28    29    1
    22    29    30    1
    23    24    25   ar
    24    25    26   ar
    25    26    27   ar
    26    11    12   ar
    27    12    13   ar
    28    13    14   ar
    29    14    15   ar
    30    15    16   ar
    31    16    17   ar
    32    17     8   ar
    33    15    10   ar
    34    27    18    1
    35    27    22   ar
    36    30    28    1
    37     1     5    1
    38     4     6    1
@<TRIPOS>MOLECULE
*****
 34 38 0 0 0
SMALL
GASTEIGER

@<TRIPOS>ATOM
      1 N           6.8684   -2.3639   22.0091 N.am    1  UNL1       -0.2683
      2 C           6.9672   -3.4651   23.0229 C.2     1  UNL1        0.3047
      3 O           6.0699   -4.6627   22.9193 O.2     1  UNL1       -0.2525
      4 N           7.9632   -3.3687   24.1403 N.am    1  UNL1       -0.2863
      5 H           7.4573   -1.5779   22.0772 H       1  UNL1        0.1564
      6 H           8.5521   -2.5827   24.2083 H       1  UNL1        0.1512
      7 C           2.4888    0.3424   23.6661 C.3     1  UNL1        0.0521
      8 C           2.8367   -0.4065   22.4138 C.ar    1  UNL1        0.0594
      9 C           4.1805   -1.0590   22.2789 C.ar    1  UNL1        0.0160
     10 C           4.5284   -1.8078   21.0266 C.ar    1  UNL1        0.0162
     11 C           5.8724   -2.4603   20.8918 C.ar    1  UNL1        0.0516
     12 C           6.2202   -3.2092   19.6395 C.ar    1  UNL1        0.0147
     13 C           5.2241   -3.3056   18.5221 C.ar    1  UNL1        0.0013
     14 C           3.8802   -2.6531   18.6570 C.ar    1  UNL1        0.0016
     15 C           3.5324   -1.9042   19.9093 C.ar    1  UNL1        0.0204
     16 C           2.1885   -1.2518   20.0442 C.ar    1  UNL1        0.0984
     17 N           1.8406   -0.5029   21.2964 N.ar    1  UNL1       -0.2481
     18 C           8.0620   -4.4698   25.1540 C.3     1  UNL1        0.1021
     19 C           8.5615   -5.8236   24.7445 C.3     1  UNL1        0.0700
     20 C           8.6603   -6.9248   25.7583 C.3     1  UNL1        0.2000
     21 O           8.2595   -6.6722   27.1815 O.3     1  UNL1       -0.4772
     22 C           7.7600   -5.3183   27.5910 C.ar    1  UNL1        0.1356
     23 C           7.3593   -5.0657   29.0142 C.ar    1  UNL1        0.0323
     24 C           6.8598   -3.7119   29.4237 C.ar    1  UNL1       -0.0195
     25 C           6.7610   -2.6107   28.4100 C.ar    1  UNL1       -0.0043
     26 C           7.1617   -2.8634   26.9868 C.ar    1  UNL1        0.0000
     27 C           7.6612   -4.2172   26.5773 C.ar    1  UNL1        0.0296
     28 C           6.4590   -3.4592   30.8470 C.3     1  UNL1        0.0225
     29 C           6.4701   -3.8645   32.2911 C.3     1  UNL1        0.0047
     30 C           5.7538   -2.6164   31.8679 C.3     1  UNL1        0.0047
     31 C           8.9308   -8.2768   26.3490 C.3     1  UNL1        0.2357
     32 F           7.8573   -8.9877   27.1183 F       1  UNL1       -0.2303
     33 C           9.1550   -7.6470   24.5402 C.3     1  UNL1        0.2357
     34 F           8.3673   -7.5932   23.2649 F       1  UNL1       -0.2303
@<TRIPOS>BOND
     1     7     8    1
     2     8     9   ar
     3     9    10   ar
     4    10    11   ar
     5    11     1    1
     6     1     2   am
     7     2     3    2
     8     2     4   am
     9    18     4    1
    10    18    19    1
    11    19    20    1
    12    20    31    1
    13    31    32    1
    14    20    33    1
    15    33    34    1
    16    20    21    1
    17    21    22    1
    18    22    23   ar
    19    23    24   ar
    20    24    28    1
    21    28    29    1
    22    29    30    1
    23    24    25   ar
    24    25    26   ar
    25    26    27   ar
    26    11    12   ar
    27    12    13   ar
    28    13    14   ar
    29    14    15   ar
    30    15    16   ar
    31    16    17   ar
    32    17     8   ar
    33    15    10   ar
    34    27    18    1
    35    27    22   ar
    36    30    28    1
    37     1     5    1
    38     4     6    1
@<TRIPOS>MOLECULE
*****
 34 38 0 0 0
SMALL
GASTEIGER

@<TRIPOS>ATOM
      1 N          -0.7909    3.5696   19.9991 N.am    1  UNL1       -0.2683
      2 C           0.3839    3.0011   19.2596 C.2     1  UNL1        0.3047
      3 O           0.2448    2.6097   17.8183 O.2     1  UNL1       -0.2525
      4 N           1.6976    2.8238   19.9615 N.am    1  UNL1       -0.2863
      5 H          -0.6996    3.8265   20.9451 H       1  UNL1        0.1564
      6 H           1.7889    3.0807   20.9075 H       1  UNL1        0.1512
      7 C          -4.5955    3.2230   23.8272 C.3     1  UNL1        0.0521
      8 C          -4.6297    3.4426   22.3438 C.ar    1  UNL1        0.0594
      9 C          -3.3501    3.4849   21.5622 C.ar    1  UNL1        0.0160
     10 C          -3.3842    3.7045   20.0788 C.ar    1  UNL1        0.0162
     11 C          -2.1046    3.7469   19.2972 C.ar    1  UNL1        0.0516
     12 C          -2.1387    3.9665   17.8138 C.ar    1  UNL1        0.0147
     13 C          -3.4525    4.1437   17.1119 C.ar    1  UNL1        0.0013
     14 C          -4.7321    4.1013   17.8934 C.ar    1  UNL1        0.0016
     15 C          -4.6980    3.8818   19.3769 C.ar    1  UNL1        0.0204
     16 C          -5.9775    3.8394   20.1584 C.ar    1  UNL1        0.0984
     17 N          -5.9434    3.6198   21.6419 N.ar    1  UNL1       -0.2481
     18 C           2.8723    2.2553   19.2221 C.3     1  UNL1        0.1021
     19 C           3.8081    3.1676   18.4859 C.3     1  UNL1        0.0700
     20 C           4.9829    2.5989   17.7464 C.3     1  UNL1        0.2000
     21 O           5.2216    1.1181   17.7431 O.3     1  UNL1       -0.4772
     22 C           4.2858    0.2058   18.4792 C.ar    1  UNL1        0.1356
     23 C           4.5245   -1.2750   18.4758 C.ar    1  UNL1        0.0323
     24 C           3.5886   -2.1873   19.2119 C.ar    1  UNL1       -0.0195
     25 C           2.4140   -1.6188   19.9514 C.ar    1  UNL1       -0.0043
     26 C           2.1752   -0.1379   19.9548 C.ar    1  UNL1        0.0000
     27 C           3.1111    0.7744   19.2187 C.ar    1  UNL1        0.0296
     28 C           3.8275   -3.6682   19.2085 C.3     1  UNL1        0.0225
     29 C           4.6380   -4.8523   18.7716 C.3     1  UNL1        0.0047
     30 C           3.4306   -5.0491   19.6395 C.3     1  UNL1        0.0047
     31 C           6.2243    2.5373   16.9069 C.3     1  UNL1        0.2357
     32 F           6.4871    1.3394   16.0433 F       1  UNL1       -0.2303
     33 C           5.1752    4.0584   17.4582 C.3     1  UNL1        0.2357
     34 F           4.3600    4.7258   16.3906 F       1  UNL1       -0.2303
@<TRIPOS>BOND
     1     7     8    1
     2     8     9   ar
     3     9    10   ar
     4    10    11   ar
     5    11     1    1
     6     1     2   am
     7     2     3    2
     8     2     4   am
     9    18     4    1
    10    18    19    1
    11    19    20    1
    12    20    31    1
    13    31    32    1
    14    20    33    1
    15    33    34    1
    16    20    21    1
    17    21    22    1
    18    22    23   ar
    19    23    24   ar
    20    24    28    1
    21    28    29    1
    22    29    30    1
    23    24    25   ar
    24    25    26   ar
    25    26    27   ar
    26    11    12   ar
    27    12    13   ar
    28    13    14   ar
    29    14    15   ar
    30    15    16   ar
    31    16    17   ar
    32    17     8   ar
    33    15    10   ar
    34    27    18    1
    35    27    22   ar
    36    30    28    1
    37     1     5    1
    38     4     6    1
@<TRIPOS>MOLECULE
*****
 34 38 0 0 0
SMALL
GASTEIGER

@<TRIPOS>ATOM
      1 N           3.1383    1.1289   19.7856 N.am    1  UNL1       -0.2683
      2 C           1.6947    1.5021   19.6211 C.2     1  UNL1        0.3047
      3 O           0.6958    0.4662   19.1978 O.2     1  UNL1       -0.2525
      4 N           1.2501    2.9110   19.8801 N.am    1  UNL1       -0.2863
      5 H           3.7939    1.8087   20.0634 H       1  UNL1        0.1564
      6 H           1.9058    3.5909   20.1579 H       1  UNL1        0.1512
      7 C           3.6678   -1.1932   24.6412 C.3     1  UNL1        0.0521
      8 C           3.8689   -1.6694   23.2331 C.ar    1  UNL1        0.0594
      9 C           3.6254   -0.7367   22.0839 C.ar    1  UNL1        0.0160
     10 C           3.8264   -1.2129   20.6758 C.ar    1  UNL1        0.0162
     11 C           3.5829   -0.2801   19.5266 C.ar    1  UNL1        0.0516
     12 C           3.7840   -0.7563   18.1185 C.ar    1  UNL1        0.0147
     13 C           4.2286   -2.1654   17.8596 C.ar    1  UNL1        0.0013
     14 C           4.4721   -3.0981   19.0088 C.ar    1  UNL1        0.0016
     15 C           4.2710   -2.6219   20.4169 C.ar    1  UNL1        0.0204
     16 C           4.5146   -3.5546   21.5661 C.ar    1  UNL1        0.0984
     17 N           4.3135   -3.0784   22.9742 N.ar    1  UNL1       -0.2481
     18 C          -0.1933    3.2841   19.7157 C.3     1  UNL1        0.1021
     19 C          -0.7506    3.5401   18.3467 C.3     1  UNL1        0.0700
     20 C          -2.1942    3.9132   18.1824 C.3     1  UNL1        0.2000
     21 O          -3.0804    4.0304   19.3869 O.3     1  UNL1       -0.4772
     22 C          -2.5231    3.7745   20.7558 C.ar    1  UNL1        0.1356
     23 C          -3.4093    3.8916   21.9603 C.ar    1  UNL1        0.0323
     24 C          -2.8520    3.6357   23.3292 C.ar    1  UNL1       -0.0195
     25 C          -1.4086    3.2626   23.4936 C.ar    1  UNL1       -0.0043
     26 C          -0.5223    3.1454   22.2891 C.ar    1  UNL1        0.0000
     27 C          -1.0796    3.4013   20.9202 C.ar    1  UNL1        0.0296
     28 C          -3.7383    3.7529   24.5337 C.3     1  UNL1        0.0225
     29 C          -3.9109    4.0329   25.9972 C.3     1  UNL1        0.0047
     30 C          -5.1008    3.6759   25.1565 C.3     1  UNL1        0.0047
     31 C          -3.4856    4.2912   17.5196 C.3     1  UNL1        0.2357
     32 F          -4.2854    3.2539   16.7888 F       1  UNL1       -0.2303
     33 C          -1.7565    3.9273   16.7477 C.3     1  UNL1        0.2357
     34 F          -0.4705    4.5965   16.3625 F       1  UNL1       -0.2303
@<TRIPOS>BOND
     1     7     8    1
     2     8     9   ar
     3     9    10   ar
     4    10    11   ar
     5    11     1    1
     6     1     2   am
     7     2     3    2
     8     2     4   am
     9    18     4    1
    10    18    19    1
    11    19    20    1
    12    20    31    1
    13    31    32    1
    14    20    33    1
    15    33    34    1
    16    20    21    1
    17    21    22    1
    18    22    23   ar
    19    23    24   ar
    20    24    28    1
    21    28    29    1
    22    29    30    1
    23    24    25   ar
    24    25    26   ar
    25    26    27   ar
    26    11    12   ar
    27    12    13   ar
    28    13    14   ar
    29    14    15   ar
    30    15    16   ar
    31    16    17   ar
    32    17     8   ar
    33    15    10   ar
    34    27    18    1
    35    27    22   ar
    36    30    28    1
    37     1     5    1
    38     4     6    1
@<TRIPOS>MOLECULE
*****
 34 38 0 0 0
SMALL
GASTEIGER

@<TRIPOS>ATOM
      1 N           5.1893    0.0413   23.9145 N.am    1  UNL1       -0.2683
      2 C           4.1858   -0.1839   25.0065 C.2     1  UNL1        0.3047
      3 O           3.6425   -1.5600   25.2537 O.2     1  UNL1       -0.2525
      4 N           3.7257    0.9670   25.8513 N.am    1  UNL1       -0.2863
      5 H           5.5458    0.9445   23.7522 H       1  UNL1        0.1564
      6 H           4.0823    1.8702   25.6890 H       1  UNL1        0.1512
      7 C           1.3656   -0.6859   20.1593 C.3     1  UNL1        0.0521
      8 C           2.6666   -1.3673   20.4645 C.ar    1  UNL1        0.0594
      9 C           3.5075   -0.8978   21.6145 C.ar    1  UNL1        0.0160
     10 C           4.8085   -1.5792   21.9197 C.ar    1  UNL1        0.0162
     11 C           5.6494   -1.1096   23.0697 C.ar    1  UNL1        0.0516
     12 C           6.9503   -1.7910   23.3749 C.ar    1  UNL1        0.0147
     13 C           7.4104   -2.9420   22.5301 C.ar    1  UNL1        0.0013
     14 C           6.5696   -3.4115   21.3801 C.ar    1  UNL1        0.0016
     15 C           5.2686   -2.7301   21.0749 C.ar    1  UNL1        0.0204
     16 C           4.4277   -3.1996   19.9250 C.ar    1  UNL1        0.0984
     17 N           3.1267   -2.5182   19.6198 N.ar    1  UNL1       -0.2481
     18 C           2.7223    0.7418   26.9432 C.3     1  UNL1        0.1021
     19 C           1.2818    1.0973   26.7231 C.3     1  UNL1        0.0700
     20 C           0.2784    0.8721   27.8152 C.3     1  UNL1        0.2000
     21 O           0.7155    0.2913   29.1273 O.3     1  UNL1       -0.4772
     22 C           2.1561   -0.0642   29.3474 C.ar    1  UNL1        0.1356
     23 C           2.5932   -0.6450   30.6594 C.ar    1  UNL1        0.0323
     24 C           4.0338   -1.0005   30.8795 C.ar    1  UNL1       -0.0195
     25 C           5.0372   -0.7753   29.7876 C.ar    1  UNL1       -0.0043
     26 C           4.6000   -0.1945   28.4755 C.ar    1  UNL1        0.0000
     27 C           3.1595    0.1610   28.2554 C.ar    1  UNL1        0.0296
     28 C           4.4709   -1.5813   32.1917 C.3     1  UNL1        0.0225
     29 C           4.5967   -1.4735   33.6825 C.3     1  UNL1        0.0047
     30 C           5.1022   -2.6949   32.9735 C.3     1  UNL1        0.0047
     31 C          -1.0353    0.8453   28.5387 C.3     1  UNL1        0.2357
     32 F          -1.7205   -0.4629   28.8012 F       1  UNL1       -0.2303
     33 C          -0.6150    1.4436   26.7544 C.3     1  UNL1        0.2357
     34 F          -1.7914    2.2902   27.1407 F       1  UNL1       -0.2303
@<TRIPOS>BOND
     1     7     8    1
     2     8     9   ar
     3     9    10   ar
     4    10    11   ar
     5    11     1    1
     6     1     2   am
     7     2     3    2
     8     2     4   am
     9    18     4    1
    10    18    19    1
    11    19    20    1
    12    20    31    1
    13    31    32    1
    14    20    33    1
    15    33    34    1
    16    20    21    1
    17    21    22    1
    18    22    23   ar
    19    23    24   ar
    20    24    28    1
    21    28    29    1
    22    29    30    1
    23    24    25   ar
    24    25    26   ar
    25    26    27   ar
    26    11    12   ar
    27    12    13   ar
    28    13    14   ar
    29    14    15   ar
    30    15    16   ar
    31    16    17   ar
    32    17     8   ar
    33    15    10   ar
    34    27    18    1
    35    27    22   ar
    36    30    28    1
    37     1     5    1
    38     4     6    1
@<TRIPOS>MOLECULE
*****
 34 38 0 0 0
SMALL
GASTEIGER

@<TRIPOS>ATOM
      1 N           6.6740   -1.3433   28.4089 N.am    1  UNL1       -0.2683
      2 C           5.5065   -1.2196   27.4751 C.2     1  UNL1        0.3047
      3 O           4.1957   -1.8598   27.8243 O.2     1  UNL1       -0.2525
      4 N           5.6500   -0.4556   26.1923 N.am    1  UNL1       -0.2863
      5 H           7.5343   -0.9231   28.1798 H       1  UNL1        0.1564
      6 H           6.5103   -0.0354   25.9631 H       1  UNL1        0.1512
      7 C           8.5562   -6.3147   27.4126 C.3     1  UNL1        0.0521
      8 C           7.9781   -5.6448   28.6238 C.ar    1  UNL1        0.0594
      9 C           7.5434   -4.2110   28.5522 C.ar    1  UNL1        0.0160
     10 C           6.9653   -3.5412   29.7634 C.ar    1  UNL1        0.0162
     11 C           6.5305   -2.1073   29.6918 C.ar    1  UNL1        0.0516
     12 C           5.9524   -1.4374   30.9030 C.ar    1  UNL1        0.0147
     13 C           5.8090   -2.2015   32.1859 C.ar    1  UNL1        0.0013
     14 C           6.2437   -3.6353   32.2575 C.ar    1  UNL1        0.0016
     15 C           6.8218   -4.3051   31.0463 C.ar    1  UNL1        0.0204
     16 C           7.2565   -5.7389   31.1179 C.ar    1  UNL1        0.0984
     17 N           7.8347   -6.4088   29.9067 N.ar    1  UNL1       -0.2481
     18 C           4.4826   -0.3319   25.2586 C.3     1  UNL1        0.1021
     19 C           3.3559    0.6027   25.5861 C.3     1  UNL1        0.0700
     20 C           2.1885    0.7263   24.6523 C.3     1  UNL1        0.2000
     21 O           2.1478   -0.0845   23.3910 O.3     1  UNL1       -0.4772
     22 C           3.2744   -1.0191   23.0635 C.ar    1  UNL1        0.1356
     23 C           3.2336   -1.8300   21.8023 C.ar    1  UNL1        0.0323
     24 C           4.3603   -2.7645   21.4747 C.ar    1  UNL1       -0.0195
     25 C           5.5276   -2.8883   22.4085 C.ar    1  UNL1       -0.0043
     26 C           5.5684   -2.0774   23.6697 C.ar    1  UNL1        0.0000
     27 C           4.4418   -1.1428   23.9972 C.ar    1  UNL1        0.0296
     28 C           4.3195   -3.5754   20.2134 C.3     1  UNL1        0.0225
     29 C           3.7781   -4.7357   19.4320 C.3     1  UNL1        0.0047
     30 C           4.7902   -3.8197   18.8103 C.3     1  UNL1        0.0047
     31 C           0.8771    1.1873   24.0887 C.3     1  UNL1        0.2357
     32 F          -0.3401    1.2353   24.9639 F       1  UNL1       -0.2303
     33 C           1.7738    1.6973   25.7178 C.3     1  UNL1        0.2357
     34 F           1.7338    1.2637   27.1532 F       1  UNL1       -0.2303
@<TRIPOS>BOND
     1     7     8    1
     2     8     9   ar
     3     9    10   ar
     4    10    11   ar
     5    11     1    1
     6     1     2   am
     7     2     3    2
     8     2     4   am
     9    18     4    1
    10    18    19    1
    11    19    20    1
    12    20    31    1
    13    31    32    1
    14    20    33    1
    15    33    34    1
    16    20    21    1
    17    21    22    1
    18    22    23   ar
    19    23    24   ar
    20    24    28    1
    21    28    29    1
    22    29    30    1
    23    24    25   ar
    24    25    26   ar
    25    26    27   ar
    26    11    12   ar
    27    12    13   ar
    28    13    14   ar
    29    14    15   ar
    30    15    16   ar
    31    16    17   ar
    32    17     8   ar
    33    15    10   ar
    34    27    18    1
    35    27    22   ar
    36    30    28    1
    37     1     5    1
    38     4     6    1
@<TRIPOS>MOLECULE
*****
 34 38 0 0 0
SMALL
GASTEIGER

@<TRIPOS>ATOM
      1 N           4.0732    0.8459   27.7668 N.am    1  UNL1       -0.2683
      2 C           4.3664   -0.4952   27.1622 C.2     1  UNL1        0.3047
      3 O           3.3636   -1.6048   27.2766 O.2     1  UNL1       -0.2525
      4 N           5.6623   -0.7267   26.4432 N.am    1  UNL1       -0.2863
      5 H           4.7314    1.5742   27.6917 H       1  UNL1        0.1564
      6 H           6.3205    0.0016   26.3682 H       1  UNL1        0.1512
      7 C           0.3716    1.7567   23.9304 C.3     1  UNL1        0.0521
      8 C           0.3250    1.7026   25.4287 C.ar    1  UNL1        0.0594
      9 C           1.5744    1.4170   26.2080 C.ar    1  UNL1        0.0160
     10 C           1.5278    1.3630   27.7063 C.ar    1  UNL1        0.0162
     11 C           2.7773    1.0774   28.4857 C.ar    1  UNL1        0.0516
     12 C           2.7307    1.0233   29.9840 C.ar    1  UNL1        0.0147
     13 C           1.4347    1.2548   30.7029 C.ar    1  UNL1        0.0013
     14 C           0.1853    1.5403   29.9236 C.ar    1  UNL1        0.0016
     15 C           0.2319    1.5944   28.4253 C.ar    1  UNL1        0.0204
     16 C          -1.0175    1.8800   27.6459 C.ar    1  UNL1        0.0984
     17 N          -0.9709    1.9341   26.1476 N.ar    1  UNL1       -0.2481
     18 C           5.9554   -2.0678   25.8387 C.3     1  UNL1        0.1021
     19 C           6.6819   -3.1084   26.6383 C.3     1  UNL1        0.0700
     20 C           6.9750   -4.4495   26.0337 C.3     1  UNL1        0.2000
     21 O           6.5416   -4.7500   24.6295 O.3     1  UNL1       -0.4772
     22 C           5.8151   -3.7095   23.8299 C.ar    1  UNL1        0.1356
     23 C           5.3817   -4.0100   22.4257 C.ar    1  UNL1        0.0323
     24 C           4.6552   -2.9694   21.6260 C.ar    1  UNL1       -0.0195
     25 C           4.3621   -1.6283   22.2306 C.ar    1  UNL1       -0.0043
     26 C           4.7955   -1.3278   23.6348 C.ar    1  UNL1        0.0000
     27 C           5.5220   -2.3684   24.4344 C.ar    1  UNL1        0.0296
     28 C           4.2218   -3.2700   20.2218 C.3     1  UNL1        0.0225
     29 C           3.3828   -4.0609   19.2624 C.3     1  UNL1        0.0047
     30 C           4.3102   -2.9997   18.7490 C.3     1  UNL1        0.0047
     31 C           7.4795   -5.8558   25.9008 C.3     1  UNL1        0.2357
     32 F           6.6372   -7.0028   26.3751 F       1  UNL1       -0.2303
     33 C           7.5836   -4.6374   27.3918 C.3     1  UNL1        0.2357
     34 F           6.7006   -4.8101   28.5920 F       1  UNL1       -0.2303
@<TRIPOS>BOND
     1     7     8    1
     2     8     9   ar
     3     9    10   ar
     4    10    11   ar
     5    11     1    1
     6     1     2   am
     7     2     3    2
     8     2     4   am
     9    18     4    1
    10    18    19    1
    11    19    20    1
    12    20    31    1
    13    31    32    1
    14    20    33    1
    15    33    34    1
    16    20    21    1
    17    21    22    1
    18    22    23   ar
    19    23    24   ar
    20    24    28    1
    21    28    29    1
    22    29    30    1
    23    24    25   ar
    24    25    26   ar
    25    26    27   ar
    26    11    12   ar
    27    12    13   ar
    28    13    14   ar
    29    14    15   ar
    30    15    16   ar
    31    16    17   ar
    32    17     8   ar
    33    15    10   ar
    34    27    18    1
    35    27    22   ar
    36    30    28    1
    37     1     5    1
    38     4     6    1
@<TRIPOS>MOLECULE
*****
 34 38 0 0 0
SMALL
GASTEIGER

@<TRIPOS>ATOM
      1 N          -3.5103    2.7336   20.9760 N.am    1  UNL1       -0.2683
      2 C          -2.2483    2.9429   20.1927 C.2     1  UNL1        0.3047
      3 O          -2.2368    3.8870   19.0272 O.2     1  UNL1       -0.2525
      4 N          -0.9977    2.2081   20.5750 N.am    1  UNL1       -0.2863
      5 H          -3.5179    2.1139   21.7410 H       1  UNL1        0.1564
      6 H          -1.0052    1.5884   21.3400 H       1  UNL1        0.1512
      7 C          -5.2669    5.1510   25.4838 C.3     1  UNL1        0.0521
      8 C          -5.7657    5.0978   24.0701 C.ar    1  UNL1        0.0594
      9 C          -5.0139    4.3097   23.0388 C.ar    1  UNL1        0.0160
     10 C          -5.5127    4.2565   21.6251 C.ar    1  UNL1        0.0162
     11 C          -4.7609    3.4684   20.5937 C.ar    1  UNL1        0.0516
     12 C          -5.2596    3.4152   19.1801 C.ar    1  UNL1        0.0147
     13 C          -6.5102    4.1500   18.7978 C.ar    1  UNL1        0.0013
     14 C          -7.2620    4.9381   19.8292 C.ar    1  UNL1        0.0016
     15 C          -6.7632    4.9913   21.2429 C.ar    1  UNL1        0.0204
     16 C          -7.5150    5.7794   22.2742 C.ar    1  UNL1        0.0984
     17 N          -7.0162    5.8326   23.6879 N.ar    1  UNL1       -0.2481
     18 C           0.2642    2.4174   19.7917 C.3     1  UNL1        0.1021
     19 C           0.5889    3.7744   19.2411 C.3     1  UNL1        0.0700
     20 C           1.8509    3.9836   18.4578 C.3     1  UNL1        0.2000
     21 O           2.7883    2.8360   18.2252 O.3     1  UNL1       -0.4772
     22 C           2.4637    1.4790   18.7758 C.ar    1  UNL1        0.1356
     23 C           3.4010    0.3313   18.5432 C.ar    1  UNL1        0.0323
     24 C           3.0764   -1.0257   19.0938 C.ar    1  UNL1       -0.0195
     25 C           1.8144   -1.2350   19.8771 C.ar    1  UNL1       -0.0043
     26 C           0.8771   -0.0873   20.1097 C.ar    1  UNL1        0.0000
     27 C           1.2017    1.2697   19.5591 C.ar    1  UNL1        0.0296
     28 C           4.0138   -2.1734   18.8612 C.3     1  UNL1        0.0225
     29 C           5.3442   -2.6912   18.4009 C.3     1  UNL1        0.0047
     30 C           4.3071   -3.6433   18.9185 C.3     1  UNL1        0.0047
     31 C           2.9158    4.6750   17.6590 C.3     1  UNL1        0.2357
     32 F           4.3325    4.1855   17.7155 F       1  UNL1       -0.2303
     33 C           1.2834    5.3714   18.4130 C.3     1  UNL1        0.2357
     34 F           0.2532    5.7932   19.4184 F       1  UNL1       -0.2303
@<TRIPOS>BOND
     1     7     8    1
     2     8     9   ar
     3     9    10   ar
     4    10    11   ar
     5    11     1    1
     6     1     2   am
     7     2     3    2
     8     2     4   am
     9    18     4    1
    10    18    19    1
    11    19    20    1
    12    20    31    1
    13    31    32    1
    14    20    33    1
    15    33    34    1
    16    20    21    1
    17    21    22    1
    18    22    23   ar
    19    23    24   ar
    20    24    28    1
    21    28    29    1
    22    29    30    1
    23    24    25   ar
    24    25    26   ar
    25    26    27   ar
    26    11    12   ar
    27    12    13   ar
    28    13    14   ar
    29    14    15   ar
    30    15    16   ar
    31    16    17   ar
    32    17     8   ar
    33    15    10   ar
    34    27    18    1
    35    27    22   ar
    36    30    28    1
    37     1     5    1
    38     4     6    1
