@<TRIPOS>MOLECULE
*****
 31 34 0 0 0
SMALL
GASTEIGER

@<TRIPOS>ATOM
      1 O           9.1810   -7.0852   28.4199 O.2     1  UNL1       -0.2701
      2 C           7.8289   -6.4428   28.3241 C.2     1  UNL1        0.2459
      3 N           6.9203   -6.7748   27.1778 N.am    1  UNL1       -0.3005
      4 H           6.0329   -6.3532   27.1149 H       1  UNL1        0.1497
      5 C           7.3854   -5.4682   29.3746 C.ar    1  UNL1        0.0534
      6 C           7.3571   -5.8810   30.8165 C.ar    1  UNL1        0.0045
      7 C           6.9137   -4.9065   31.8670 C.ar    1  UNL1        0.0001
      8 C           6.4984   -3.5192   31.4757 C.ar    1  UNL1        0.0000
      9 C           6.5267   -3.1065   30.0339 C.ar    1  UNL1        0.0001
     10 C           6.9702   -4.0810   28.9833 C.ar    1  UNL1        0.0045
     11 C           6.0550   -2.5447   32.5262 C.ar    1  UNL1        0.0001
     12 C           6.9891   -1.4675   32.9922 C.ar    1  UNL1        0.0009
     13 C           6.5456   -0.4930   34.0428 C.ar    1  UNL1        0.0114
     14 C           5.1680   -0.5956   34.6273 C.ar    1  UNL1        0.0577
     15 CL          4.7246    0.3790   35.6779 Cl      1  UNL1       -0.0822
     16 C           4.2339   -1.6727   34.1613 C.ar    1  UNL1        0.0114
     17 C           4.6774   -2.6473   33.1108 C.ar    1  UNL1        0.0009
     18 C           7.3638   -7.7494   26.1272 C.3     1  UNL1        0.0944
     19 C           8.4703   -7.3827   25.1832 C.3     1  UNL1        0.0476
     20 C           8.2109   -6.4222   24.0605 C.ar    1  UNL1       -0.0205
     21 C           8.8987   -6.6081   22.7405 C.ar    1  UNL1       -0.0045
     22 C           8.6393   -5.6476   21.6180 C.ar    1  UNL1       -0.0032
     23 C           7.6922   -4.5013   21.8154 C.ar    1  UNL1       -0.0062
     24 C           7.0045   -4.3154   23.1354 C.ar    1  UNL1       -0.0032
     25 C           7.2638   -5.2759   24.2579 C.ar    1  UNL1       -0.0045
     26 C           7.4329   -3.5408   20.6927 C.3     1  UNL1        0.0991
     27 N           6.0294   -3.2981   20.2224 N.3     1  UNL1       -0.2690
     28 C           5.1855   -4.2559   19.4348 C.3     1  UNL1        0.0724
     29 C           3.8578   -3.6048   19.1827 C.3     1  UNL1        0.0188
     30 C           3.8812   -2.2446   19.8147 C.3     1  UNL1        0.0188
     31 C           5.2233   -2.0551   20.4572 C.3     1  UNL1        0.0724
@<TRIPOS>BOND
     1     1     2    2
     2     2     3   am
     3     3    18    1
     4    18    19    1
     5    19    20    1
     6    20    21   ar
     7    21    22   ar
     8    22    23   ar
     9    23    26    1
    10    26    27    1
    11    27    28    1
    12    28    29    1
    13    29    30    1
    14    30    31    1
    15    23    24   ar
    16    24    25   ar
    17     2     5    1
    18     5     6   ar
    19     6     7   ar
    20     7     8   ar
    21     8    11    1
    22    11    12   ar
    23    12    13   ar
    24    13    14   ar
    25    14    15    1
    26    14    16   ar
    27    16    17   ar
    28     8     9   ar
    29     9    10   ar
    30    25    20   ar
    31    10     5   ar
    32    31    27    1
    33    17    11   ar
    34     3     4    1
@<TRIPOS>MOLECULE
*****
 31 34 0 0 0
SMALL
GASTEIGER

@<TRIPOS>ATOM
      1 O         -15.3112    1.5413   18.8831 O.2     1  UNL1       -0.2701
      2 C         -15.6378    0.2613   19.5937 C.2     1  UNL1        0.2459
      3 N         -16.8802    0.1628   20.4283 N.am    1  UNL1       -0.3005
      4 H         -17.0946   -0.6773   20.8947 H       1  UNL1        0.1497
      5 C         -14.7220   -0.9202   19.4697 C.ar    1  UNL1        0.0534
      6 C         -15.0326   -2.1903   20.2048 C.ar    1  UNL1        0.0045
      7 C         -14.1168   -3.3717   20.0808 C.ar    1  UNL1        0.0001
      8 C         -12.8904   -3.2832   19.2216 C.ar    1  UNL1        0.0000
      9 C         -12.5799   -2.0131   18.4864 C.ar    1  UNL1        0.0001
     10 C         -13.4957   -0.8316   18.6105 C.ar    1  UNL1        0.0045
     11 C         -11.9746   -4.4646   19.0976 C.ar    1  UNL1        0.0001
     12 C         -10.4938   -4.2566   18.9794 C.ar    1  UNL1        0.0009
     13 C          -9.5780   -5.4381   18.8553 C.ar    1  UNL1        0.0114
     14 C         -10.1430   -6.8276   18.8495 C.ar    1  UNL1        0.0577
     15 CL         -9.2271   -8.0091   18.7254 Cl      1  UNL1       -0.0822
     16 C         -11.6237   -7.0357   18.9677 C.ar    1  UNL1        0.0114
     17 C         -12.5396   -5.8542   19.0917 C.ar    1  UNL1        0.0009
     18 C         -17.7961    1.3443   20.5524 C.3     1  UNL1        0.0944
     19 C         -18.0671    1.9449   21.8999 C.3     1  UNL1        0.0476
     20 C         -17.1363    2.9786   22.4613 C.ar    1  UNL1       -0.0205
     21 C         -17.1684    3.3003   23.9260 C.ar    1  UNL1       -0.0045
     22 C         -16.2376    4.3340   24.4873 C.ar    1  UNL1       -0.0032
     23 C         -15.2748    5.0459   23.5839 C.ar    1  UNL1       -0.0062
     24 C         -15.2427    4.7242   22.1192 C.ar    1  UNL1       -0.0032
     25 C         -16.1735    3.6905   21.5579 C.ar    1  UNL1       -0.0045
     26 C         -14.3440    6.0797   24.1453 C.3     1  UNL1        0.0991
     27 N         -12.9148    5.7256   24.4317 N.3     1  UNL1       -0.2690
     28 C         -12.3965    4.3606   24.7753 C.3     1  UNL1        0.0724
     29 C         -10.9144    4.4657   24.9807 C.3     1  UNL1        0.0188
     30 C         -10.5166    5.8957   24.7640 C.3     1  UNL1        0.0188
     31 C         -11.7530    6.6743   24.4247 C.3     1  UNL1        0.0724
@<TRIPOS>BOND
     1     1     2    2
     2     2     3   am
     3     3    18    1
     4    18    19    1
     5    19    20    1
     6    20    21   ar
     7    21    22   ar
     8    22    23   ar
     9    23    26    1
    10    26    27    1
    11    27    28    1
    12    28    29    1
    13    29    30    1
    14    30    31    1
    15    23    24   ar
    16    24    25   ar
    17     2     5    1
    18     5     6   ar
    19     6     7   ar
    20     7     8   ar
    21     8    11    1
    22    11    12   ar
    23    12    13   ar
    24    13    14   ar
    25    14    15    1
    26    14    16   ar
    27    16    17   ar
    28     8     9   ar
    29     9    10   ar
    30    25    20   ar
    31    10     5   ar
    32    31    27    1
    33    17    11   ar
    34     3     4    1
@<TRIPOS>MOLECULE
*****
 31 34 0 0 0
SMALL
GASTEIGER

@<TRIPOS>ATOM
      1 O           8.2977   -5.4294   21.2804 O.2     1  UNL1       -0.2701
      2 C           7.3448   -4.7078   22.1867 C.2     1  UNL1        0.2459
      3 N           7.3917   -4.9457   23.6669 N.am    1  UNL1       -0.3005
      4 H           6.7662   -4.4721   24.2616 H       1  UNL1        0.1497
      5 C           6.3450   -3.7482   21.6126 C.ar    1  UNL1        0.0534
      6 C           6.6281   -3.0597   20.3103 C.ar    1  UNL1        0.0045
      7 C           5.6283   -2.1002   19.7363 C.ar    1  UNL1        0.0001
      8 C           4.3453   -1.8290   20.4645 C.ar    1  UNL1        0.0000
      9 C           4.0621   -2.5174   21.7668 C.ar    1  UNL1        0.0001
     10 C           5.0619   -3.4770   22.3409 C.ar    1  UNL1        0.0045
     11 C           3.3455   -0.8694   19.8905 C.ar    1  UNL1        0.0001
     12 C           1.9132   -0.9249   20.3327 C.ar    1  UNL1        0.0009
     13 C           0.9133    0.0347   19.7587 C.ar    1  UNL1        0.0114
     14 C           1.3458    1.0498   18.7425 C.ar    1  UNL1        0.0577
     15 CL          0.3459    2.0094   18.1684 Cl      1  UNL1       -0.0822
     16 C           2.7780    1.1052   18.3003 C.ar    1  UNL1        0.0114
     17 C           3.7779    0.1456   18.8743 C.ar    1  UNL1        0.0009
     18 C           8.3915   -5.9053   24.2410 C.3     1  UNL1        0.0944
     19 C           7.9443   -6.9731   25.1948 C.3     1  UNL1        0.0476
     20 C           7.7146   -6.6402   26.6393 C.ar    1  UNL1       -0.0205
     21 C           6.6008   -5.7136   27.0275 C.ar    1  UNL1       -0.0045
     22 C           6.3712   -5.3808   28.4719 C.ar    1  UNL1       -0.0032
     23 C           7.2554   -5.9745   29.5282 C.ar    1  UNL1       -0.0062
     24 C           8.3692   -6.9011   29.1399 C.ar    1  UNL1       -0.0032
     25 C           8.5988   -7.2340   27.6955 C.ar    1  UNL1       -0.0045
     26 C           7.0258   -5.6416   30.9727 C.3     1  UNL1        0.0991
     27 N           7.5392   -4.3495   31.5354 N.3     1  UNL1       -0.2690
     28 C           6.7105   -3.2752   32.1750 C.3     1  UNL1        0.0724
     29 C           7.6306   -2.1665   32.5922 C.3     1  UNL1        0.0188
     30 C           9.0281   -2.5556   32.2104 C.3     1  UNL1        0.0188
     31 C           8.9716   -3.9047   31.5572 C.3     1  UNL1        0.0724
@<TRIPOS>BOND
     1     1     2    2
     2     2     3   am
     3     3    18    1
     4    18    19    1
     5    19    20    1
     6    20    21   ar
     7    21    22   ar
     8    22    23   ar
     9    23    26    1
    10    26    27    1
    11    27    28    1
    12    28    29    1
    13    29    30    1
    14    30    31    1
    15    23    24   ar
    16    24    25   ar
    17     2     5    1
    18     5     6   ar
    19     6     7   ar
    20     7     8   ar
    21     8    11    1
    22    11    12   ar
    23    12    13   ar
    24    13    14   ar
    25    14    15    1
    26    14    16   ar
    27    16    17   ar
    28     8     9   ar
    29     9    10   ar
    30    25    20   ar
    31    10     5   ar
    32    31    27    1
    33    17    11   ar
    34     3     4    1
@<TRIPOS>MOLECULE
*****
 31 34 0 0 0
SMALL
GASTEIGER

@<TRIPOS>ATOM
      1 O           2.3655    1.7821   28.8676 O.2     1  UNL1       -0.2701
      2 C           2.9145    0.4241   28.5442 C.2     1  UNL1        0.2459
      3 N           3.3283   -0.5005   29.6504 N.am    1  UNL1       -0.3005
      4 H           3.6886   -1.3917   29.4382 H       1  UNL1        0.1497
      5 C           3.0496   -0.0092   27.1146 C.ar    1  UNL1        0.0534
      6 C           3.8877   -1.2043   26.7691 C.ar    1  UNL1        0.0045
      7 C           4.0229   -1.6377   25.3395 C.ar    1  UNL1        0.0001
      8 C           3.3200   -0.8759   24.2552 C.ar    1  UNL1        0.0000
      9 C           2.4819    0.3191   24.6006 C.ar    1  UNL1        0.0001
     10 C           2.3467    0.7525   26.0303 C.ar    1  UNL1        0.0045
     11 C           3.4551   -1.3093   22.8256 C.ar    1  UNL1        0.0001
     12 C           2.7205   -0.5716   21.7456 C.ar    1  UNL1        0.0009
     13 C           2.8556   -1.0050   20.3160 C.ar    1  UNL1        0.0114
     14 C           3.7254   -2.1760   19.9662 C.ar    1  UNL1        0.0577
     15 CL          3.8605   -2.6093   18.5365 Cl      1  UNL1       -0.0822
     16 C           4.4600   -2.9136   21.0461 C.ar    1  UNL1        0.0114
     17 C           4.3248   -2.4803   22.4758 C.ar    1  UNL1        0.0009
     18 C           3.1931   -0.0672   31.0802 C.3     1  UNL1        0.0944
     19 C           4.1439   -0.5905   32.1155 C.3     1  UNL1        0.0476
     20 C           4.0921   -0.0602   33.5178 C.ar    1  UNL1       -0.0205
     21 C           3.3921    1.2350   33.8044 C.ar    1  UNL1       -0.0045
     22 C           3.3403    1.7653   35.2065 C.ar    1  UNL1       -0.0032
     23 C           3.9885    1.0002   36.3221 C.ar    1  UNL1       -0.0062
     24 C           4.6885   -0.2951   36.0355 C.ar    1  UNL1       -0.0032
     25 C           4.7403   -0.8253   34.6333 C.ar    1  UNL1       -0.0045
     26 C           3.9367    1.5305   37.7244 C.3     1  UNL1        0.0991
     27 N           2.6293    1.5856   38.4575 N.3     1  UNL1       -0.2690
     28 C           1.9639    0.4399   39.1608 C.3     1  UNL1        0.0724
     29 C           0.6811    0.9422   39.7541 C.3     1  UNL1        0.0188
     30 C           0.5536    2.3985   39.4175 C.3     1  UNL1        0.0188
     31 C           1.7577    2.7960   38.6162 C.3     1  UNL1        0.0724
@<TRIPOS>BOND
     1     1     2    2
     2     2     3   am
     3     3    18    1
     4    18    19    1
     5    19    20    1
     6    20    21   ar
     7    21    22   ar
     8    22    23   ar
     9    23    26    1
    10    26    27    1
    11    27    28    1
    12    28    29    1
    13    29    30    1
    14    30    31    1
    15    23    24   ar
    16    24    25   ar
    17     2     5    1
    18     5     6   ar
    19     6     7   ar
    20     7     8   ar
    21     8    11    1
    22    11    12   ar
    23    12    13   ar
    24    13    14   ar
    25    14    15    1
    26    14    16   ar
    27    16    17   ar
    28     8     9   ar
    29     9    10   ar
    30    25    20   ar
    31    10     5   ar
    32    31    27    1
    33    17    11   ar
    34     3     4    1
@<TRIPOS>MOLECULE
*****
 31 34 0 0 0
SMALL
GASTEIGER

@<TRIPOS>ATOM
      1 O         -15.3186    1.6639   18.8774 O.2     1  UNL1       -0.2701
      2 C         -15.7313    0.3299   19.4251 C.2     1  UNL1        0.2459
      3 N         -17.0743    0.1681   20.0731 N.am    1  UNL1       -0.3005
      4 H         -17.3452   -0.7075   20.4326 H       1  UNL1        0.1497
      5 C         -14.8009   -0.8424   19.3248 C.ar    1  UNL1        0.0534
      6 C         -15.1071   -2.1088   20.0682 C.ar    1  UNL1        0.0045
      7 C         -14.1767   -3.2810   19.9678 C.ar    1  UNL1        0.0001
      8 C         -12.9401   -3.1870   19.1242 C.ar    1  UNL1        0.0000
      9 C         -12.6338   -1.9207   18.3808 C.ar    1  UNL1        0.0001
     10 C         -13.5642   -0.7484   18.4811 C.ar    1  UNL1        0.0045
     11 C         -12.0097   -4.3593   19.0238 C.ar    1  UNL1        0.0001
     12 C         -12.5431   -5.7543   19.1633 C.ar    1  UNL1        0.0009
     13 C         -11.6127   -6.9266   19.0630 C.ar    1  UNL1        0.0114
     14 C         -10.1489   -6.7039   18.8232 C.ar    1  UNL1        0.0577
     15 CL         -9.2185   -7.8763   18.7229 Cl      1  UNL1       -0.0822
     16 C          -9.6154   -5.3090   18.6838 C.ar    1  UNL1        0.0114
     17 C         -10.5458   -4.1366   18.7841 C.ar    1  UNL1        0.0009
     18 C         -18.0048    1.3404   20.1734 C.3     1  UNL1        0.0944
     19 C         -18.6989    1.6382   21.4694 C.3     1  UNL1        0.0476
     20 C         -18.1764    2.7190   22.3689 C.ar    1  UNL1       -0.0205
     21 C         -16.8240    3.3165   22.1162 C.ar    1  UNL1       -0.0045
     22 C         -16.3015    4.3972   23.0157 C.ar    1  UNL1       -0.0032
     23 C         -17.1315    4.8802   24.1680 C.ar    1  UNL1       -0.0062
     24 C         -18.4839    4.2827   24.4208 C.ar    1  UNL1       -0.0032
     25 C         -19.0063    3.2020   23.5213 C.ar    1  UNL1       -0.0045
     26 C         -16.6090    5.9609   25.0676 C.3     1  UNL1        0.0991
     27 N         -16.6379    5.7770   26.5560 N.3     1  UNL1       -0.2690
     28 C         -17.7007    6.2819   27.4862 C.3     1  UNL1        0.0724
     29 C         -17.3287    5.8729   28.8806 C.3     1  UNL1        0.0188
     30 C         -16.0359    5.1152   28.8121 C.3     1  UNL1        0.0188
     31 C         -15.6090    5.0560   27.3754 C.3     1  UNL1        0.0724
@<TRIPOS>BOND
     1     1     2    2
     2     2     3   am
     3     3    18    1
     4    18    19    1
     5    19    20    1
     6    20    21   ar
     7    21    22   ar
     8    22    23   ar
     9    23    26    1
    10    26    27    1
    11    27    28    1
    12    28    29    1
    13    29    30    1
    14    30    31    1
    15    23    24   ar
    16    24    25   ar
    17     2     5    1
    18     5     6   ar
    19     6     7   ar
    20     7     8   ar
    21     8    11    1
    22    11    12   ar
    23    12    13   ar
    24    13    14   ar
    25    14    15    1
    26    14    16   ar
    27    16    17   ar
    28     8     9   ar
    29     9    10   ar
    30    25    20   ar
    31    10     5   ar
    32    31    27    1
    33    17    11   ar
    34     3     4    1
@<TRIPOS>MOLECULE
*****
 31 34 0 0 0
SMALL
GASTEIGER

@<TRIPOS>ATOM
      1 O           7.8124   -6.1350   27.8707 O.2     1  UNL1       -0.2701
      2 C           7.0841   -4.8245   27.8237 C.2     1  UNL1        0.2459
      3 N           6.6551   -4.2517   26.5054 N.am    1  UNL1       -0.3005
      4 H           6.1771   -3.3916   26.4746 H       1  UNL1        0.1497
      5 C           6.7849   -4.0867   29.0949 C.ar    1  UNL1        0.0534
      6 C           6.3396   -2.6552   29.0443 C.ar    1  UNL1        0.0045
      7 C           6.0403   -1.9175   30.3156 C.ar    1  UNL1        0.0001
      8 C           6.1863   -2.6112   31.6375 C.ar    1  UNL1        0.0000
      9 C           6.6316   -4.0426   31.6881 C.ar    1  UNL1        0.0001
     10 C           6.9309   -4.7804   30.4168 C.ar    1  UNL1        0.0045
     11 C           5.8871   -1.8734   32.9087 C.ar    1  UNL1        0.0001
     12 C           4.5480   -2.0264   33.5673 C.ar    1  UNL1        0.0009
     13 C           4.2488   -1.2887   34.8385 C.ar    1  UNL1        0.0114
     14 C           5.2885   -0.3979   35.4513 C.ar    1  UNL1        0.0577
     15 CL          4.9892    0.3399   36.7226 Cl      1  UNL1       -0.0822
     16 C           6.6275   -0.2449   34.7928 C.ar    1  UNL1        0.0114
     17 C           6.9268   -0.9827   33.5215 C.ar    1  UNL1        0.0009
     18 C           6.9543   -4.9895   25.2341 C.3     1  UNL1        0.0944
     19 C           7.4560   -4.2427   24.0339 C.3     1  UNL1        0.0476
     20 C           6.5355   -3.9703   22.8812 C.ar    1  UNL1       -0.0205
     21 C           7.0307   -4.1232   21.4736 C.ar    1  UNL1       -0.0045
     22 C           6.1102   -3.8508   20.3211 C.ar    1  UNL1       -0.0032
     23 C           4.6946   -3.4255   20.5761 C.ar    1  UNL1       -0.0062
     24 C           4.1994   -3.2725   21.9837 C.ar    1  UNL1       -0.0032
     25 C           5.1199   -3.5449   23.1362 C.ar    1  UNL1       -0.0045
     26 C           3.7741   -3.1531   19.4234 C.3     1  UNL1        0.0991
     27 N           3.7613   -1.7994   18.7775 N.3     1  UNL1       -0.2690
     28 C           4.6505   -1.3488   17.6567 C.3     1  UNL1        0.0724
     29 C           4.2958    0.0705   17.3255 C.3     1  UNL1        0.0188
     30 C           3.1873    0.4972   18.2417 C.3     1  UNL1        0.0188
     31 C           2.8570   -0.6585   19.1391 C.3     1  UNL1        0.0724
@<TRIPOS>BOND
     1     1     2    2
     2     2     3   am
     3     3    18    1
     4    18    19    1
     5    19    20    1
     6    20    21   ar
     7    21    22   ar
     8    22    23   ar
     9    23    26    1
    10    26    27    1
    11    27    28    1
    12    28    29    1
    13    29    30    1
    14    30    31    1
    15    23    24   ar
    16    24    25   ar
    17     2     5    1
    18     5     6   ar
    19     6     7   ar
    20     7     8   ar
    21     8    11    1
    22    11    12   ar
    23    12    13   ar
    24    13    14   ar
    25    14    15    1
    26    14    16   ar
    27    16    17   ar
    28     8     9   ar
    29     9    10   ar
    30    25    20   ar
    31    10     5   ar
    32    31    27    1
    33    17    11   ar
    34     3     4    1
@<TRIPOS>MOLECULE
*****
 31 34 0 0 0
SMALL
GASTEIGER

@<TRIPOS>ATOM
      1 O           4.0625    1.0270   27.7284 O.2     1  UNL1       -0.2701
      2 C           3.1370    0.0788   27.0253 C.2     1  UNL1        0.2459
      3 N           2.1361   -0.7143   27.8122 N.am    1  UNL1       -0.3005
      4 H           1.5287   -1.3366   27.3507 H       1  UNL1        0.1497
      5 C           3.2124   -0.0764   25.5353 C.ar    1  UNL1        0.0534
      6 C           3.9331   -1.2490   24.9388 C.ar    1  UNL1        0.0045
      7 C           4.0085   -1.4041   23.4488 C.ar    1  UNL1        0.0001
      8 C           3.3632   -0.3868   22.5552 C.ar    1  UNL1        0.0000
      9 C           2.6424    0.7857   23.1516 C.ar    1  UNL1        0.0001
     10 C           2.5670    0.9409   24.6417 C.ar    1  UNL1        0.0045
     11 C           3.4386   -0.5420   21.0652 C.ar    1  UNL1        0.0001
     12 C           3.6472   -1.8995   20.4620 C.ar    1  UNL1        0.0009
     13 C           3.7226   -2.0547   18.9720 C.ar    1  UNL1        0.0114
     14 C           3.5893   -0.8524   18.0851 C.ar    1  UNL1        0.0577
     15 CL          3.6647   -1.0076   16.5950 Cl      1  UNL1       -0.0822
     16 C           3.3807    0.5051   18.6881 C.ar    1  UNL1        0.0114
     17 C           3.3053    0.6603   20.1782 C.ar    1  UNL1        0.0009
     18 C           2.0607   -0.5591   29.3023 C.3     1  UNL1        0.0944
     19 C           1.2694    0.5662   29.9001 C.3     1  UNL1        0.0476
     20 C           0.5725    1.5500   29.0075 C.ar    1  UNL1       -0.0205
     21 C           1.0780    2.9585   28.9047 C.ar    1  UNL1       -0.0045
     22 C           0.3811    3.9421   28.0122 C.ar    1  UNL1       -0.0032
     23 C          -0.8214    3.5174   27.2225 C.ar    1  UNL1       -0.0062
     24 C          -1.3269    2.1089   27.3253 C.ar    1  UNL1       -0.0032
     25 C          -0.6300    1.1252   28.2178 C.ar    1  UNL1       -0.0045
     26 C          -1.5183    4.5012   26.3300 C.3     1  UNL1        0.0991
     27 N          -2.8054    4.1238   25.6586 N.3     1  UNL1       -0.2690
     28 C          -4.1757    4.2219   26.2608 C.3     1  UNL1        0.0724
     29 C          -5.1655    3.7408   25.2415 C.3     1  UNL1        0.0188
     30 C          -4.4069    3.3453   24.0094 C.3     1  UNL1        0.0188
     31 C          -2.9483    3.5820   24.2672 C.3     1  UNL1        0.0724
@<TRIPOS>BOND
     1     1     2    2
     2     2     3   am
     3     3    18    1
     4    18    19    1
     5    19    20    1
     6    20    21   ar
     7    21    22   ar
     8    22    23   ar
     9    23    26    1
    10    26    27    1
    11    27    28    1
    12    28    29    1
    13    29    30    1
    14    30    31    1
    15    23    24   ar
    16    24    25   ar
    17     2     5    1
    18     5     6   ar
    19     6     7   ar
    20     7     8   ar
    21     8    11    1
    22    11    12   ar
    23    12    13   ar
    24    13    14   ar
    25    14    15    1
    26    14    16   ar
    27    16    17   ar
    28     8     9   ar
    29     9    10   ar
    30    25    20   ar
    31    10     5   ar
    32    31    27    1
    33    17    11   ar
    34     3     4    1
@<TRIPOS>MOLECULE
*****
 31 34 0 0 0
SMALL
GASTEIGER

@<TRIPOS>ATOM
      1 O           2.5586    2.8081   26.9836 O.2     1  UNL1       -0.2701
      2 C           1.4696    1.8235   26.6759 C.2     1  UNL1        0.2459
      3 N           1.7351    0.3516   26.7899 N.am    1  UNL1       -0.3005
      4 H           1.0204   -0.2946   26.5880 H       1  UNL1        0.1497
      5 C           0.1151    2.3107   26.2541 C.ar    1  UNL1        0.0534
      6 C          -0.1938    2.5009   24.7985 C.ar    1  UNL1        0.0045
      7 C          -1.5483    2.9881   24.3767 C.ar    1  UNL1        0.0001
      8 C          -2.5939    3.2853   25.4104 C.ar    1  UNL1        0.0000
      9 C          -2.2850    3.0951   26.8659 C.ar    1  UNL1        0.0001
     10 C          -0.9305    2.6078   27.2877 C.ar    1  UNL1        0.0045
     11 C          -3.9483    3.7725   24.9886 C.ar    1  UNL1        0.0001
     12 C          -4.4859    3.4150   23.6346 C.ar    1  UNL1        0.0009
     13 C          -5.8404    3.9022   23.2128 C.ar    1  UNL1        0.0114
     14 C          -6.6573    4.7470   24.1450 C.ar    1  UNL1        0.0577
     15 CL         -8.0119    5.2343   23.7231 Cl      1  UNL1       -0.0822
     16 C          -6.1198    5.1046   25.4989 C.ar    1  UNL1        0.0114
     17 C          -4.7653    4.6173   25.9208 C.ar    1  UNL1        0.0009
     18 C           3.0896   -0.1357   27.2117 C.3     1  UNL1        0.0944
     19 C           4.1888   -0.2653   26.1994 C.3     1  UNL1        0.0476
     20 C           3.8579   -0.5623   24.7668 C.ar    1  UNL1       -0.0205
     21 C           4.2632   -1.8725   24.1595 C.ar    1  UNL1       -0.0045
     22 C           3.9323   -2.1695   22.7269 C.ar    1  UNL1       -0.0032
     23 C           3.1960   -1.1561   21.9016 C.ar    1  UNL1       -0.0062
     24 C           2.7908    0.1542   22.5089 C.ar    1  UNL1       -0.0032
     25 C           3.1217    0.4511   23.9415 C.ar    1  UNL1       -0.0045
     26 C           2.8651   -1.4531   20.4690 C.3     1  UNL1        0.0991
     27 N           3.7279   -2.3920   19.6791 N.3     1  UNL1       -0.2690
     28 C           3.4961   -3.8631   19.5003 C.3     1  UNL1        0.0724
     29 C           4.5988   -4.4049   18.6399 C.3     1  UNL1        0.0188
     30 C           5.5123   -3.2686   18.2869 C.3     1  UNL1        0.0188
     31 C           4.9739   -2.0246   18.9291 C.3     1  UNL1        0.0724
@<TRIPOS>BOND
     1     1     2    2
     2     2     3   am
     3     3    18    1
     4    18    19    1
     5    19    20    1
     6    20    21   ar
     7    21    22   ar
     8    22    23   ar
     9    23    26    1
    10    26    27    1
    11    27    28    1
    12    28    29    1
    13    29    30    1
    14    30    31    1
    15    23    24   ar
    16    24    25   ar
    17     2     5    1
    18     5     6   ar
    19     6     7   ar
    20     7     8   ar
    21     8    11    1
    22    11    12   ar
    23    12    13   ar
    24    13    14   ar
    25    14    15    1
    26    14    16   ar
    27    16    17   ar
    28     8     9   ar
    29     9    10   ar
    30    25    20   ar
    31    10     5   ar
    32    31    27    1
    33    17    11   ar
    34     3     4    1
@<TRIPOS>MOLECULE
*****
 31 34 0 0 0
SMALL
GASTEIGER

@<TRIPOS>ATOM
      1 O           0.9511    3.0449   26.7435 O.2     1  UNL1       -0.2701
      2 C           1.9044    1.9083   26.9654 C.2     1  UNL1        0.2459
      3 N           2.4656    1.6562   28.3334 N.am    1  UNL1       -0.3005
      4 H           3.0913    0.9102   28.4789 H       1  UNL1        0.1497
      5 C           2.2966    1.0238   25.8192 C.ar    1  UNL1        0.0534
      6 C           1.7078    1.2537   24.4588 C.ar    1  UNL1        0.0045
      7 C           2.1000    0.3692   23.3126 C.ar    1  UNL1        0.0001
      8 C           3.0810   -0.7453   23.5267 C.ar    1  UNL1        0.0000
      9 C           3.6697   -0.9752   24.8870 C.ar    1  UNL1        0.0001
     10 C           3.2775   -0.0906   26.0333 C.ar    1  UNL1        0.0045
     11 C           3.4731   -1.6298   22.3805 C.ar    1  UNL1        0.0001
     12 C           4.3556   -2.8192   22.6188 C.ar    1  UNL1        0.0009
     13 C           4.7477   -3.7037   21.4726 C.ar    1  UNL1        0.0114
     14 C           4.2576   -3.3989   20.0881 C.ar    1  UNL1        0.0577
     15 CL          4.6498   -4.2835   18.9419 Cl      1  UNL1       -0.0822
     16 C           3.3752   -2.2095   19.8498 C.ar    1  UNL1        0.0114
     17 C           2.9830   -1.3249   20.9960 C.ar    1  UNL1        0.0009
     18 C           2.0734    2.5407   29.4796 C.3     1  UNL1        0.0944
     19 C           1.2590    1.9860   30.6106 C.3     1  UNL1        0.0476
     20 C           1.5587    2.3957   32.0221 C.ar    1  UNL1       -0.0205
     21 C           0.9232    3.6269   32.5967 C.ar    1  UNL1       -0.0045
     22 C           1.2229    4.0366   34.0082 C.ar    1  UNL1       -0.0032
     23 C           2.1581    3.2149   34.8451 C.ar    1  UNL1       -0.0062
     24 C           2.7936    1.9837   34.2705 C.ar    1  UNL1       -0.0032
     25 C           2.4939    1.5741   32.8590 C.ar    1  UNL1       -0.0045
     26 C           2.4578    3.6246   36.2566 C.3     1  UNL1        0.0991
     27 N           2.0723    2.7281   37.3957 N.3     1  UNL1       -0.2690
     28 C           0.9477    2.9622   38.3604 C.3     1  UNL1        0.0724
     29 C           0.9241    1.8189   39.3310 C.3     1  UNL1        0.0188
     30 C           2.0340    0.8780   38.9662 C.3     1  UNL1        0.0188
     31 C           2.7436    1.4400   37.7702 C.3     1  UNL1        0.0724
@<TRIPOS>BOND
     1     1     2    2
     2     2     3   am
     3     3    18    1
     4    18    19    1
     5    19    20    1
     6    20    21   ar
     7    21    22   ar
     8    22    23   ar
     9    23    26    1
    10    26    27    1
    11    27    28    1
    12    28    29    1
    13    29    30    1
    14    30    31    1
    15    23    24   ar
    16    24    25   ar
    17     2     5    1
    18     5     6   ar
    19     6     7   ar
    20     7     8   ar
    21     8    11    1
    22    11    12   ar
    23    12    13   ar
    24    13    14   ar
    25    14    15    1
    26    14    16   ar
    27    16    17   ar
    28     8     9   ar
    29     9    10   ar
    30    25    20   ar
    31    10     5   ar
    32    31    27    1
    33    17    11   ar
    34     3     4    1
