@<TRIPOS>MOLECULE
*****
 30 34 0 0 0
SMALL
GASTEIGER

@<TRIPOS>ATOM
      1 C          -4.3460  -16.7850   24.7112 C.3     1  UNL1        0.0294
      2 C          -5.4616  -15.8605   25.0998 C.3     1  UNL1        0.0666
      3 S          -6.1905  -15.0803   24.0463 S.3     1  UNL1       -0.0756
      4 C          -9.6145  -16.6485   23.1067 C.ar    1  UNL1        0.2029
      5 N          -9.0236  -16.4077   21.7492 N.ar    1  UNL1       -0.1250
      6 N          -7.6691  -15.7909   21.9359 N.ar    1  UNL1       -0.1220
      7 C          -7.4228  -15.6506   23.4089 C.ar    1  UNL1        0.1933
      8 N          -8.6250  -16.1805   24.1325 N.ar    1  UNL1       -0.2860
      9 C          -8.8062  -16.2333   25.6206 C.3     1  UNL1        0.1341
     10 C         -12.3524  -16.1085   21.4149 C.3     1  UNL1        0.0556
     11 C         -12.2172  -17.0031   22.6113 C.ar    1  UNL1        0.1001
     12 N         -13.3167  -17.8067   23.2402 N.ar    1  UNL1       -0.2085
     13 C         -12.7378  -18.5515   24.4064 C.ar    1  UNL1        0.2849
     14 O         -11.2805  -18.2082   24.4984 O.2     1  UNL1       -0.4283
     15 C         -10.9587  -17.2513   23.3890 C.ar    1  UNL1        0.1964
     16 C          -3.7067  -16.6626   23.3598 C.3     1  UNL1        0.0730
     17 N          -3.6959  -17.8366   22.4261 N.3     1  UNL1       -0.2726
     18 C          -2.4766  -18.5412   21.9098 C.3     1  UNL1        0.0721
     19 C          -2.9297  -19.6521   21.0094 C.3     1  UNL1        0.0190
     20 C          -4.4291  -19.6340   20.9693 C.3     1  UNL1        0.0201
     21 C          -4.5751  -20.7995   20.0365 C.3     1  UNL1        0.0061
     22 C          -5.7944  -20.0949   20.5529 C.3     1  UNL1        0.0237
     23 C          -4.9026  -18.5119   21.8449 C.3     1  UNL1        0.0724
     24 C          -7.2867  -19.9541   20.6106 C.ar    1  UNL1       -0.0223
     25 C          -8.0012  -20.0753   21.9239 C.ar    1  UNL1       -0.0020
     26 C          -9.4935  -19.9345   21.9816 C.ar    1  UNL1        0.0293
     27 C         -10.2712  -19.6726   20.7260 C.ar    1  UNL1        0.1401
     28 F         -11.7634  -19.5319   20.7838 F       1  UNL1       -0.2042
     29 C          -9.5566  -19.5515   19.4127 C.ar    1  UNL1        0.0293
     30 C          -8.0644  -19.6922   19.3550 C.ar    1  UNL1       -0.0020
@<TRIPOS>BOND
     1    10    11    1
     2    11    12   ar
     3    12    13   ar
     4    13    14   ar
     5    14    15   ar
     6    15     4    1
     7     4     5   ar
     8     5     6   ar
     9     6     7   ar
    10     7     3    1
    11     3     2    1
    12     2     1    1
    13     1    16    1
    14    16    17    1
    15    17    18    1
    16    18    19    1
    17    20    19    1
    18    20    21    1
    19    21    22    1
    20    22    24    1
    21    24    25   ar
    22    25    26   ar
    23    26    27   ar
    24    27    28    1
    25    27    29   ar
    26    29    30   ar
    27    20    23    1
    28     7     8   ar
    29     8     9    1
    30    15    11   ar
    31     8     4   ar
    32    23    17    1
    33    22    20    1
    34    30    24   ar
@<TRIPOS>MOLECULE
*****
 30 34 0 0 0
SMALL
GASTEIGER

@<TRIPOS>ATOM
      1 C          -4.3899  -16.7255   24.2501 C.3     1  UNL1        0.0294
      2 C          -5.3522  -15.5908   24.0590 C.3     1  UNL1        0.0666
      3 S          -6.5735  -15.4894   24.9240 S.3     1  UNL1       -0.0756
      4 C          -9.8217  -16.3427   22.9780 C.ar    1  UNL1        0.2029
      5 N         -10.0513  -17.0811   24.2634 N.ar    1  UNL1       -0.1250
      6 N          -8.8625  -16.8513   25.1488 N.ar    1  UNL1       -0.1220
      7 C          -7.8981  -15.9709   24.4106 C.ar    1  UNL1        0.1933
      8 N          -8.4909  -15.6566   23.0691 N.ar    1  UNL1       -0.2860
      9 C          -7.8631  -14.8055   22.0053 C.3     1  UNL1        0.1341
     10 C         -12.9837  -17.1486   23.0197 C.3     1  UNL1        0.0556
     11 C         -12.2118  -16.6687   21.8265 C.ar    1  UNL1        0.1001
     12 N         -12.7577  -16.4750   20.4428 N.ar    1  UNL1       -0.2085
     13 C         -11.6417  -15.9848   19.5686 C.ar    1  UNL1        0.2849
     14 O         -10.4061  -15.8756   20.4119 O.2     1  UNL1       -0.4283
     15 C         -10.7584  -16.2983   21.8073 C.ar    1  UNL1        0.1964
     16 C          -3.2763  -16.9382   23.2679 C.3     1  UNL1        0.0730
     17 N          -3.3415  -18.0784   22.2954 N.3     1  UNL1       -0.2726
     18 C          -2.1679  -18.8095   21.7140 C.3     1  UNL1        0.0721
     19 C          -2.6929  -19.8706   20.7929 C.3     1  UNL1        0.0190
     20 C          -4.1909  -19.7952   20.8050 C.3     1  UNL1        0.0201
     21 C          -4.4124  -20.9213   19.8392 C.3     1  UNL1        0.0061
     22 C          -5.5860  -20.1902   20.4206 C.3     1  UNL1        0.0237
     23 C          -4.5918  -18.6876   21.7337 C.3     1  UNL1        0.0724
     24 C          -7.0690  -19.9961   20.5343 C.ar    1  UNL1       -0.0223
     25 C          -7.7173  -19.9454   21.8860 C.ar    1  UNL1       -0.0020
     26 C          -9.2003  -19.7513   21.9998 C.ar    1  UNL1        0.0293
     27 C         -10.0351  -19.6079   20.7617 C.ar    1  UNL1        0.1401
     28 F         -11.5181  -19.4138   20.8755 F       1  UNL1       -0.2042
     29 C          -9.3868  -19.6586   19.4100 C.ar    1  UNL1        0.0293
     30 C          -7.9037  -19.8527   19.2963 C.ar    1  UNL1       -0.0020
@<TRIPOS>BOND
     1    10    11    1
     2    11    12   ar
     3    12    13   ar
     4    13    14   ar
     5    14    15   ar
     6    15     4    1
     7     4     5   ar
     8     5     6   ar
     9     6     7   ar
    10     7     3    1
    11     3     2    1
    12     2     1    1
    13     1    16    1
    14    16    17    1
    15    17    18    1
    16    18    19    1
    17    20    19    1
    18    20    21    1
    19    21    22    1
    20    22    24    1
    21    24    25   ar
    22    25    26   ar
    23    26    27   ar
    24    27    28    1
    25    27    29   ar
    26    29    30   ar
    27    20    23    1
    28     7     8   ar
    29     8     9    1
    30    15    11   ar
    31     8     4   ar
    32    23    17    1
    33    22    20    1
    34    30    24   ar
@<TRIPOS>MOLECULE
*****
 30 34 0 0 0
SMALL
GASTEIGER

@<TRIPOS>ATOM
      1 C          -2.8829  -18.9642   19.2856 C.3     1  UNL1        0.0294
      2 C          -1.8098  -18.1233   19.9114 C.3     1  UNL1        0.0666
      3 S          -1.7718  -17.9415   21.3998 S.3     1  UNL1       -0.0756
      4 C          -4.2923  -15.9123   23.5435 C.ar    1  UNL1        0.2029
      5 N          -3.8143  -14.8614   22.5858 N.ar    1  UNL1       -0.1250
      6 N          -2.8119  -15.4936   21.6662 N.ar    1  UNL1       -0.1220
      7 C          -2.6705  -16.9353   22.0556 C.ar    1  UNL1        0.1933
      8 N          -3.5853  -17.1941   23.2157 N.ar    1  UNL1       -0.2860
      9 C          -3.7623  -18.5046   23.9239 C.3     1  UNL1        0.1341
     10 C          -7.4287  -15.1068   23.1390 C.3     1  UNL1        0.0556
     11 C          -6.7419  -15.3457   24.4509 C.ar    1  UNL1        0.1001
     12 N          -7.3761  -15.2563   25.8073 N.ar    1  UNL1       -0.2085
     13 C          -6.3264  -15.5713   26.8315 C.ar    1  UNL1        0.2849
     14 O          -5.0435  -15.8554   26.1081 O.2     1  UNL1       -0.4283
     15 C          -5.3003  -15.7159   24.6369 C.ar    1  UNL1        0.1964
     16 C          -4.3186  -18.5401   19.3796 C.3     1  UNL1        0.0730
     17 N          -5.2213  -19.1694   20.3990 N.3     1  UNL1       -0.2726
     18 C          -4.8387  -20.2466   21.3702 C.3     1  UNL1        0.0721
     19 C          -6.0461  -20.5750   22.1974 C.3     1  UNL1        0.0190
     20 C          -7.1749  -19.7007   21.7375 C.3     1  UNL1        0.0201
     21 C          -8.1907  -20.2352   22.7031 C.3     1  UNL1        0.0061
     22 C          -8.5733  -19.1580   21.7320 C.3     1  UNL1        0.0237
     23 C          -6.6651  -18.8320   20.6260 C.3     1  UNL1        0.0724
     24 C          -9.6015  -18.2227   21.1680 C.ar    1  UNL1       -0.0223
     25 C         -10.3948  -18.6211   19.9588 C.ar    1  UNL1       -0.0020
     26 C         -11.4230  -17.6858   19.3949 C.ar    1  UNL1        0.0293
     27 C         -11.6579  -16.3522   20.0401 C.ar    1  UNL1        0.1401
     28 F         -12.6861  -15.4170   19.4762 F       1  UNL1       -0.2042
     29 C         -10.8646  -15.9539   21.2493 C.ar    1  UNL1        0.0293
     30 C          -9.8364  -16.8891   21.8132 C.ar    1  UNL1       -0.0020
@<TRIPOS>BOND
     1    10    11    1
     2    11    12   ar
     3    12    13   ar
     4    13    14   ar
     5    14    15   ar
     6    15     4    1
     7     4     5   ar
     8     5     6   ar
     9     6     7   ar
    10     7     3    1
    11     3     2    1
    12     2     1    1
    13     1    16    1
    14    16    17    1
    15    17    18    1
    16    18    19    1
    17    20    19    1
    18    20    21    1
    19    21    22    1
    20    22    24    1
    21    24    25   ar
    22    25    26   ar
    23    26    27   ar
    24    27    28    1
    25    27    29   ar
    26    29    30   ar
    27    20    23    1
    28     7     8   ar
    29     8     9    1
    30    15    11   ar
    31     8     4   ar
    32    23    17    1
    33    22    20    1
    34    30    24   ar
@<TRIPOS>MOLECULE
*****
 30 34 0 0 0
SMALL
GASTEIGER

@<TRIPOS>ATOM
      1 C          -3.4448  -19.5306   22.0180 C.3     1  UNL1        0.0294
      2 C          -2.6637  -18.3330   21.5648 C.3     1  UNL1        0.0666
      3 S          -2.4237  -17.1927   22.5093 S.3     1  UNL1       -0.0756
      4 C          -5.3905  -15.5746   24.4187 C.ar    1  UNL1        0.2029
      5 N          -5.3307  -14.7131   23.1922 N.ar    1  UNL1       -0.1250
      6 N          -4.2121  -15.2144   22.3276 N.ar    1  UNL1       -0.1220
      7 C          -3.5805  -16.3857   23.0198 C.ar    1  UNL1        0.1933
      8 N          -4.3087  -16.6083   24.3122 N.ar    1  UNL1       -0.2860
      9 C          -4.0080  -17.6770   25.3209 C.3     1  UNL1        0.1341
     10 C          -8.6022  -16.1360   24.2787 C.3     1  UNL1        0.0556
     11 C          -7.8377  -15.6861   25.4883 C.ar    1  UNL1        0.1001
     12 N          -8.4152  -15.4153   26.8459 N.ar    1  UNL1       -0.2085
     13 C          -7.2959  -14.9899   27.7493 C.ar    1  UNL1        0.2849
     14 O          -6.0266  -14.9978   26.9501 O.2     1  UNL1       -0.4283
     15 C          -6.3614  -15.4281   25.5527 C.ar    1  UNL1        0.1964
     16 C          -4.8850  -19.3824   22.4101 C.3     1  UNL1        0.0730
     17 N          -5.9571  -19.4380   21.3625 N.3     1  UNL1       -0.2726
     18 C          -5.7420  -19.6260   19.8900 C.3     1  UNL1        0.0721
     19 C          -7.0845  -19.6196   19.2209 C.3     1  UNL1        0.0190
     20 C          -8.1293  -19.4278   20.2799 C.3     1  UNL1        0.0201
     21 C          -9.3048  -19.4631   19.3488 C.3     1  UNL1        0.0061
     22 C          -9.5199  -19.2751   20.8213 C.3     1  UNL1        0.0237
     23 C          -7.4326  -19.3155   21.6035 C.3     1  UNL1        0.0724
     24 C         -10.4469  -19.0785   21.9840 C.ar    1  UNL1       -0.0223
     25 C         -11.6277  -18.1624   21.8553 C.ar    1  UNL1       -0.0020
     26 C         -12.5547  -17.9657   23.0180 C.ar    1  UNL1        0.0293
     27 C         -12.3009  -18.6852   24.3095 C.ar    1  UNL1        0.1401
     28 F         -13.2279  -18.4885   25.4722 F       1  UNL1       -0.2042
     29 C         -11.1201  -19.6012   24.4383 C.ar    1  UNL1        0.0293
     30 C         -10.1931  -19.7979   23.2756 C.ar    1  UNL1       -0.0020
@<TRIPOS>BOND
     1    10    11    1
     2    11    12   ar
     3    12    13   ar
     4    13    14   ar
     5    14    15   ar
     6    15     4    1
     7     4     5   ar
     8     5     6   ar
     9     6     7   ar
    10     7     3    1
    11     3     2    1
    12     2     1    1
    13     1    16    1
    14    16    17    1
    15    17    18    1
    16    18    19    1
    17    20    19    1
    18    20    21    1
    19    21    22    1
    20    22    24    1
    21    24    25   ar
    22    25    26   ar
    23    26    27   ar
    24    27    28    1
    25    27    29   ar
    26    29    30   ar
    27    20    23    1
    28     7     8   ar
    29     8     9    1
    30    15    11   ar
    31     8     4   ar
    32    23    17    1
    33    22    20    1
    34    30    24   ar
@<TRIPOS>MOLECULE
*****
 30 34 0 0 0
SMALL
GASTEIGER

@<TRIPOS>ATOM
      1 C          -3.5299  -16.6470   23.0359 C.3     1  UNL1        0.0294
      2 C          -3.8477  -18.0395   23.4941 C.3     1  UNL1        0.0666
      3 S          -3.8512  -19.1707   22.5090 S.3     1  UNL1       -0.0756
      4 C          -6.8902  -19.1661   20.0944 C.ar    1  UNL1        0.2029
      5 N          -5.7477  -19.1576   19.1225 N.ar    1  UNL1       -0.1250
      6 N          -4.4702  -19.1583   19.9087 N.ar    1  UNL1       -0.1220
      7 C          -4.8232  -19.1672   21.3665 C.ar    1  UNL1        0.1933
      8 N          -6.3188  -19.1720   21.4814 N.ar    1  UNL1       -0.2860
      9 C          -7.1050  -19.1811   22.7588 C.3     1  UNL1        0.1341
     10 C          -8.3948  -21.3305   18.1706 C.3     1  UNL1        0.0556
     11 C          -9.0397  -20.1631   18.8571 C.ar    1  UNL1        0.1001
     12 N         -10.4893  -19.7856   18.7800 N.ar    1  UNL1       -0.2085
     13 C         -10.6937  -18.5574   19.6165 C.ar    1  UNL1        0.2849
     14 O          -9.3703  -18.1758   20.2108 O.2     1  UNL1       -0.4283
     15 C          -8.3481  -19.1682   19.7414 C.ar    1  UNL1        0.1964
     16 C          -4.5212  -15.5420   23.2512 C.3     1  UNL1        0.0730
     17 N          -5.3903  -15.5418   24.4738 N.3     1  UNL1       -0.2726
     18 C          -4.9862  -15.0809   25.8428 C.3     1  UNL1        0.0721
     19 C          -6.1623  -15.2567   26.7570 C.3     1  UNL1        0.0190
     20 C          -7.2933  -15.8263   25.9530 C.3     1  UNL1        0.0201
     21 C          -8.2759  -15.8856   27.0848 C.3     1  UNL1        0.0061
     22 C          -8.6801  -16.3465   25.7158 C.3     1  UNL1        0.0237
     23 C          -6.8162  -16.0025   24.5419 C.3     1  UNL1        0.0724
     24 C          -9.7141  -16.9130   24.7884 C.ar    1  UNL1       -0.0223
     25 C         -10.1787  -18.3291   24.9583 C.ar    1  UNL1       -0.0020
     26 C         -11.2126  -18.8955   24.0309 C.ar    1  UNL1        0.0293
     27 C         -11.7819  -18.0459   22.9337 C.ar    1  UNL1        0.1401
     28 F         -12.8159  -18.6124   22.0063 F       1  UNL1       -0.2042
     29 C         -11.3173  -16.6298   22.7638 C.ar    1  UNL1        0.0293
     30 C         -10.2834  -16.0634   23.6911 C.ar    1  UNL1       -0.0020
@<TRIPOS>BOND
     1    10    11    1
     2    11    12   ar
     3    12    13   ar
     4    13    14   ar
     5    14    15   ar
     6    15     4    1
     7     4     5   ar
     8     5     6   ar
     9     6     7   ar
    10     7     3    1
    11     3     2    1
    12     2     1    1
    13     1    16    1
    14    16    17    1
    15    17    18    1
    16    18    19    1
    17    20    19    1
    18    20    21    1
    19    21    22    1
    20    22    24    1
    21    24    25   ar
    22    25    26   ar
    23    26    27   ar
    24    27    28    1
    25    27    29   ar
    26    29    30   ar
    27    20    23    1
    28     7     8   ar
    29     8     9    1
    30    15    11   ar
    31     8     4   ar
    32    23    17    1
    33    22    20    1
    34    30    24   ar
@<TRIPOS>MOLECULE
*****
 30 34 0 0 0
SMALL
GASTEIGER

@<TRIPOS>ATOM
      1 C          -6.6364  -15.1301   26.8444 C.3     1  UNL1        0.0294
      2 C          -5.4773  -15.7279   26.1034 C.3     1  UNL1        0.0666
      3 S          -5.2556  -15.3897   24.6590 S.3     1  UNL1       -0.0756
      4 C          -5.9125  -18.1535   22.0140 C.ar    1  UNL1        0.2029
      5 N          -7.1429  -17.3088   21.8625 N.ar    1  UNL1       -0.1250
      6 N          -7.0465  -16.1707   22.8348 N.ar    1  UNL1       -0.1220
      7 C          -5.7566  -16.3120   23.5873 C.ar    1  UNL1        0.1933
      8 N          -5.0558  -17.5373   23.0801 N.ar    1  UNL1       -0.2860
      9 C          -3.7308  -18.0556   23.5554 C.3     1  UNL1        0.1341
     10 C          -3.3778  -18.5595   19.9991 C.3     1  UNL1        0.0556
     11 C          -4.4297  -19.5826   20.3100 C.ar    1  UNL1        0.1001
     12 N          -4.5012  -20.9721   19.7493 N.ar    1  UNL1       -0.2085
     13 C          -5.7104  -21.6442   20.3290 C.ar    1  UNL1        0.2849
     14 O          -6.3863  -20.6701   21.2479 O.2     1  UNL1       -0.4283
     15 C          -5.5948  -19.3960   21.2362 C.ar    1  UNL1        0.1964
     16 C          -7.9998  -15.1167   26.2191 C.3     1  UNL1        0.0730
     17 N          -8.7176  -16.4075   25.9573 N.3     1  UNL1       -0.2726
     18 C          -8.7675  -17.5910   26.8775 C.3     1  UNL1        0.0721
     19 C          -9.5922  -18.6564   26.2182 C.3     1  UNL1        0.0190
     20 C         -10.0521  -18.1313   24.8904 C.3     1  UNL1        0.0201
     21 C         -10.8140  -19.3602   24.4912 C.3     1  UNL1        0.0061
     22 C         -10.7641  -18.1767   23.5710 C.3     1  UNL1        0.0237
     23 C          -9.5115  -16.7414   24.7292 C.3     1  UNL1        0.0724
     24 C         -11.1464  -17.5196   22.2779 C.ar    1  UNL1       -0.0223
     25 C         -10.5017  -17.9557   20.9957 C.ar    1  UNL1       -0.0020
     26 C         -10.8840  -17.2986   19.7026 C.ar    1  UNL1        0.0293
     27 C         -11.9110  -16.2054   19.6918 C.ar    1  UNL1        0.1401
     28 F         -12.2933  -15.5483   18.3987 F       1  UNL1       -0.2042
     29 C         -12.5558  -15.7694   20.9741 C.ar    1  UNL1        0.0293
     30 C         -12.1735  -16.4265   22.2671 C.ar    1  UNL1       -0.0020
@<TRIPOS>BOND
     1    10    11    1
     2    11    12   ar
     3    12    13   ar
     4    13    14   ar
     5    14    15   ar
     6    15     4    1
     7     4     5   ar
     8     5     6   ar
     9     6     7   ar
    10     7     3    1
    11     3     2    1
    12     2     1    1
    13     1    16    1
    14    16    17    1
    15    17    18    1
    16    18    19    1
    17    20    19    1
    18    20    21    1
    19    21    22    1
    20    22    24    1
    21    24    25   ar
    22    25    26   ar
    23    26    27   ar
    24    27    28    1
    25    27    29   ar
    26    29    30   ar
    27    20    23    1
    28     7     8   ar
    29     8     9    1
    30    15    11   ar
    31     8     4   ar
    32    23    17    1
    33    22    20    1
    34    30    24   ar
@<TRIPOS>MOLECULE
*****
 30 34 0 0 0
SMALL
GASTEIGER

@<TRIPOS>ATOM
      1 C          -5.4966  -15.4342   23.9084 C.3     1  UNL1        0.0294
      2 C          -4.6899  -16.1378   24.9594 C.3     1  UNL1        0.0666
      3 S          -3.9043  -17.3654   24.6050 S.3     1  UNL1       -0.0756
      4 C          -3.3260  -18.0603   20.8303 C.ar    1  UNL1        0.2029
      5 N          -4.3135  -19.1355   21.1751 N.ar    1  UNL1       -0.1250
      6 N          -4.6503  -19.0061   22.6310 N.ar    1  UNL1       -0.1220
      7 C          -3.8710  -17.8509   23.1861 C.ar    1  UNL1        0.1933
      8 N          -3.0526  -17.2663   22.0733 N.ar    1  UNL1       -0.2860
      9 C          -2.1237  -16.0937   22.1839 C.3     1  UNL1        0.1341
     10 C          -0.2237  -18.6308   19.9939 C.3     1  UNL1        0.0556
     11 C          -1.2927  -18.0833   19.0953 C.ar    1  UNL1        0.1001
     12 N          -1.1235  -17.7019   17.6546 N.ar    1  UNL1       -0.2085
     13 C          -2.4449  -17.2039   17.1485 C.ar    1  UNL1        0.2849
     14 O          -3.4308  -17.2776   18.2766 O.2     1  UNL1       -0.4283
     15 C          -2.7187  -17.8211   19.4798 C.ar    1  UNL1        0.1964
     16 C          -6.9252  -15.0669   24.1802 C.3     1  UNL1        0.0730
     17 N          -7.9323  -16.1389   24.4746 N.3     1  UNL1       -0.2726
     18 C          -8.6297  -16.3577   25.7845 C.3     1  UNL1        0.0721
     19 C          -9.5472  -17.5343   25.6302 C.3     1  UNL1        0.0190
     20 C          -9.4168  -18.0427   24.2250 C.3     1  UNL1        0.0201
     21 C         -10.4047  -19.1619   24.3708 C.3     1  UNL1        0.0061
     22 C          -9.7073  -18.9431   23.0610 C.3     1  UNL1        0.0237
     23 C          -8.4187  -17.1802   23.5108 C.3     1  UNL1        0.0724
     24 C          -9.4724  -19.3366   21.6327 C.ar    1  UNL1       -0.0223
     25 C         -10.6325  -19.4722   20.6915 C.ar    1  UNL1       -0.0020
     26 C         -10.3975  -19.8657   19.2633 C.ar    1  UNL1        0.0293
     27 C          -9.0025  -20.1236   18.7762 C.ar    1  UNL1        0.1401
     28 F          -8.7675  -20.5171   17.3479 F       1  UNL1       -0.2042
     29 C          -7.8423  -19.9880   19.7174 C.ar    1  UNL1        0.0293
     30 C          -8.0773  -19.5945   21.1456 C.ar    1  UNL1       -0.0020
@<TRIPOS>BOND
     1    10    11    1
     2    11    12   ar
     3    12    13   ar
     4    13    14   ar
     5    14    15   ar
     6    15     4    1
     7     4     5   ar
     8     5     6   ar
     9     6     7   ar
    10     7     3    1
    11     3     2    1
    12     2     1    1
    13     1    16    1
    14    16    17    1
    15    17    18    1
    16    18    19    1
    17    20    19    1
    18    20    21    1
    19    21    22    1
    20    22    24    1
    21    24    25   ar
    22    25    26   ar
    23    26    27   ar
    24    27    28    1
    25    27    29   ar
    26    29    30   ar
    27    20    23    1
    28     7     8   ar
    29     8     9    1
    30    15    11   ar
    31     8     4   ar
    32    23    17    1
    33    22    20    1
    34    30    24   ar
@<TRIPOS>MOLECULE
*****
 30 34 0 0 0
SMALL
GASTEIGER

@<TRIPOS>ATOM
      1 C          -0.0935    3.2447   17.8399 C.3     1  UNL1        0.0294
      2 C           0.7981    2.4195   18.7199 C.3     1  UNL1        0.0666
      3 S           1.0683    0.9841   18.3786 S.3     1  UNL1       -0.0756
      4 C           3.4315   -1.4411   20.2759 C.ar    1  UNL1        0.2029
      5 N           2.5048   -1.0185   21.3772 N.ar    1  UNL1       -0.1250
      6 N           1.5067   -0.0586   20.8005 N.ar    1  UNL1       -0.1220
      7 C           1.8166    0.1121   19.3428 C.ar    1  UNL1        0.1933
      8 N           3.0061   -0.7423   19.0186 N.ar    1  UNL1       -0.2860
      9 C           3.6561   -0.8746   17.6732 C.3     1  UNL1        0.1341
     10 C           3.5066   -4.5180   19.1913 C.3     1  UNL1        0.0556
     11 C           4.6160   -3.8092   19.9101 C.ar    1  UNL1        0.1001
     12 N           5.9548   -4.3902   20.2566 N.ar    1  UNL1       -0.2085
     13 C           6.7477   -3.3350   20.9694 C.ar    1  UNL1        0.2849
     14 O           5.8989   -2.1018   21.0633 O.2     1  UNL1       -0.4283
     15 C           4.5815   -2.3949   20.4087 C.ar    1  UNL1        0.1964
     16 C          -1.0535    4.2222   18.4505 C.3     1  UNL1        0.0730
     17 N          -2.5315    4.0143   18.3021 N.3     1  UNL1       -0.2726
     18 C          -3.2662    3.7969   17.0125 C.3     1  UNL1        0.0721
     19 C          -4.7232    3.6355   17.3307 C.3     1  UNL1        0.0190
     20 C          -4.8889    3.7531   18.8168 C.3     1  UNL1        0.0201
     21 C          -6.3762    3.5586   18.8246 C.3     1  UNL1        0.0061
     22 C          -5.6416    3.7760   20.1142 C.3     1  UNL1        0.0237
     23 C          -3.5344    3.9872   19.4172 C.3     1  UNL1        0.0724
     24 C          -5.6519    3.9147   21.6077 C.ar    1  UNL1       -0.0223
     25 C          -6.5026    4.9655   22.2575 C.ar    1  UNL1       -0.0020
     26 C          -6.5129    5.1042   23.7510 C.ar    1  UNL1        0.0293
     27 C          -5.6726    4.1921   24.5947 C.ar    1  UNL1        0.1401
     28 F          -5.6829    4.3309   26.0882 F       1  UNL1       -0.2042
     29 C          -4.8219    3.1413   23.9449 C.ar    1  UNL1        0.0293
     30 C          -4.8116    3.0026   22.4514 C.ar    1  UNL1       -0.0020
@<TRIPOS>BOND
     1    10    11    1
     2    11    12   ar
     3    12    13   ar
     4    13    14   ar
     5    14    15   ar
     6    15     4    1
     7     4     5   ar
     8     5     6   ar
     9     6     7   ar
    10     7     3    1
    11     3     2    1
    12     2     1    1
    13     1    16    1
    14    16    17    1
    15    17    18    1
    16    18    19    1
    17    20    19    1
    18    20    21    1
    19    21    22    1
    20    22    24    1
    21    24    25   ar
    22    25    26   ar
    23    26    27   ar
    24    27    28    1
    25    27    29   ar
    26    29    30   ar
    27    20    23    1
    28     7     8   ar
    29     8     9    1
    30    15    11   ar
    31     8     4   ar
    32    23    17    1
    33    22    20    1
    34    30    24   ar
@<TRIPOS>MOLECULE
*****
 30 34 0 0 0
SMALL
GASTEIGER

@<TRIPOS>ATOM
      1 C           5.8452    3.1199   19.9954 C.3     1  UNL1        0.0294
      2 C           7.1734    3.2074   19.3038 C.3     1  UNL1        0.0666
      3 S           7.9777    1.9641   19.0644 S.3     1  UNL1       -0.0756
      4 C           6.1020   -1.4029   18.6052 C.ar    1  UNL1        0.2029
      5 N           6.4045   -1.0429   17.1808 N.ar    1  UNL1       -0.1250
      6 N           7.1439    0.2622   17.1794 N.ar    1  UNL1       -0.1220
      7 C           7.2985    0.7088   18.6030 C.ar    1  UNL1        0.1933
      8 N           6.6546   -0.3202   19.4842 N.ar    1  UNL1       -0.2860
      9 C           6.5768   -0.2746   20.9815 C.3     1  UNL1        0.1341
     10 C           7.3548   -3.7996   20.4316 C.3     1  UNL1        0.0556
     11 C           5.9506   -3.7316   19.9086 C.ar    1  UNL1        0.1001
     12 N           4.8756   -4.7534   20.1333 N.ar    1  UNL1       -0.2085
     13 C           3.6354   -4.2832   19.4327 C.ar    1  UNL1        0.2849
     14 O           3.9439   -2.9709   18.7750 O.2     1  UNL1       -0.4283
     15 C           5.3747   -2.6300   19.0691 C.ar    1  UNL1        0.1964
     16 C           4.5776    3.2508   19.2043 C.3     1  UNL1        0.0730
     17 N           3.5374    2.1721   19.2704 N.3     1  UNL1       -0.2726
     18 C           2.4475    1.9356   18.2674 C.3     1  UNL1        0.0721
     19 C           1.6411    0.7577   18.7283 C.3     1  UNL1        0.0190
     20 C           2.2326    0.2663   20.0161 C.3     1  UNL1        0.0201
     21 C           1.2601   -0.8580   20.2165 C.3     1  UNL1        0.0061
     22 C           2.3500   -0.6215   21.2195 C.3     1  UNL1        0.0237
     23 C           3.4047    1.1404   20.3512 C.3     1  UNL1        0.0724
     24 C           3.0471   -0.9975   22.4933 C.ar    1  UNL1       -0.0223
     25 C           2.7798   -0.2247   23.7509 C.ar    1  UNL1       -0.0020
     26 C           3.4768   -0.6007   25.0247 C.ar    1  UNL1        0.0293
     27 C           4.4412   -1.7495   25.0410 C.ar    1  UNL1        0.1401
     28 F           5.1383   -2.1255   26.3149 F       1  UNL1       -0.2042
     29 C           4.7086   -2.5223   23.7835 C.ar    1  UNL1        0.0293
     30 C           4.0115   -2.1463   22.5096 C.ar    1  UNL1       -0.0020
@<TRIPOS>BOND
     1    10    11    1
     2    11    12   ar
     3    12    13   ar
     4    13    14   ar
     5    14    15   ar
     6    15     4    1
     7     4     5   ar
     8     5     6   ar
     9     6     7   ar
    10     7     3    1
    11     3     2    1
    12     2     1    1
    13     1    16    1
    14    16    17    1
    15    17    18    1
    16    18    19    1
    17    20    19    1
    18    20    21    1
    19    21    22    1
    20    22    24    1
    21    24    25   ar
    22    25    26   ar
    23    26    27   ar
    24    27    28    1
    25    27    29   ar
    26    29    30   ar
    27    20    23    1
    28     7     8   ar
    29     8     9    1
    30    15    11   ar
    31     8     4   ar
    32    23    17    1
    33    22    20    1
    34    30    24   ar
