@<TRIPOS>MOLECULE
*****
 45 48 0 0 0
SMALL
GASTEIGER

@<TRIPOS>ATOM
      1 C           7.7755   -4.5731   30.4089 C.2     1  UNL1        0.2253
      2 O           8.5082   -5.4754   31.3570 O.2     1  UNL1       -0.2749
      3 N           6.8873   -3.4880   30.9415 N.am    1  UNL1       -0.2787
      4 C           6.6349   -3.1863   32.3890 C.3     1  UNL1        0.1028
      5 C           5.6871   -2.0258   32.4622 C.3     1  UNL1        0.1021
      6 C           5.3538   -1.6104   31.0598 C.3     1  UNL1        0.0521
      7 C           6.0955   -2.5141   30.1200 C.3     1  UNL1        0.0982
      8 C           9.2889   -4.3841   23.7064 C.3     1  UNL1        0.0948
      9 C           8.3973   -5.3043   24.4862 C.2     1  UNL1        0.2261
     10 O           7.6612   -6.4074   23.7853 O.2     1  UNL1       -0.2749
     11 N           8.2418   -5.1215   25.9669 N.am    1  UNL1       -0.2795
     12 C           8.9779   -4.0185   26.6677 C.3     1  UNL1        0.0939
     13 C           8.8225   -3.8356   28.1484 C.3     1  UNL1        0.0306
     14 C           7.9309   -4.7559   28.9282 C.3     1  UNL1        0.0801
     15 C           7.1948   -5.8590   28.2273 C.3     1  UNL1        0.0306
     16 C           7.3503   -6.0418   26.7467 C.3     1  UNL1        0.0939
     17 C           4.4394   -0.4884   30.6665 C.ar    1  UNL1       -0.0241
     18 C           2.9526   -0.6815   30.7122 C.ar    1  UNL1       -0.0022
     19 C           2.0380    0.4405   30.3188 C.ar    1  UNL1        0.0293
     20 C           2.6105    1.7557   29.8797 C.ar    1  UNL1        0.1398
     21 F           1.6960    2.8778   29.4863 F       1  UNL1       -0.2042
     22 C           4.0973    1.9488   29.8340 C.ar    1  UNL1        0.0251
     23 C           5.0117    0.8267   30.2274 C.ar    1  UNL1       -0.0235
     24 C           6.4985    1.0199   30.1817 C.3     1  UNL1        0.0308
     25 C           5.1645   -1.3921   33.7172 C.2     1  UNL1        0.2274
     26 O           3.9111   -1.9138   34.3550 O.2     1  UNL1       -0.2748
     27 N           5.8952   -0.2367   34.3345 N.am    1  UNL1       -0.2774
     28 C           7.1487    0.2849   33.6967 C.3     1  UNL1        0.1150
     29 C           5.3726    0.3970   35.5896 C.3     1  UNL1        0.0794
     30 C           4.4315    1.2341   34.7750 C.3     1  UNL1        0.0244
     31 C           6.3137   -0.4402   36.4042 C.3     1  UNL1        0.0244
     32 C           4.8499    1.0307   36.8446 C.ar    1  UNL1       -0.0062
     33 C           5.7704    1.8248   37.7234 C.ar    1  UNL1        0.0011
     34 C           5.2478    2.4585   38.9785 C.ar    1  UNL1        0.0711
     35 C           3.8046    2.2981   39.3549 C.ar    1  UNL1        0.0077
     36 C           2.8841    1.5040   38.4761 C.ar    1  UNL1        0.0711
     37 C           3.4068    0.8703   37.2210 C.ar    1  UNL1        0.0011
     38 C           6.1683    3.2526   39.8572 C.3     1  UNL1        0.4186
     39 F           7.0887    4.0468   40.7358 F       1  UNL1       -0.1659
     40 F           5.0695    4.2407   40.1152 F       1  UNL1       -0.1659
     41 F           7.2670    2.2646   39.5991 F       1  UNL1       -0.1659
     42 C           1.4410    1.3436   38.8525 C.3     1  UNL1        0.4186
     43 F          -0.0020    1.1832   39.2289 F       1  UNL1       -0.1659
     44 F           1.6361   -0.1392   38.9685 F       1  UNL1       -0.1659
     45 F           1.2460    2.8262   38.7365 F       1  UNL1       -0.1659
@<TRIPOS>BOND
     1     8     9    1
     2     9    10    2
     3     9    11   am
     4    11    12    1
     5    12    13    1
     6    13    14    1
     7    14     1    1
     8     1     2    2
     9     1     3   am
    10     3     4    1
    11     4     5    1
    12     5    25    1
    13    25    26    2
    14    25    27   am
    15    27    28    1
    16    27    29    1
    17    29    30    1
    18    29    31    1
    19    29    32    1
    20    32    33   ar
    21    33    34   ar
    22    34    38    1
    23    38    39    1
    24    38    40    1
    25    38    41    1
    26    34    35   ar
    27    35    36   ar
    28    36    42    1
    29    42    43    1
    30    42    44    1
    31    42    45    1
    32    36    37   ar
    33     5     6    1
    34     6    17    1
    35    17    18   ar
    36    18    19   ar
    37    19    20   ar
    38    20    21    1
    39    20    22   ar
    40    22    23   ar
    41    23    24    1
    42     6     7    1
    43    14    15    1
    44    15    16    1
    45    16    11    1
    46     7     3    1
    47    37    32   ar
    48    23    17   ar
@<TRIPOS>MOLECULE
*****
 45 48 0 0 0
SMALL
GASTEIGER

@<TRIPOS>ATOM
      1 C           7.8557   -4.5638   30.4335 C.2     1  UNL1        0.2253
      2 O           8.6173   -5.4362   31.3869 O.2     1  UNL1       -0.2749
      3 N           6.9517   -3.4886   30.9595 N.am    1  UNL1       -0.2787
      4 C           6.7095   -3.1694   32.4050 C.3     1  UNL1        0.1028
      5 C           5.7392   -2.0273   32.4712 C.3     1  UNL1        0.1021
      6 C           5.3818   -1.6407   31.0666 C.3     1  UNL1        0.0521
      7 C           6.1312   -2.5438   30.1323 C.3     1  UNL1        0.0982
      8 C           9.3316   -4.4825   23.7205 C.3     1  UNL1        0.0948
      9 C           8.4258   -5.3750   24.5160 C.2     1  UNL1        0.2261
     10 O           7.6625   -6.4703   23.8322 O.2     1  UNL1       -0.2749
     11 N           8.2833   -5.1722   25.9954 N.am    1  UNL1       -0.2795
     12 C           9.0465   -4.0769   26.6792 C.3     1  UNL1        0.0939
     13 C           8.9040   -3.8741   28.1586 C.3     1  UNL1        0.0306
     14 C           7.9983   -4.7666   28.9541 C.3     1  UNL1        0.0801
     15 C           7.2350   -5.8619   28.2703 C.3     1  UNL1        0.0306
     16 C           7.3775   -6.0647   26.7909 C.3     1  UNL1        0.0939
     17 C           4.4404   -0.5437   30.6665 C.ar    1  UNL1       -0.0241
     18 C           2.9626   -0.7986   30.6331 C.ar    1  UNL1       -0.0022
     19 C           2.0211    0.2985   30.2330 C.ar    1  UNL1        0.0293
     20 C           2.5575    1.6505   29.8664 C.ar    1  UNL1        0.1398
     21 F           1.6160    2.7476   29.4663 F       1  UNL1       -0.2042
     22 C           4.0352    1.9054   29.8998 C.ar    1  UNL1        0.0251
     23 C           4.9767    0.8083   30.2999 C.ar    1  UNL1       -0.0235
     24 C           6.4544    1.0633   30.3334 C.3     1  UNL1        0.0308
     25 C           5.2179   -1.3847   33.7223 C.2     1  UNL1        0.2274
     26 O           3.9367   -1.8669   34.3354 O.2     1  UNL1       -0.2748
     27 N           5.9778   -0.2597   34.3603 N.am    1  UNL1       -0.2774
     28 C           7.2590    0.2226   33.7472 C.3     1  UNL1        0.1150
     29 C           5.4565    0.3829   35.6114 C.3     1  UNL1        0.0794
     30 C           4.4857    1.1840   34.7954 C.3     1  UNL1        0.0244
     31 C           6.4272   -0.4182   36.4274 C.3     1  UNL1        0.0244
     32 C           4.9352    1.0255   36.8625 C.ar    1  UNL1       -0.0062
     33 C           3.4897    0.8778   37.2353 C.ar    1  UNL1        0.0011
     34 C           2.9684    1.5204   38.4864 C.ar    1  UNL1        0.0711
     35 C           3.8925    2.3108   39.3647 C.ar    1  UNL1        0.0077
     36 C           5.3379    2.4585   38.9919 C.ar    1  UNL1        0.0711
     37 C           5.8593    1.8159   37.7408 C.ar    1  UNL1        0.0011
     38 C           1.5230    1.3726   38.8592 C.3     1  UNL1        0.4186
     39 F           0.0777    1.2249   39.2320 F       1  UNL1       -0.1659
     40 F           1.2732    2.7953   38.4546 F       1  UNL1       -0.1659
     41 F           1.7728   -0.0500   39.2638 F       1  UNL1       -0.1659
     42 C           6.2620    3.2489   39.8702 C.3     1  UNL1        0.4186
     43 F           7.1860    4.0392   40.7484 F       1  UNL1       -0.1659
     44 F           5.2019    4.2959   40.0433 F       1  UNL1       -0.1659
     45 F           7.3221    2.2019   39.6971 F       1  UNL1       -0.1659
@<TRIPOS>BOND
     1     8     9    1
     2     9    10    2
     3     9    11   am
     4    11    12    1
     5    12    13    1
     6    13    14    1
     7    14     1    1
     8     1     2    2
     9     1     3   am
    10     3     4    1
    11     4     5    1
    12     5    25    1
    13    25    26    2
    14    25    27   am
    15    27    28    1
    16    27    29    1
    17    29    30    1
    18    29    31    1
    19    29    32    1
    20    32    33   ar
    21    33    34   ar
    22    34    38    1
    23    38    39    1
    24    38    40    1
    25    38    41    1
    26    34    35   ar
    27    35    36   ar
    28    36    42    1
    29    42    43    1
    30    42    44    1
    31    42    45    1
    32    36    37   ar
    33     5     6    1
    34     6    17    1
    35    17    18   ar
    36    18    19   ar
    37    19    20   ar
    38    20    21    1
    39    20    22   ar
    40    22    23   ar
    41    23    24    1
    42     6     7    1
    43    14    15    1
    44    15    16    1
    45    16    11    1
    46     7     3    1
    47    37    32   ar
    48    23    17   ar
@<TRIPOS>MOLECULE
*****
 45 48 0 0 0
SMALL
GASTEIGER

@<TRIPOS>ATOM
      1 C          -3.0931    3.5846   25.2198 C.2     1  UNL1        0.2253
      2 O          -4.0755    3.9915   26.2778 O.2     1  UNL1       -0.2749
      3 N          -1.7368    3.0773   25.6111 N.am    1  UNL1       -0.2787
      4 C          -1.2239    2.9222   27.0122 C.3     1  UNL1        0.1028
      5 C           0.1747    2.3850   26.9370 C.3     1  UNL1        0.1021
      6 C           0.5261    2.2082   25.4895 C.3     1  UNL1        0.0521
      7 C          -0.6552    2.6360   24.6701 C.3     1  UNL1        0.0982
      8 C          -5.8279    3.3087   18.9195 C.3     1  UNL1        0.0948
      9 C          -4.5883    3.9866   19.4230 C.2     1  UNL1        0.2261
     10 O          -3.7224    4.7650   18.4774 O.2     1  UNL1       -0.2749
     11 N          -4.2145    3.8861   20.8722 N.am    1  UNL1       -0.2795
     12 C          -5.0803    3.1077   21.8179 C.3     1  UNL1        0.0939
     13 C          -4.7065    3.0072   23.2671 C.3     1  UNL1        0.0306
     14 C          -3.4669    3.6851   23.7706 C.3     1  UNL1        0.0801
     15 C          -2.6010    4.4636   22.8250 C.3     1  UNL1        0.0306
     16 C          -2.9748    4.5640   21.3758 C.3     1  UNL1        0.0939
     17 C           1.8298    1.6938   24.9552 C.ar    1  UNL1       -0.0241
     18 C           1.9844    0.2380   24.6284 C.ar    1  UNL1       -0.0022
     19 C           3.2882   -0.2765   24.0941 C.ar    1  UNL1        0.0293
     20 C           4.4375    0.6650   23.8867 C.ar    1  UNL1        0.1398
     21 F           5.7413    0.1505   23.3524 F       1  UNL1       -0.2042
     22 C           4.2829    2.1207   24.2136 C.ar    1  UNL1        0.0251
     23 C           2.9791    2.6351   24.7478 C.ar    1  UNL1       -0.0235
     24 C           2.8246    4.0908   25.0747 C.3     1  UNL1        0.0308
     25 C           1.0653    2.0786   28.1044 C.2     1  UNL1        0.2274
     26 O           2.2512    2.9507   28.3923 O.2     1  UNL1       -0.2748
     27 N           0.7701    0.8999   28.9838 N.am    1  UNL1       -0.2774
     28 C          -0.4158    0.0276   28.6960 C.3     1  UNL1        0.1150
     29 C           1.6608    0.5934   30.1512 C.3     1  UNL1        0.0794
     30 C           0.9650    1.6484   30.9591 C.3     1  UNL1        0.0244
     31 C           2.3566   -0.4616   29.3433 C.3     1  UNL1        0.0244
     32 C           2.5515    0.2869   31.3185 C.ar    1  UNL1       -0.0062
     33 C           2.5917    1.2160   32.4955 C.ar    1  UNL1        0.0011
     34 C           3.4824    0.9096   33.6629 C.ar    1  UNL1        0.0711
     35 C           4.3329   -0.3260   33.6533 C.ar    1  UNL1        0.0077
     36 C           4.2926   -1.2551   32.4763 C.ar    1  UNL1        0.0711
     37 C           3.4020   -0.9487   31.3090 C.ar    1  UNL1        0.0011
     38 C           3.5226    1.8387   34.8398 C.3     1  UNL1        0.4186
     39 F           3.5628    2.7678   36.0166 F       1  UNL1       -0.1659
     40 F           2.1136    2.2649   34.5514 F       1  UNL1       -0.1659
     41 F           4.9316    1.4124   35.1282 F       1  UNL1       -0.1659
     42 C           5.1431   -2.4907   32.4668 C.3     1  UNL1        0.4186
     43 F           5.9935   -3.7262   32.4572 F       1  UNL1       -0.1659
     44 F           4.2787   -3.0940   33.5340 F       1  UNL1       -0.1659
     45 F           6.0075   -1.8875   31.3996 F       1  UNL1       -0.1659
@<TRIPOS>BOND
     1     8     9    1
     2     9    10    2
     3     9    11   am
     4    11    12    1
     5    12    13    1
     6    13    14    1
     7    14     1    1
     8     1     2    2
     9     1     3   am
    10     3     4    1
    11     4     5    1
    12     5    25    1
    13    25    26    2
    14    25    27   am
    15    27    28    1
    16    27    29    1
    17    29    30    1
    18    29    31    1
    19    29    32    1
    20    32    33   ar
    21    33    34   ar
    22    34    38    1
    23    38    39    1
    24    38    40    1
    25    38    41    1
    26    34    35   ar
    27    35    36   ar
    28    36    42    1
    29    42    43    1
    30    42    44    1
    31    42    45    1
    32    36    37   ar
    33     5     6    1
    34     6    17    1
    35    17    18   ar
    36    18    19   ar
    37    19    20   ar
    38    20    21    1
    39    20    22   ar
    40    22    23   ar
    41    23    24    1
    42     6     7    1
    43    14    15    1
    44    15    16    1
    45    16    11    1
    46     7     3    1
    47    37    32   ar
    48    23    17   ar
@<TRIPOS>MOLECULE
*****
 45 48 0 0 0
SMALL
GASTEIGER

@<TRIPOS>ATOM
      1 C           5.9228   -0.4235   32.5315 C.2     1  UNL1        0.2253
      2 O           7.2487   -1.1237   32.4932 O.2     1  UNL1       -0.2749
      3 N           5.0648   -0.3742   31.3021 N.am    1  UNL1       -0.2787
      4 C           5.3984   -0.9765   29.9695 C.3     1  UNL1        0.1028
      5 C           4.2623   -0.6886   29.0332 C.3     1  UNL1        0.1021
      6 C           3.2266    0.0917   29.7873 C.3     1  UNL1        0.0521
      7 C           3.7226    0.2859   31.1895 C.3     1  UNL1        0.0982
      8 C           3.5079    1.3412   38.7206 C.3     1  UNL1        0.0948
      9 C           4.0509    2.1808   37.6024 C.2     1  UNL1        0.2261
     10 O           4.1260    3.6714   37.7520 O.2     1  UNL1       -0.2749
     11 N           4.5189    1.5297   36.3347 N.am    1  UNL1       -0.2795
     12 C           4.4439    0.0391   36.1851 C.3     1  UNL1        0.0939
     13 C           4.9118   -0.6120   34.9174 C.3     1  UNL1        0.0306
     14 C           5.4548    0.2276   33.7993 C.3     1  UNL1        0.0801
     15 C           5.5299    1.7182   33.9489 C.3     1  UNL1        0.0306
     16 C           5.0619    2.3693   35.2166 C.3     1  UNL1        0.0939
     17 C           1.9238    0.5901   29.2359 C.ar    1  UNL1       -0.0241
     18 C           0.7573   -0.3442   29.1074 C.ar    1  UNL1       -0.0022
     19 C          -0.5456    0.1541   28.5560 C.ar    1  UNL1        0.0293
     20 C          -0.6821    1.5869   28.1331 C.ar    1  UNL1        0.1398
     21 F          -1.9850    2.0853   27.5818 F       1  UNL1       -0.2042
     22 C           0.4844    2.5211   28.2617 C.ar    1  UNL1        0.0251
     23 C           1.7873    2.0227   28.8131 C.ar    1  UNL1       -0.0235
     24 C           2.9537    2.9570   28.9415 C.3     1  UNL1        0.0308
     25 C           4.1770   -1.1073   27.5953 C.2     1  UNL1        0.2274
     26 O           3.5363   -2.4138   27.2315 O.2     1  UNL1       -0.2748
     27 N           4.7324   -0.2195   26.5214 N.am    1  UNL1       -0.2774
     28 C           5.3732    1.0870   26.8853 C.3     1  UNL1        0.1150
     29 C           4.6471   -0.6383   25.0836 C.3     1  UNL1        0.0794
     30 C           6.0142   -1.2479   25.1800 C.3     1  UNL1        0.0244
     31 C           3.2800   -0.0287   24.9872 C.3     1  UNL1        0.0244
     32 C           4.5618   -1.0570   23.6458 C.ar    1  UNL1       -0.0062
     33 C           5.7200   -1.7568   22.9984 C.ar    1  UNL1        0.0011
     34 C           5.6346   -2.1755   21.5605 C.ar    1  UNL1        0.0711
     35 C           4.3911   -1.8946   20.7701 C.ar    1  UNL1        0.0077
     36 C           3.2329   -1.1949   21.4175 C.ar    1  UNL1        0.0711
     37 C           3.3182   -0.7761   22.8554 C.ar    1  UNL1        0.0011
     38 C           6.7928   -2.8752   20.9132 C.3     1  UNL1        0.4186
     39 F           7.9509   -3.5748   20.2658 F       1  UNL1       -0.1659
     40 F           6.0132   -2.9841   19.6362 F       1  UNL1       -0.1659
     41 F           7.5723   -2.7662   22.1901 F       1  UNL1       -0.1659
     42 C           1.9894   -0.9140   20.6271 C.3     1  UNL1        0.4186
     43 F           0.7459   -0.6331   19.8367 F       1  UNL1       -0.1659
     44 F           1.6061    0.1530   21.6093 F       1  UNL1       -0.1659
     45 F           2.3726   -1.9809   19.6450 F       1  UNL1       -0.1659
@<TRIPOS>BOND
     1     8     9    1
     2     9    10    2
     3     9    11   am
     4    11    12    1
     5    12    13    1
     6    13    14    1
     7    14     1    1
     8     1     2    2
     9     1     3   am
    10     3     4    1
    11     4     5    1
    12     5    25    1
    13    25    26    2
    14    25    27   am
    15    27    28    1
    16    27    29    1
    17    29    30    1
    18    29    31    1
    19    29    32    1
    20    32    33   ar
    21    33    34   ar
    22    34    38    1
    23    38    39    1
    24    38    40    1
    25    38    41    1
    26    34    35   ar
    27    35    36   ar
    28    36    42    1
    29    42    43    1
    30    42    44    1
    31    42    45    1
    32    36    37   ar
    33     5     6    1
    34     6    17    1
    35    17    18   ar
    36    18    19   ar
    37    19    20   ar
    38    20    21    1
    39    20    22   ar
    40    22    23   ar
    41    23    24    1
    42     6     7    1
    43    14    15    1
    44    15    16    1
    45    16    11    1
    46     7     3    1
    47    37    32   ar
    48    23    17   ar
@<TRIPOS>MOLECULE
*****
 45 48 0 0 0
SMALL
GASTEIGER

@<TRIPOS>ATOM
      1 C          -3.0268    3.5482   25.1289 C.2     1  UNL1        0.2253
      2 O          -4.0236    3.9559   26.1730 O.2     1  UNL1       -0.2749
      3 N          -1.6729    3.0495   25.5389 N.am    1  UNL1       -0.2787
      4 C          -1.1758    2.9042   26.9466 C.3     1  UNL1        0.1028
      5 C           0.2261    2.3734   26.8908 C.3     1  UNL1        0.1021
      6 C           0.5954    2.1905   25.4485 C.3     1  UNL1        0.0521
      7 C          -0.5782    2.6084   24.6130 C.3     1  UNL1        0.0982
      8 C          -5.7575    3.3508   18.8238 C.3     1  UNL1        0.0948
      9 C          -4.4554    3.9123   19.3129 C.2     1  UNL1        0.2261
     10 O          -3.5105    4.5649   18.3479 O.2     1  UNL1       -0.2749
     11 N          -4.0982    3.8213   20.7669 N.am    1  UNL1       -0.2795
     12 C          -5.0432    3.1687   21.7319 C.3     1  UNL1        0.0939
     13 C          -4.6860    3.0777   23.1859 C.3     1  UNL1        0.0306
     14 C          -3.3839    3.6392   23.6749 C.3     1  UNL1        0.0801
     15 C          -2.4390    4.2918   22.7099 C.3     1  UNL1        0.0306
     16 C          -2.7962    4.3828   21.2559 C.3     1  UNL1        0.0939
     17 C           1.9078    1.6796   24.9324 C.ar    1  UNL1       -0.0241
     18 C           2.0767    0.2209   24.6263 C.ar    1  UNL1       -0.0022
     19 C           3.3891   -0.2902   24.1101 C.ar    1  UNL1        0.0293
     20 C           4.5327    0.6576   23.9001 C.ar    1  UNL1        0.1398
     21 F           5.8452    0.1466   23.3840 F       1  UNL1       -0.2042
     22 C           4.3638    2.1163   24.2062 C.ar    1  UNL1        0.0251
     23 C           3.0513    2.6273   24.7223 C.ar    1  UNL1       -0.0235
     24 C           2.8825    4.0859   25.0284 C.3     1  UNL1        0.0308
     25 C           1.1044    2.0774   28.0702 C.2     1  UNL1        0.2274
     26 O           2.3082    2.9300   28.3416 O.2     1  UNL1       -0.2748
     27 N           0.7788    0.9287   28.9782 N.am    1  UNL1       -0.2774
     28 C          -0.4251    0.0760   28.7068 C.3     1  UNL1        0.1150
     29 C           1.6571    0.6327   30.1576 C.3     1  UNL1        0.0794
     30 C           0.9652    1.7073   30.9426 C.3     1  UNL1        0.0244
     31 C           2.3491   -0.4420   29.3725 C.3     1  UNL1        0.0244
     32 C           2.5354    0.3366   31.3369 C.ar    1  UNL1       -0.0062
     33 C           3.3568   -0.9183   31.3642 C.ar    1  UNL1        0.0011
     34 C           4.2351   -1.2143   32.5436 C.ar    1  UNL1        0.0711
     35 C           4.2921   -0.2554   33.6957 C.ar    1  UNL1        0.0077
     36 C           3.4707    0.9995   33.6684 C.ar    1  UNL1        0.0711
     37 C           2.5924    1.2955   32.4891 C.ar    1  UNL1        0.0011
     38 C           5.0563   -2.4692   32.5709 C.3     1  UNL1        0.4186
     39 F           5.8775   -3.7241   32.5982 F       1  UNL1       -0.1659
     40 F           4.1998   -3.0057   33.6793 F       1  UNL1       -0.1659
     41 F           5.9128   -1.9327   31.4624 F       1  UNL1       -0.1659
     42 C           3.5278    1.9584   34.8205 C.3     1  UNL1        0.4186
     43 F           3.5848    2.9172   35.9726 F       1  UNL1       -0.1659
     44 F           4.9888    1.6653   34.9921 F       1  UNL1       -0.1659
     45 F           2.0668    2.2514   34.6490 F       1  UNL1       -0.1659
@<TRIPOS>BOND
     1     8     9    1
     2     9    10    2
     3     9    11   am
     4    11    12    1
     5    12    13    1
     6    13    14    1
     7    14     1    1
     8     1     2    2
     9     1     3   am
    10     3     4    1
    11     4     5    1
    12     5    25    1
    13    25    26    2
    14    25    27   am
    15    27    28    1
    16    27    29    1
    17    29    30    1
    18    29    31    1
    19    29    32    1
    20    32    33   ar
    21    33    34   ar
    22    34    38    1
    23    38    39    1
    24    38    40    1
    25    38    41    1
    26    34    35   ar
    27    35    36   ar
    28    36    42    1
    29    42    43    1
    30    42    44    1
    31    42    45    1
    32    36    37   ar
    33     5     6    1
    34     6    17    1
    35    17    18   ar
    36    18    19   ar
    37    19    20   ar
    38    20    21    1
    39    20    22   ar
    40    22    23   ar
    41    23    24    1
    42     6     7    1
    43    14    15    1
    44    15    16    1
    45    16    11    1
    46     7     3    1
    47    37    32   ar
    48    23    17   ar
@<TRIPOS>MOLECULE
*****
 45 48 0 0 0
SMALL
GASTEIGER

@<TRIPOS>ATOM
      1 C           4.9432    1.8753   31.8729 C.2     1  UNL1        0.2253
      2 O           6.3574    1.3840   31.9660 O.2     1  UNL1       -0.2749
      3 N           4.2101    1.8071   30.5661 N.am    1  UNL1       -0.2787
      4 C           4.7578    1.2762   29.2745 C.3     1  UNL1        0.1028
      5 C           3.6867    1.3988   28.2315 C.3     1  UNL1        0.1021
      6 C           2.4770    2.0055   28.8785 C.3     1  UNL1        0.0521
      7 C           2.8004    2.2578   30.3213 C.3     1  UNL1        0.0982
      8 C           2.3331    5.5748   37.0450 C.3     1  UNL1        0.0948
      9 C           2.2190    4.1132   36.7278 C.2     1  UNL1        0.2261
     10 O           1.4238    3.2111   37.6244 O.2     1  UNL1       -0.2749
     11 N           2.9000    3.5537   35.5141 N.am    1  UNL1       -0.2795
     12 C           3.6952    4.4558   34.6176 C.3     1  UNL1        0.0939
     13 C           4.3763    3.8964   33.4038 C.3     1  UNL1        0.0306
     14 C           4.2622    2.4348   33.0866 C.3     1  UNL1        0.0801
     15 C           3.4670    1.5326   33.9832 C.3     1  UNL1        0.0306
     16 C           2.7859    2.0921   35.1969 C.3     1  UNL1        0.0939
     17 C           1.1729    2.3069   28.2016 C.ar    1  UNL1       -0.0241
     18 C           0.9803    3.6149   27.4932 C.ar    1  UNL1       -0.0022
     19 C          -0.3239    3.9164   26.8162 C.ar    1  UNL1        0.0293
     20 C          -1.4355    2.9097   26.8477 C.ar    1  UNL1        0.1398
     21 F          -2.7397    3.2111   26.1707 F       1  UNL1       -0.2042
     22 C          -1.2429    1.6016   27.5561 C.ar    1  UNL1        0.0251
     23 C           0.0613    1.3002   28.2331 C.ar    1  UNL1       -0.0235
     24 C           0.2538   -0.0078   28.9414 C.3     1  UNL1        0.0308
     25 C           3.8046    0.9870   26.7939 C.2     1  UNL1        0.2274
     26 O           4.1400    2.0071   25.7467 O.2     1  UNL1       -0.2748
     27 N           3.5871   -0.4449   26.4037 N.am    1  UNL1       -0.2774
     28 C           3.2517   -1.4650   27.4510 C.3     1  UNL1        0.1150
     29 C           3.7051   -0.8566   24.9662 C.3     1  UNL1        0.0794
     30 C           2.4109   -0.1623   24.6612 C.3     1  UNL1        0.0244
     31 C           4.9992   -1.5509   25.2712 C.3     1  UNL1        0.0244
     32 C           3.8230   -1.2684   23.5286 C.ar    1  UNL1       -0.0062
     33 C           2.8342   -0.7630   22.5201 C.ar    1  UNL1        0.0011
     34 C           2.9521   -1.1747   21.0826 C.ar    1  UNL1        0.0711
     35 C           4.0588   -2.0919   20.6535 C.ar    1  UNL1        0.0077
     36 C           5.0476   -2.5973   21.6620 C.ar    1  UNL1        0.0711
     37 C           4.9297   -2.1855   23.0995 C.ar    1  UNL1        0.0011
     38 C           1.9633   -0.6693   20.0742 C.3     1  UNL1        0.4186
     39 F           0.9746   -0.1640   19.0658 F       1  UNL1       -0.1659
     40 F           2.8098   -1.2234   18.9666 F       1  UNL1       -0.1659
     41 F           1.1170   -0.1153   21.1818 F       1  UNL1       -0.1659
     42 C           6.1542   -3.5144   21.2329 C.3     1  UNL1        0.4186
     43 F           7.2609   -4.4315   20.8038 F       1  UNL1       -0.1659
     44 F           6.0525   -4.2476   22.5375 F       1  UNL1       -0.1659
     45 F           6.2560   -2.7813   19.9283 F       1  UNL1       -0.1659
@<TRIPOS>BOND
     1     8     9    1
     2     9    10    2
     3     9    11   am
     4    11    12    1
     5    12    13    1
     6    13    14    1
     7    14     1    1
     8     1     2    2
     9     1     3   am
    10     3     4    1
    11     4     5    1
    12     5    25    1
    13    25    26    2
    14    25    27   am
    15    27    28    1
    16    27    29    1
    17    29    30    1
    18    29    31    1
    19    29    32    1
    20    32    33   ar
    21    33    34   ar
    22    34    38    1
    23    38    39    1
    24    38    40    1
    25    38    41    1
    26    34    35   ar
    27    35    36   ar
    28    36    42    1
    29    42    43    1
    30    42    44    1
    31    42    45    1
    32    36    37   ar
    33     5     6    1
    34     6    17    1
    35    17    18   ar
    36    18    19   ar
    37    19    20   ar
    38    20    21    1
    39    20    22   ar
    40    22    23   ar
    41    23    24    1
    42     6     7    1
    43    14    15    1
    44    15    16    1
    45    16    11    1
    46     7     3    1
    47    37    32   ar
    48    23    17   ar
@<TRIPOS>MOLECULE
*****
 45 48 0 0 0
SMALL
GASTEIGER

@<TRIPOS>ATOM
      1 C           5.8949   -0.4216   32.5380 C.2     1  UNL1        0.2253
      2 O           7.2212   -1.1212   32.5015 O.2     1  UNL1       -0.2749
      3 N           5.0394   -0.3710   31.3069 N.am    1  UNL1       -0.2787
      4 C           5.3761   -0.9712   29.9741 C.3     1  UNL1        0.1028
      5 C           4.2418   -0.6825   29.0359 C.3     1  UNL1        0.1021
      6 C           3.2042    0.0961   29.7889 C.3     1  UNL1        0.0521
      7 C           3.6971    0.2887   31.1925 C.3     1  UNL1        0.0982
      8 C           3.4475    1.3351   38.7166 C.3     1  UNL1        0.0948
      9 C           4.0112    2.1746   37.6087 C.2     1  UNL1        0.2261
     10 O           4.1040    3.6631   37.7685 O.2     1  UNL1       -0.2749
     11 N           4.4821    1.5255   36.3411 N.am    1  UNL1       -0.2795
     12 C           4.3893    0.0370   36.1813 C.3     1  UNL1        0.0939
     13 C           4.8603   -0.6120   34.9136 C.3     1  UNL1        0.0306
     14 C           5.4240    0.2275   33.8057 C.3     1  UNL1        0.0801
     15 C           5.5167    1.7160   33.9655 C.3     1  UNL1        0.0306
     16 C           5.0458    2.3650   35.2332 C.3     1  UNL1        0.0939
     17 C           1.9022    0.5947   29.2356 C.ar    1  UNL1       -0.0241
     18 C           0.7353   -0.3390   29.1068 C.ar    1  UNL1       -0.0022
     19 C          -0.5667    0.1595   28.5534 C.ar    1  UNL1        0.0293
     20 C          -0.7018    1.5919   28.1288 C.ar    1  UNL1        0.1398
     21 F          -2.0038    2.0905   27.5754 F       1  UNL1       -0.2042
     22 C           0.4651    2.5256   28.2576 C.ar    1  UNL1        0.0251
     23 C           1.7671    2.0270   28.8109 C.ar    1  UNL1       -0.0235
     24 C           2.9339    2.9607   28.9397 C.3     1  UNL1        0.0308
     25 C           4.1597   -1.0993   27.5973 C.2     1  UNL1        0.2274
     26 O           3.5368   -2.4139   27.2317 O.2     1  UNL1       -0.2748
     27 N           4.7004   -0.2014   26.5243 N.am    1  UNL1       -0.2774
     28 C           5.3233    1.1133   26.8899 C.3     1  UNL1        0.1150
     29 C           4.6183   -0.6181   25.0857 C.3     1  UNL1        0.0794
     30 C           3.2350   -0.0447   24.9986 C.3     1  UNL1        0.0244
     31 C           6.0015   -1.1916   25.1729 C.3     1  UNL1        0.0244
     32 C           4.5361   -1.0349   23.6471 C.ar    1  UNL1       -0.0062
     33 C           3.2886   -0.7665   22.8586 C.ar    1  UNL1        0.0011
     34 C           3.2064   -1.1832   21.4200 C.ar    1  UNL1        0.0711
     35 C           4.3717   -1.8684   20.7699 C.ar    1  UNL1        0.0077
     36 C           5.6193   -2.1368   21.5585 C.ar    1  UNL1        0.0711
     37 C           5.7014   -1.7200   22.9971 C.ar    1  UNL1        0.0011
     38 C           1.9589   -0.9149   20.6315 C.3     1  UNL1        0.4186
     39 F           0.7115   -0.6465   19.8430 F       1  UNL1       -0.1659
     40 F           2.3342   -2.0016   19.6680 F       1  UNL1       -0.1659
     41 F           1.5837    0.1718   21.5950 F       1  UNL1       -0.1659
     42 C           6.7846   -2.8219   20.9084 C.3     1  UNL1        0.4186
     43 F           7.9499   -3.5070   20.2583 F       1  UNL1       -0.1659
     44 F           7.7004   -2.2550   21.9524 F       1  UNL1       -0.1659
     45 F           5.8689   -3.3889   19.8644 F       1  UNL1       -0.1659
@<TRIPOS>BOND
     1     8     9    1
     2     9    10    2
     3     9    11   am
     4    11    12    1
     5    12    13    1
     6    13    14    1
     7    14     1    1
     8     1     2    2
     9     1     3   am
    10     3     4    1
    11     4     5    1
    12     5    25    1
    13    25    26    2
    14    25    27   am
    15    27    28    1
    16    27    29    1
    17    29    30    1
    18    29    31    1
    19    29    32    1
    20    32    33   ar
    21    33    34   ar
    22    34    38    1
    23    38    39    1
    24    38    40    1
    25    38    41    1
    26    34    35   ar
    27    35    36   ar
    28    36    42    1
    29    42    43    1
    30    42    44    1
    31    42    45    1
    32    36    37   ar
    33     5     6    1
    34     6    17    1
    35    17    18   ar
    36    18    19   ar
    37    19    20   ar
    38    20    21    1
    39    20    22   ar
    40    22    23   ar
    41    23    24    1
    42     6     7    1
    43    14    15    1
    44    15    16    1
    45    16    11    1
    46     7     3    1
    47    37    32   ar
    48    23    17   ar
@<TRIPOS>MOLECULE
*****
 45 48 0 0 0
SMALL
GASTEIGER

@<TRIPOS>ATOM
      1 C           5.4996   -0.9496   25.1177 C.2     1  UNL1        0.2253
      2 O           6.8717   -1.2721   25.6308 O.2     1  UNL1       -0.2749
      3 N           4.5363   -0.1886   25.9796 N.am    1  UNL1       -0.2787
      4 C           4.8020    0.3130   27.3681 C.3     1  UNL1        0.1028
      5 C           3.5680    1.0161   27.8510 C.3     1  UNL1        0.1021
      6 C           2.5397    0.9491   26.7609 C.3     1  UNL1        0.0521
      7 C           3.1381    0.2045   25.6043 C.3     1  UNL1        0.0982
      8 C           3.5309   -4.1433   19.3580 C.3     1  UNL1        0.0948
      9 C           3.8642   -2.7041   19.6180 C.2     1  UNL1        0.2261
     10 O           3.7886   -1.7036   18.5030 O.2     1  UNL1       -0.2749
     11 N           4.2730   -2.2655   20.9929 N.am    1  UNL1       -0.2795
     12 C           4.3486   -3.2661   22.1078 C.3     1  UNL1        0.0939
     13 C           4.7575   -2.8274   23.4828 C.3     1  UNL1        0.0306
     14 C           5.0907   -1.3883   23.7428 C.3     1  UNL1        0.0801
     15 C           5.0151   -0.3877   22.6278 C.3     1  UNL1        0.0306
     16 C           4.6063   -0.8263   21.2529 C.3     1  UNL1        0.0939
     17 C           1.1561    1.5253   26.8174 C.ar    1  UNL1       -0.0241
     18 C           0.1023    0.8650   27.6561 C.ar    1  UNL1       -0.0022
     19 C          -1.2815    1.4412   27.7127 C.ar    1  UNL1        0.0293
     20 C          -1.6114    2.6779   26.9305 C.ar    1  UNL1        0.1398
     21 F          -2.9952    3.2542   26.9871 F       1  UNL1       -0.2042
     22 C          -0.5576    3.3382   26.0918 C.ar    1  UNL1        0.0251
     23 C           0.8261    2.7619   26.0352 C.ar    1  UNL1       -0.0235
     24 C           1.8798    3.4223   25.1965 C.3     1  UNL1        0.0308
     25 C           3.3931    1.6713   29.1889 C.2     1  UNL1        0.2274
     26 O           3.7653    3.1126   29.3726 O.2     1  UNL1       -0.2748
     27 N           2.8458    0.8850   30.3432 N.am    1  UNL1       -0.2774
     28 C           2.4736   -0.5564   30.1594 C.3     1  UNL1        0.1150
     29 C           2.6709    1.5401   31.6811 C.3     1  UNL1        0.0794
     30 C           4.0437    1.0877   32.0821 C.3     1  UNL1        0.0244
     31 C           1.2981    1.9925   31.2801 C.3     1  UNL1        0.0244
     32 C           2.4960    2.1953   33.0191 C.ar    1  UNL1       -0.0062
     33 C           1.6991    3.4607   33.1361 C.ar    1  UNL1        0.0011
     34 C           1.5241    4.1159   34.4741 C.ar    1  UNL1        0.0711
     35 C           2.1461    3.5056   35.6951 C.ar    1  UNL1        0.0077
     36 C           2.9430    2.2401   35.5780 C.ar    1  UNL1        0.0711
     37 C           3.1179    1.5850   34.2401 C.ar    1  UNL1        0.0011
     38 C           0.7272    5.3813   34.5911 C.3     1  UNL1        0.4186
     39 F          -0.0696    6.6467   34.7081 F       1  UNL1       -0.1659
     40 F           1.5987    5.8249   35.7286 F       1  UNL1       -0.1659
     41 F          -0.1442    4.9377   33.4536 F       1  UNL1       -0.1659
     42 C           3.5649    1.6298   36.7990 C.3     1  UNL1        0.4186
     43 F           4.1868    1.0196   38.0199 F       1  UNL1       -0.1659
     44 F           4.2234    0.5886   35.9432 F       1  UNL1       -0.1659
     45 F           2.9065    2.6709   37.6548 F       1  UNL1       -0.1659
@<TRIPOS>BOND
     1     8     9    1
     2     9    10    2
     3     9    11   am
     4    11    12    1
     5    12    13    1
     6    13    14    1
     7    14     1    1
     8     1     2    2
     9     1     3   am
    10     3     4    1
    11     4     5    1
    12     5    25    1
    13    25    26    2
    14    25    27   am
    15    27    28    1
    16    27    29    1
    17    29    30    1
    18    29    31    1
    19    29    32    1
    20    32    33   ar
    21    33    34   ar
    22    34    38    1
    23    38    39    1
    24    38    40    1
    25    38    41    1
    26    34    35   ar
    27    35    36   ar
    28    36    42    1
    29    42    43    1
    30    42    44    1
    31    42    45    1
    32    36    37   ar
    33     5     6    1
    34     6    17    1
    35    17    18   ar
    36    18    19   ar
    37    19    20   ar
    38    20    21    1
    39    20    22   ar
    40    22    23   ar
    41    23    24    1
    42     6     7    1
    43    14    15    1
    44    15    16    1
    45    16    11    1
    46     7     3    1
    47    37    32   ar
    48    23    17   ar
@<TRIPOS>MOLECULE
*****
 45 48 0 0 0
SMALL
GASTEIGER

@<TRIPOS>ATOM
      1 C           5.5058   -1.0455   25.1016 C.2     1  UNL1        0.2253
      2 O           6.8704   -1.3818   25.6258 O.2     1  UNL1       -0.2749
      3 N           4.5473   -0.2654   25.9516 N.am    1  UNL1       -0.2787
      4 C           4.8109    0.2434   27.3379 C.3     1  UNL1        0.1028
      5 C           3.5833    0.9662   27.8076 C.3     1  UNL1        0.1021
      6 C           2.5610    0.9041   26.7117 C.3     1  UNL1        0.0521
      7 C           3.1567    0.1430   25.5646 C.3     1  UNL1        0.0982
      8 C           3.5600   -4.2631   19.3474 C.3     1  UNL1        0.0948
      9 C           3.8816   -2.8209   19.6053 C.2     1  UNL1        0.2261
     10 O           3.7972   -1.8225   18.4890 O.2     1  UNL1       -0.2749
     11 N           4.2877   -2.3771   20.9794 N.am    1  UNL1       -0.2795
     12 C           4.3721   -3.3754   22.0956 C.3     1  UNL1        0.0939
     13 C           4.7782   -2.9316   23.4697 C.3     1  UNL1        0.0306
     14 C           5.0998   -1.4894   23.7275 C.3     1  UNL1        0.0801
     15 C           5.0153   -0.4910   22.6113 C.3     1  UNL1        0.0306
     16 C           4.6093   -0.9348   21.2372 C.3     1  UNL1        0.0939
     17 C           1.1846    1.4988   26.7551 C.ar    1  UNL1       -0.0241
     18 C           0.1358    0.8981   27.6434 C.ar    1  UNL1       -0.0022
     19 C          -1.2406    1.4927   27.6870 C.ar    1  UNL1        0.0293
     20 C          -1.5682    2.6881   26.8421 C.ar    1  UNL1        0.1398
     21 F          -2.9446    3.2828   26.8856 F       1  UNL1       -0.2042
     22 C          -0.5194    3.2888   25.9538 C.ar    1  UNL1        0.0251
     23 C           0.8570    2.6941   25.9103 C.ar    1  UNL1       -0.0235
     24 C           1.9058    3.2949   25.0220 C.3     1  UNL1        0.0308
     25 C           3.4087    1.6339   29.1394 C.2     1  UNL1        0.2274
     26 O           3.7854    3.0756   29.3108 O.2     1  UNL1       -0.2748
     27 N           2.8573    0.8597   30.2999 N.am    1  UNL1       -0.2774
     28 C           2.4806   -0.5821   30.1286 C.3     1  UNL1        0.1150
     29 C           2.6827    1.5274   31.6317 C.3     1  UNL1        0.0794
     30 C           4.0855    1.1495   32.0051 C.3     1  UNL1        0.0244
     31 C           1.2799    1.9053   31.2584 C.3     1  UNL1        0.0244
     32 C           2.5081    2.1950   32.9635 C.ar    1  UNL1       -0.0062
     33 C           3.1062    1.5810   34.1945 C.ar    1  UNL1        0.0011
     34 C           2.9316    2.2486   35.5263 C.ar    1  UNL1        0.0711
     35 C           2.1589    3.5303   35.6272 C.ar    1  UNL1        0.0077
     36 C           1.5607    4.1444   34.3962 C.ar    1  UNL1        0.0711
     37 C           1.7353    3.4767   33.0644 C.ar    1  UNL1        0.0011
     38 C           3.5297    1.6346   36.7573 C.3     1  UNL1        0.4186
     39 F           4.1279    1.0205   37.9881 F       1  UNL1       -0.1659
     40 F           4.5034    0.8753   35.9053 F       1  UNL1       -0.1659
     41 F           2.5561    2.3938   37.6091 F       1  UNL1       -0.1659
     42 C           0.7880    5.4261   34.4971 C.3     1  UNL1        0.4186
     43 F           0.0153    6.7077   34.5980 F       1  UNL1       -0.1659
     44 F           1.8832    6.0206   35.3320 F       1  UNL1       -0.1659
     45 F          -0.3072    4.8315   33.6622 F       1  UNL1       -0.1659
@<TRIPOS>BOND
     1     8     9    1
     2     9    10    2
     3     9    11   am
     4    11    12    1
     5    12    13    1
     6    13    14    1
     7    14     1    1
     8     1     2    2
     9     1     3   am
    10     3     4    1
    11     4     5    1
    12     5    25    1
    13    25    26    2
    14    25    27   am
    15    27    28    1
    16    27    29    1
    17    29    30    1
    18    29    31    1
    19    29    32    1
    20    32    33   ar
    21    33    34   ar
    22    34    38    1
    23    38    39    1
    24    38    40    1
    25    38    41    1
    26    34    35   ar
    27    35    36   ar
    28    36    42    1
    29    42    43    1
    30    42    44    1
    31    42    45    1
    32    36    37   ar
    33     5     6    1
    34     6    17    1
    35    17    18   ar
    36    18    19   ar
    37    19    20   ar
    38    20    21    1
    39    20    22   ar
    40    22    23   ar
    41    23    24    1
    42     6     7    1
    43    14    15    1
    44    15    16    1
    45    16    11    1
    46     7     3    1
    47    37    32   ar
    48    23    17   ar
