@<TRIPOS>MOLECULE
*****
 22 24 0 0 0
SMALL
GASTEIGER

@<TRIPOS>ATOM
      1 C          -9.7733  -18.9507   23.1179 C.2     1  UNL1       -0.0420
      2 C          -8.6292  -18.0970   22.6573 C.2     1  UNL1       -0.0240
      3 C          -8.2471  -17.1857   23.7858 C.ar    1  UNL1       -0.0078
      4 C          -7.1897  -16.1289   23.9084 C.ar    1  UNL1        0.0002
      5 C          -7.0404  -15.3625   25.1892 C.ar    1  UNL1        0.0114
      6 C          -7.9484  -15.6529   26.3473 C.ar    1  UNL1        0.0574
      7 CL         -7.7990  -14.8865   27.6280 Cl      1  UNL1       -0.0823
      8 C          -9.0058  -16.7097   26.2246 C.ar    1  UNL1        0.0074
      9 C          -9.1552  -17.4761   24.9439 C.ar    1  UNL1       -0.0176
     10 C         -10.0984  -18.5669   24.5311 C.3     1  UNL1        0.0480
     11 C         -10.4701  -20.0033   22.3076 C.3     1  UNL1        0.0394
     12 C         -11.2251  -19.6194   21.0697 C.3     1  UNL1        0.0765
     13 C         -11.2763  -17.3159   19.8691 C.3     1  UNL1        0.0897
     14 N         -11.7915  -18.2370   20.9351 N.3     1  UNL1       -0.2700
     15 C         -12.8730  -17.7757   21.8664 C.3     1  UNL1        0.0897
     16 C          -7.9809  -18.1461   21.3055 C.3     1  UNL1        0.0730
     17 C          -6.6699  -18.8532   21.1276 C.ar    1  UNL1        0.0825
     18 C          -6.6079  -20.1328   20.3474 C.ar    1  UNL1        0.1139
     19 N          -5.2971  -20.8400   20.1695 N.ar    1  UNL1       -0.2394
     20 C          -4.0483  -20.2675   20.7719 C.ar    1  UNL1        0.1195
     21 C          -4.1104  -18.9879   21.5521 C.ar    1  UNL1        0.1191
     22 N          -5.4212  -18.2807   21.7300 N.ar    1  UNL1       -0.2446
@<TRIPOS>BOND
     1    13    14    1
     2    14    15    1
     3    14    12    1
     4    12    11    1
     5    11     1    1
     6     1     2    2
     7     2    16    1
     8    16    17    1
     9    17    18   ar
    10    18    19   ar
    11    19    20   ar
    12    20    21   ar
    13    21    22   ar
    14     2     3    1
    15     3     4   ar
    16     4     5   ar
    17     5     6   ar
    18     6     7    1
    19     6     8   ar
    20     8     9   ar
    21     9    10    1
    22    10     1    1
    23    22    17   ar
    24     9     3   ar
@<TRIPOS>MOLECULE
*****
 22 24 0 0 0
SMALL
GASTEIGER

@<TRIPOS>ATOM
      1 C          -7.7877  -18.6014   21.2808 C.2     1  UNL1       -0.0420
      2 C          -6.3141  -18.7574   21.5134 C.2     1  UNL1       -0.0240
      3 C          -5.9182  -17.8255   22.6201 C.ar    1  UNL1       -0.0078
      4 C          -4.5975  -17.5489   23.2751 C.ar    1  UNL1        0.0002
      5 C          -4.5057  -16.5403   24.3816 C.ar    1  UNL1        0.0114
      6 C          -5.7347  -15.8083   24.8330 C.ar    1  UNL1        0.0574
      7 CL         -5.6429  -14.7997   25.9395 Cl      1  UNL1       -0.0823
      8 C          -7.0555  -16.0850   24.1780 C.ar    1  UNL1        0.0074
      9 C          -7.1472  -17.0936   23.0716 C.ar    1  UNL1       -0.0176
     10 C          -8.3026  -17.5731   22.2438 C.3     1  UNL1        0.0480
     11 C          -8.6033  -19.3435   20.2638 C.3     1  UNL1        0.0394
     12 C         -10.0079  -18.9089   19.9669 C.3     1  UNL1        0.0765
     13 C         -11.0388  -20.1453   22.0063 C.3     1  UNL1        0.0897
     14 N         -11.0639  -19.0087   21.0276 N.3     1  UNL1       -0.2700
     15 C         -12.1448  -17.9721   21.1095 C.3     1  UNL1        0.0897
     16 C          -5.3973  -19.6829   20.7698 C.3     1  UNL1        0.0730
     17 C          -4.0118  -19.2355   20.4082 C.ar    1  UNL1        0.0825
     18 C          -2.8241  -19.8486   21.0891 C.ar    1  UNL1        0.1139
     19 N          -1.4388  -19.4013   20.7276 N.ar    1  UNL1       -0.2394
     20 C          -1.2412  -18.3409   19.6852 C.ar    1  UNL1        0.1195
     21 C          -2.4289  -17.7278   19.0044 C.ar    1  UNL1        0.1191
     22 N          -3.8142  -18.1751   19.3659 N.ar    1  UNL1       -0.2446
@<TRIPOS>BOND
     1    13    14    1
     2    14    15    1
     3    14    12    1
     4    12    11    1
     5    11     1    1
     6     1     2    2
     7     2    16    1
     8    16    17    1
     9    17    18   ar
    10    18    19   ar
    11    19    20   ar
    12    20    21   ar
    13    21    22   ar
    14     2     3    1
    15     3     4   ar
    16     4     5   ar
    17     5     6   ar
    18     6     7    1
    19     6     8   ar
    20     8     9   ar
    21     9    10    1
    22    10     1    1
    23    22    17   ar
    24     9     3   ar
@<TRIPOS>MOLECULE
*****
 22 24 0 0 0
SMALL
GASTEIGER

@<TRIPOS>ATOM
      1 C          -8.7852  -19.1017   21.0360 C.2     1  UNL1       -0.0420
      2 C          -8.2187  -18.1068   22.0052 C.2     1  UNL1       -0.0240
      3 C          -6.7405  -18.3433   22.1015 C.ar    1  UNL1       -0.0078
      4 C          -5.6658  -17.6670   22.8999 C.ar    1  UNL1        0.0002
      5 C          -4.2440  -18.1319   22.7887 C.ar    1  UNL1        0.0114
      6 C          -3.8970  -19.2729   21.8791 C.ar    1  UNL1        0.0574
      7 CL         -2.4751  -19.7378   21.7679 Cl      1  UNL1       -0.0823
      8 C          -4.9717  -19.9492   21.0806 C.ar    1  UNL1        0.0074
      9 C          -6.3935  -19.4844   21.1918 C.ar    1  UNL1       -0.0176
     10 C          -7.6571  -19.9530   20.5334 C.3     1  UNL1        0.0480
     11 C         -10.2266  -19.2237   20.6392 C.3     1  UNL1        0.0394
     12 C         -10.8258  -18.2403   19.6782 C.3     1  UNL1        0.0765
     13 C         -11.8061  -15.8423   19.4808 C.3     1  UNL1        0.0897
     14 N         -11.7480  -17.1686   20.1792 N.3     1  UNL1       -0.2700
     15 C         -12.6120  -17.4231   21.3787 C.3     1  UNL1        0.0897
     16 C          -8.9941  -17.0592   22.7477 C.3     1  UNL1        0.0730
     17 C          -8.8033  -16.8920   24.2262 C.ar    1  UNL1        0.0825
     18 C          -9.3488  -17.9189   25.1738 C.ar    1  UNL1        0.1139
     19 N          -9.1580  -17.7517   26.6521 N.ar    1  UNL1       -0.2394
     20 C          -8.4217  -16.5575   27.1829 C.ar    1  UNL1        0.1195
     21 C          -7.8762  -15.5306   26.2354 C.ar    1  UNL1        0.1191
     22 N          -8.0669  -15.6978   24.7570 N.ar    1  UNL1       -0.2446
@<TRIPOS>BOND
     1    13    14    1
     2    14    15    1
     3    14    12    1
     4    12    11    1
     5    11     1    1
     6     1     2    2
     7     2    16    1
     8    16    17    1
     9    17    18   ar
    10    18    19   ar
    11    19    20   ar
    12    20    21   ar
    13    21    22   ar
    14     2     3    1
    15     3     4   ar
    16     4     5   ar
    17     5     6   ar
    18     6     7    1
    19     6     8   ar
    20     8     9   ar
    21     9    10    1
    22    10     1    1
    23    22    17   ar
    24     9     3   ar
@<TRIPOS>MOLECULE
*****
 22 24 0 0 0
SMALL
GASTEIGER

@<TRIPOS>ATOM
      1 C         -10.0519  -19.2697   21.0712 C.2     1  UNL1       -0.0420
      2 C          -9.1636  -19.1931   22.2774 C.2     1  UNL1       -0.0240
      3 C          -7.7396  -19.2395   21.8082 C.ar    1  UNL1       -0.0078
      4 C          -6.4366  -19.1995   22.5501 C.ar    1  UNL1        0.0002
      5 C          -5.1418  -19.2649   21.7956 C.ar    1  UNL1        0.0114
      6 C          -5.1500  -19.3702   20.2994 C.ar    1  UNL1        0.0574
      7 CL         -3.8551  -19.4355   19.5450 Cl      1  UNL1       -0.0823
      8 C          -6.4531  -19.4102   19.5575 C.ar    1  UNL1        0.0074
      9 C          -7.7479  -19.3449   20.3119 C.ar    1  UNL1       -0.0176
     10 C          -9.1770  -19.3635   19.8565 C.3     1  UNL1        0.0480
     11 C         -11.5518  -19.2551   21.0785 C.3     1  UNL1        0.0394
     12 C         -12.2891  -17.9489   21.0959 C.3     1  UNL1        0.0765
     13 C         -12.1933  -15.8153   22.5754 C.3     1  UNL1        0.0897
     14 N         -12.5616  -17.2588   22.3996 N.3     1  UNL1       -0.2700
     15 C         -13.2023  -18.0121   23.5273 C.3     1  UNL1        0.0897
     16 C          -9.6192  -19.0884   23.7027 C.3     1  UNL1        0.0730
     17 C          -9.2125  -17.9088   24.5355 C.ar    1  UNL1        0.0825
     18 C          -8.8943  -16.5995   23.8764 C.ar    1  UNL1        0.1139
     19 N          -8.4875  -15.4200   24.7090 N.ar    1  UNL1       -0.2394
     20 C          -8.3990  -15.5498   26.2007 C.ar    1  UNL1        0.1195
     21 C          -8.7172  -16.8592   26.8598 C.ar    1  UNL1        0.1191
     22 N          -9.1240  -18.0387   26.0272 N.ar    1  UNL1       -0.2446
@<TRIPOS>BOND
     1    13    14    1
     2    14    15    1
     3    14    12    1
     4    12    11    1
     5    11     1    1
     6     1     2    2
     7     2    16    1
     8    16    17    1
     9    17    18   ar
    10    18    19   ar
    11    19    20   ar
    12    20    21   ar
    13    21    22   ar
    14     2     3    1
    15     3     4   ar
    16     4     5   ar
    17     5     6   ar
    18     6     7    1
    19     6     8   ar
    20     8     9   ar
    21     9    10    1
    22    10     1    1
    23    22    17   ar
    24     9     3   ar
@<TRIPOS>MOLECULE
*****
 22 24 0 0 0
SMALL
GASTEIGER

@<TRIPOS>ATOM
      1 C          -7.5253  -17.4413   23.2650 C.2     1  UNL1       -0.0420
      2 C          -7.8069  -18.6095   22.3671 C.2     1  UNL1       -0.0240
      3 C          -6.4973  -19.1114   21.8349 C.ar    1  UNL1       -0.0078
      4 C          -6.1574  -20.2387   20.9058 C.ar    1  UNL1        0.0002
      5 C          -4.7265  -20.5082   20.5455 C.ar    1  UNL1        0.0114
      6 C          -3.6355  -19.6503   21.1145 C.ar    1  UNL1        0.0574
      7 CL         -2.2045  -19.9198   20.7542 Cl      1  UNL1       -0.0823
      8 C          -3.9754  -18.5229   22.0437 C.ar    1  UNL1        0.0074
      9 C          -5.4064  -18.2534   22.4039 C.ar    1  UNL1       -0.0176
     10 C          -6.0417  -17.2213   23.2877 C.3     1  UNL1        0.0480
     11 C          -8.5477  -16.6349   24.0095 C.3     1  UNL1        0.0394
     12 C          -8.1193  -15.4554   24.8313 C.3     1  UNL1        0.0765
     13 C          -8.2637  -16.2605   27.2973 C.3     1  UNL1        0.0897
     14 N          -7.4735  -15.6678   26.1683 N.3     1  UNL1       -0.2700
     15 C          -6.0375  -15.2875   26.3765 C.3     1  UNL1        0.0897
     16 C          -9.1604  -19.1762   22.0561 C.3     1  UNL1        0.0730
     17 C         -10.2837  -18.2629   21.6632 C.ar    1  UNL1        0.0825
     18 C         -11.6102  -18.3647   22.3560 C.ar    1  UNL1        0.1139
     19 N         -12.7335  -17.4515   21.9633 N.ar    1  UNL1       -0.2394
     20 C         -12.5302  -16.4365   20.8777 C.ar    1  UNL1        0.1195
     21 C         -11.2037  -16.3348   20.1849 C.ar    1  UNL1        0.1191
     22 N         -10.0804  -17.2480   20.5776 N.ar    1  UNL1       -0.2446
@<TRIPOS>BOND
     1    13    14    1
     2    14    15    1
     3    14    12    1
     4    12    11    1
     5    11     1    1
     6     1     2    2
     7     2    16    1
     8    16    17    1
     9    17    18   ar
    10    18    19   ar
    11    19    20   ar
    12    20    21   ar
    13    21    22   ar
    14     2     3    1
    15     3     4   ar
    16     4     5   ar
    17     5     6   ar
    18     6     7    1
    19     6     8   ar
    20     8     9   ar
    21     9    10    1
    22    10     1    1
    23    22    17   ar
    24     9     3   ar
@<TRIPOS>MOLECULE
*****
 22 24 0 0 0
SMALL
GASTEIGER

@<TRIPOS>ATOM
      1 C          -8.5948  -18.2029   21.6080 C.2     1  UNL1       -0.0420
      2 C          -7.7398  -17.3238   22.4717 C.2     1  UNL1       -0.0240
      3 C          -6.3334  -17.8421   22.4121 C.ar    1  UNL1       -0.0078
      4 C          -5.0639  -17.3768   23.0616 C.ar    1  UNL1        0.0002
      5 C          -3.7803  -18.1109   22.8104 C.ar    1  UNL1        0.0114
      6 C          -3.7661  -19.3104   21.9098 C.ar    1  UNL1        0.0574
      7 CL         -2.4823  -20.0446   21.6586 Cl      1  UNL1       -0.0823
      8 C          -5.0356  -19.7757   21.2603 C.ar    1  UNL1        0.0074
      9 C          -6.3193  -19.0415   21.5115 C.ar    1  UNL1       -0.0176
     10 C          -7.7169  -19.2645   21.0145 C.3     1  UNL1        0.0480
     11 C         -10.0689  -18.0476   21.3780 C.3     1  UNL1        0.0394
     12 C         -11.0326  -19.0019   22.0189 C.3     1  UNL1        0.0765
     13 C         -13.0117  -17.8774   23.2713 C.3     1  UNL1        0.0897
     14 N         -11.7147  -18.6303   23.3021 N.3     1  UNL1       -0.2700
     15 C         -11.0998  -19.0116   24.6160 C.3     1  UNL1        0.0897
     16 C          -8.2088  -16.1351   23.2573 C.3     1  UNL1        0.0730
     17 C          -7.7931  -15.9708   24.6892 C.ar    1  UNL1        0.0825
     18 C          -6.5353  -15.2254   25.0243 C.ar    1  UNL1        0.1139
     19 N          -6.1196  -15.0611   26.4561 N.ar    1  UNL1       -0.2394
     20 C          -6.9617  -15.6424   27.5529 C.ar    1  UNL1        0.1195
     21 C          -8.2194  -16.3879   27.2178 C.ar    1  UNL1        0.1191
     22 N          -8.6352  -16.5521   25.7860 N.ar    1  UNL1       -0.2446
@<TRIPOS>BOND
     1    13    14    1
     2    14    15    1
     3    14    12    1
     4    12    11    1
     5    11     1    1
     6     1     2    2
     7     2    16    1
     8    16    17    1
     9    17    18   ar
    10    18    19   ar
    11    19    20   ar
    12    20    21   ar
    13    21    22   ar
    14     2     3    1
    15     3     4   ar
    16     4     5   ar
    17     5     6   ar
    18     6     7    1
    19     6     8   ar
    20     8     9   ar
    21     9    10    1
    22    10     1    1
    23    22    17   ar
    24     9     3   ar
@<TRIPOS>MOLECULE
*****
 22 24 0 0 0
SMALL
GASTEIGER

@<TRIPOS>ATOM
      1 C          -6.9047  -16.0983   23.5577 C.2     1  UNL1       -0.0420
      2 C          -7.4007  -17.0868   22.5444 C.2     1  UNL1       -0.0240
      3 C          -6.2551  -17.9787   22.1675 C.ar    1  UNL1       -0.0078
      4 C          -6.1527  -19.1326   21.2146 C.ar    1  UNL1        0.0002
      5 C          -4.8463  -19.8491   21.0420 C.ar    1  UNL1        0.0114
      6 C          -3.6423  -19.4118   21.8224 C.ar    1  UNL1        0.0574
      7 CL         -2.3358  -20.1284   21.6498 Cl      1  UNL1       -0.0823
      8 C          -3.7446  -18.2579   22.7753 C.ar    1  UNL1        0.0074
      9 C          -5.0510  -17.5414   22.9479 C.ar    1  UNL1       -0.0176
     10 C          -5.4526  -16.3792   23.8070 C.3     1  UNL1        0.0480
     11 C          -7.7181  -15.0184   24.2075 C.3     1  UNL1        0.0394
     12 C          -8.6001  -15.3442   25.3761 C.3     1  UNL1        0.0765
     13 C          -6.7341  -15.2985   27.1833 C.3     1  UNL1        0.0897
     14 N          -8.0012  -15.8886   26.6390 N.3     1  UNL1       -0.2700
     15 C          -8.6694  -17.0231   27.3576 C.3     1  UNL1        0.0897
     16 C          -8.7972  -17.1690   22.0029 C.3     1  UNL1        0.0730
     17 C          -9.8985  -17.7329   22.8511 C.ar    1  UNL1        0.0825
     18 C          -9.5784  -18.7092   23.9440 C.ar    1  UNL1        0.1139
     19 N         -10.6796  -19.2731   24.7922 N.ar    1  UNL1       -0.2394
     20 C         -12.1008  -18.8607   24.5474 C.ar    1  UNL1        0.1195
     21 C         -12.4209  -17.8844   23.4545 C.ar    1  UNL1        0.1191
     22 N         -11.3197  -17.3205   22.6064 N.ar    1  UNL1       -0.2446
@<TRIPOS>BOND
     1    13    14    1
     2    14    15    1
     3    14    12    1
     4    12    11    1
     5    11     1    1
     6     1     2    2
     7     2    16    1
     8    16    17    1
     9    17    18   ar
    10    18    19   ar
    11    19    20   ar
    12    20    21   ar
    13    21    22   ar
    14     2     3    1
    15     3     4   ar
    16     4     5   ar
    17     5     6   ar
    18     6     7    1
    19     6     8   ar
    20     8     9   ar
    21     9    10    1
    22    10     1    1
    23    22    17   ar
    24     9     3   ar
@<TRIPOS>MOLECULE
*****
 22 24 0 0 0
SMALL
GASTEIGER

@<TRIPOS>ATOM
      1 C          -4.7449  -19.0302   21.7015 C.2     1  UNL1       -0.0420
      2 C          -6.1633  -18.5445   21.7475 C.2     1  UNL1       -0.0240
      3 C          -6.2702  -17.5289   22.8461 C.ar    1  UNL1       -0.0078
      4 C          -7.4243  -16.7151   23.3518 C.ar    1  UNL1        0.0002
      5 C          -7.2260  -15.7592   24.4906 C.ar    1  UNL1        0.0114
      6 C          -5.8736  -15.6171   25.1237 C.ar    1  UNL1        0.0574
      7 CL         -5.6753  -14.6612   26.2626 Cl      1  UNL1       -0.0823
      8 C          -4.7195  -16.4309   24.6180 C.ar    1  UNL1        0.0074
      9 C          -4.9178  -17.3868   23.4792 C.ar    1  UNL1       -0.0176
     10 C          -3.9751  -18.3147   22.7718 C.3     1  UNL1        0.0480
     11 C          -4.1931  -20.0519   20.7520 C.3     1  UNL1        0.0394
     12 C          -3.5768  -19.6157   19.4559 C.3     1  UNL1        0.0765
     13 C          -2.7781  -17.2788   18.6491 C.3     1  UNL1        0.0897
     14 N          -2.5436  -18.5284   19.4451 N.3     1  UNL1       -0.2700
     15 C          -1.2759  -18.6907   20.2303 C.3     1  UNL1        0.0897
     16 C          -7.2791  -18.9954   20.8520 C.3     1  UNL1        0.0730
     17 C          -8.7021  -18.8861   21.3137 C.ar    1  UNL1        0.0825
     18 C          -9.2019  -19.7687   22.4187 C.ar    1  UNL1        0.1139
     19 N         -10.6249  -19.6595   22.8804 N.ar    1  UNL1       -0.2394
     20 C         -11.5481  -18.6677   22.2370 C.ar    1  UNL1        0.1195
     21 C         -11.0482  -17.7851   21.1320 C.ar    1  UNL1        0.1191
     22 N          -9.6253  -17.8942   20.6703 N.ar    1  UNL1       -0.2446
@<TRIPOS>BOND
     1    13    14    1
     2    14    15    1
     3    14    12    1
     4    12    11    1
     5    11     1    1
     6     1     2    2
     7     2    16    1
     8    16    17    1
     9    17    18   ar
    10    18    19   ar
    11    19    20   ar
    12    20    21   ar
    13    21    22   ar
    14     2     3    1
    15     3     4   ar
    16     4     5   ar
    17     5     6   ar
    18     6     7    1
    19     6     8   ar
    20     8     9   ar
    21     9    10    1
    22    10     1    1
    23    22    17   ar
    24     9     3   ar
@<TRIPOS>MOLECULE
*****
 22 24 0 0 0
SMALL
GASTEIGER

@<TRIPOS>ATOM
      1 C          -4.8980  -17.2294   23.1095 C.2     1  UNL1       -0.0420
      2 C          -4.7064  -18.4868   22.3144 C.2     1  UNL1       -0.0240
      3 C          -3.3886  -18.3900   21.6044 C.ar    1  UNL1       -0.0078
      4 C          -2.6753  -19.3311   20.6795 C.ar    1  UNL1        0.0002
      5 C          -1.3391  -18.9550   20.1110 C.ar    1  UNL1        0.0114
      6 C          -0.7163  -17.6378   20.4674 C.ar    1  UNL1        0.0574
      7 CL          0.6199  -17.2617   19.8988 Cl      1  UNL1       -0.0823
      8 C          -1.4296  -16.6967   21.3923 C.ar    1  UNL1        0.0074
      9 C          -2.7657  -17.0728   21.9608 C.ar    1  UNL1       -0.0176
     10 C          -3.6986  -16.3555   22.8910 C.3     1  UNL1        0.0480
     11 C          -6.0813  -16.9032   23.9717 C.3     1  UNL1        0.0394
     12 C          -6.0687  -15.6715   24.8278 C.3     1  UNL1        0.0765
     13 C          -8.5735  -15.4352   25.4760 C.3     1  UNL1        0.0897
     14 N          -7.1271  -15.4730   25.8719 N.3     1  UNL1       -0.2700
     15 C          -6.7393  -15.3123   27.3120 C.3     1  UNL1        0.0897
     16 C          -5.6644  -19.6387   22.2419 C.3     1  UNL1        0.0730
     17 C          -6.9728  -19.4821   21.5251 C.ar    1  UNL1        0.0825
     18 C          -6.9995  -19.3634   20.0301 C.ar    1  UNL1        0.1139
     19 N          -8.3078  -19.2068   19.3133 N.ar    1  UNL1       -0.2394
     20 C          -9.5895  -19.1690   20.0917 C.ar    1  UNL1        0.1195
     21 C          -9.5628  -19.2877   21.5867 C.ar    1  UNL1        0.1191
     22 N          -8.2545  -19.4443   22.3035 N.ar    1  UNL1       -0.2446
@<TRIPOS>BOND
     1    13    14    1
     2    14    15    1
     3    14    12    1
     4    12    11    1
     5    11     1    1
     6     1     2    2
     7     2    16    1
     8    16    17    1
     9    17    18   ar
    10    18    19   ar
    11    19    20   ar
    12    20    21   ar
    13    21    22   ar
    14     2     3    1
    15     3     4   ar
    16     4     5   ar
    17     5     6   ar
    18     6     7    1
    19     6     8   ar
    20     8     9   ar
    21     9    10    1
    22    10     1    1
    23    22    17   ar
    24     9     3   ar
