@<TRIPOS>MOLECULE
*****
 35 38 0 0 0
SMALL
GASTEIGER

@<TRIPOS>ATOM
      1 C         -10.6728  -16.6688   22.9822 C.ar    1  UNL1        0.1472
      2 N          -9.7360  -17.7887   22.6386 N.ar    1  UNL1       -0.1976
      3 C         -10.1880  -18.8920   21.7283 C.ar    1  UNL1        0.2229
      4 N         -11.5767  -18.8753   21.1617 N.ar    1  UNL1       -0.2110
      5 C         -12.5136  -17.7554   21.5054 C.ar    1  UNL1        0.1160
      6 C         -12.0616  -16.6522   22.4156 C.ar    1  UNL1        0.1085
      7 CL        -12.9985  -15.5322   22.7593 Cl      1  UNL1       -0.0777
      8 N         -10.2209  -15.5656   23.8925 N.pl3   1  UNL1       -0.2971
      9 H         -10.8366  -14.8318   24.1200 H       1  UNL1        0.1536
     10 C          -6.2643  -15.3576   24.1203 C.ar    1  UNL1        0.0515
     11 C          -6.0510  -15.6097   25.5835 C.ar    1  UNL1        0.0148
     12 C          -7.2276  -15.8472   26.4830 C.ar    1  UNL1        0.0025
     13 C          -8.6176  -15.8325   25.9193 C.ar    1  UNL1        0.0147
     14 C          -8.8309  -15.5803   24.4562 C.ar    1  UNL1        0.0506
     15 C          -7.6542  -15.3428   23.5567 C.ar    1  UNL1        0.0293
     16 C          -2.8193  -15.9071   22.2281 C.3     1  UNL1        0.0949
     17 C          -3.9960  -16.1445   23.1277 C.2     1  UNL1        0.2266
     18 O          -4.0809  -17.4066   23.9340 O.2     1  UNL1       -0.2748
     19 N          -5.0876  -15.1201   23.2208 N.am    1  UNL1       -0.2839
     20 H          -5.0319  -14.2918   22.6916 H       1  UNL1        0.1549
     21 N          -9.2511  -20.0119   21.3846 N.pl3   1  UNL1       -0.2679
     22 H          -9.5934  -20.9309   21.2979 H       1  UNL1        0.1565
     23 C          -7.7929  -19.7316   21.1730 C.ar    1  UNL1        0.1344
     24 C          -6.8043  -20.0428   22.2573 C.ar    1  UNL1        0.0358
     25 C          -5.3459  -19.7626   22.0457 C.ar    1  UNL1        0.0190
     26 C          -4.8762  -19.1711   20.7498 C.ar    1  UNL1        0.0675
     27 C          -5.8649  -18.8599   19.6654 C.ar    1  UNL1        0.1147
     28 N          -7.3231  -19.1402   19.8770 N.ar    1  UNL1       -0.2277
     29 N          -3.4179  -18.8908   20.5382 N.pl3   1  UNL1       -0.3034
     30 C          -2.9671  -18.1444   19.3177 C.3     1  UNL1        0.1082
     31 C          -1.5088  -17.8641   19.1060 C.3     1  UNL1        0.0938
     32 N          -0.5013  -18.3302   20.1149 N.3     1  UNL1       -0.2686
     33 C           0.9570  -18.0499   19.9033 C.3     1  UNL1        0.0897
     34 C          -0.9522  -19.0766   21.3354 C.3     1  UNL1        0.0938
     35 C          -2.4105  -19.3569   21.5470 C.3     1  UNL1        0.1082
@<TRIPOS>BOND
     1    16    17    1
     2    17    18    2
     3    17    19   am
     4    19    10    1
     5    10    11   ar
     6    11    12   ar
     7    12    13   ar
     8    13    14   ar
     9    14     8    1
    10     8     1    1
    11     1     2   ar
    12     2     3   ar
    13     3    21    1
    14    21    23    1
    15    23    24   ar
    16    24    25   ar
    17    25    26   ar
    18    26    29    1
    19    29    30    1
    20    30    31    1
    21    31    32    1
    22    32    33    1
    23    32    34    1
    24    34    35    1
    25    26    27   ar
    26    27    28   ar
    27     3     4   ar
    28     4     5   ar
    29     5     6   ar
    30     6     7    1
    31    14    15   ar
    32    15    10   ar
    33     6     1   ar
    34    28    23   ar
    35    35    29    1
    36    19    20    1
    37     8     9    1
    38    21    22    1
@<TRIPOS>MOLECULE
*****
 35 38 0 0 0
SMALL
GASTEIGER

@<TRIPOS>ATOM
      1 C          -3.4142  -17.3096   21.8998 C.ar    1  UNL1        0.1472
      2 N          -4.5673  -18.2373   21.6554 N.ar    1  UNL1       -0.1976
      3 C          -4.5498  -19.1602   20.4730 C.ar    1  UNL1        0.2229
      4 N          -3.3792  -19.1554   19.5351 N.ar    1  UNL1       -0.2110
      5 C          -2.2261  -18.2277   19.7795 C.ar    1  UNL1        0.1160
      6 C          -2.2435  -17.3048   20.9619 C.ar    1  UNL1        0.1085
      7 CL         -1.0904  -16.3772   21.2063 Cl      1  UNL1       -0.0777
      8 N          -3.4316  -16.3868   23.0822 N.pl3   1  UNL1       -0.2971
      9 H          -2.6058  -15.9296   23.3621 H       1  UNL1        0.1536
     10 C          -7.3033  -16.0743   23.8962 C.ar    1  UNL1        0.0515
     11 C          -7.2586  -15.7076   25.3500 C.ar    1  UNL1        0.0148
     12 C          -5.9382  -15.5673   26.0479 C.ar    1  UNL1        0.0025
     13 C          -4.6626  -15.7937   25.2920 C.ar    1  UNL1        0.0147
     14 C          -4.7073  -16.1604   23.8382 C.ar    1  UNL1        0.0506
     15 C          -6.0276  -16.3007   23.1403 C.ar    1  UNL1        0.0293
     16 C         -10.1739  -15.6703   21.1858 C.3     1  UNL1        0.0949
     17 C          -8.8536  -15.5300   21.8837 C.2     1  UNL1        0.2266
     18 O          -7.7632  -14.7050   21.2668 O.2     1  UNL1       -0.2748
     19 N          -8.6236  -16.2146   23.1984 N.am    1  UNL1       -0.2839
     20 H          -9.3393  -16.7561   23.6032 H       1  UNL1        0.1549
     21 N          -5.7029  -20.0878   20.2285 N.pl3   1  UNL1       -0.2679
     22 H          -5.5854  -20.8784   19.6537 H       1  UNL1        0.1565
     23 C          -7.0351  -19.8110   20.8599 C.ar    1  UNL1        0.1344
     24 C          -7.2515  -20.1064   22.3144 C.ar    1  UNL1        0.0358
     25 C          -8.5837  -19.8296   22.9459 C.ar    1  UNL1        0.0190
     26 C          -9.6995  -19.2573   22.1226 C.ar    1  UNL1        0.0675
     27 C          -9.4829  -18.9619   20.6680 C.ar    1  UNL1        0.1147
     28 N          -8.1508  -19.2387   20.0366 N.ar    1  UNL1       -0.2277
     29 N         -11.0316  -18.9805   22.7540 N.pl3   1  UNL1       -0.3034
     30 C         -11.2283  -19.2129   24.2227 C.3     1  UNL1        0.1082
     31 C         -12.5605  -18.9361   24.8542 C.3     1  UNL1        0.0938
     32 N         -13.6960  -18.4268   24.0167 N.3     1  UNL1       -0.2686
     33 C         -15.0282  -18.1500   24.6481 C.3     1  UNL1        0.0897
     34 C         -13.4993  -18.1944   22.5479 C.3     1  UNL1        0.0938
     35 C         -12.1672  -18.4713   21.9166 C.3     1  UNL1        0.1082
@<TRIPOS>BOND
     1    16    17    1
     2    17    18    2
     3    17    19   am
     4    19    10    1
     5    10    11   ar
     6    11    12   ar
     7    12    13   ar
     8    13    14   ar
     9    14     8    1
    10     8     1    1
    11     1     2   ar
    12     2     3   ar
    13     3    21    1
    14    21    23    1
    15    23    24   ar
    16    24    25   ar
    17    25    26   ar
    18    26    29    1
    19    29    30    1
    20    30    31    1
    21    31    32    1
    22    32    33    1
    23    32    34    1
    24    34    35    1
    25    26    27   ar
    26    27    28   ar
    27     3     4   ar
    28     4     5   ar
    29     5     6   ar
    30     6     7    1
    31    14    15   ar
    32    15    10   ar
    33     6     1   ar
    34    28    23   ar
    35    35    29    1
    36    19    20    1
    37     8     9    1
    38    21    22    1
@<TRIPOS>MOLECULE
*****
 35 38 0 0 0
SMALL
GASTEIGER

@<TRIPOS>ATOM
      1 C           6.3595   -3.9644   28.2609 C.ar    1  UNL1        0.1472
      2 N           6.4511   -3.4366   29.6620 N.ar    1  UNL1       -0.1976
      3 C           6.9968   -4.3053   30.7565 C.ar    1  UNL1        0.2229
      4 N           7.4508   -5.7016   30.4498 N.ar    1  UNL1       -0.2110
      5 C           7.3592   -6.2293   29.0487 C.ar    1  UNL1        0.1160
      6 C           6.8136   -5.3608   27.9543 C.ar    1  UNL1        0.1085
      7 CL          6.7220   -5.8885   26.5532 Cl      1  UNL1       -0.0777
      8 N           5.8139   -3.0958   27.1665 N.pl3   1  UNL1       -0.2971
      9 H           5.8535   -3.3997   26.2309 H       1  UNL1        0.1536
     10 C           3.1144   -0.2496   27.7680 C.ar    1  UNL1        0.0515
     11 C           3.9960    0.8991   28.1595 C.ar    1  UNL1        0.0148
     12 C           5.4835    0.7162   28.2199 C.ar    1  UNL1        0.0025
     13 C           6.0895   -0.6154   27.8890 C.ar    1  UNL1        0.0147
     14 C           5.2079   -1.7641   27.4975 C.ar    1  UNL1        0.0506
     15 C           3.7204   -1.5812   27.4370 C.ar    1  UNL1        0.0293
     16 C          -0.6834   -0.0110   28.8949 C.3     1  UNL1        0.0949
     17 C           0.8042   -0.1939   28.9553 C.2     1  UNL1        0.2266
     18 O           1.4691   -0.5041   30.2637 O.2     1  UNL1       -0.2748
     19 N           1.6268   -0.0667   27.7076 N.am    1  UNL1       -0.2839
     20 H           1.1904    0.1369   26.8489 H       1  UNL1        0.1549
     21 N           7.0884   -3.7775   32.1576 N.pl3   1  UNL1       -0.2679
     22 H           7.6800   -4.2159   32.8111 H       1  UNL1        0.1565
     23 C           6.2786   -2.5818   32.5631 C.ar    1  UNL1        0.1344
     24 C           4.8826   -2.7622   33.0813 C.ar    1  UNL1        0.0358
     25 C           4.0728   -1.5664   33.4869 C.ar    1  UNL1        0.0190
     26 C           4.6590   -0.1903   33.3741 C.ar    1  UNL1        0.0675
     27 C           6.0550   -0.0100   32.8558 C.ar    1  UNL1        0.1147
     28 N           6.8648   -1.2057   32.4504 N.ar    1  UNL1       -0.2277
     29 N           3.8492    1.0054   33.7796 N.pl3   1  UNL1       -0.3034
     30 C           2.6540    1.4115   32.9694 C.3     1  UNL1        0.1082
     31 C           1.8441    2.6073   33.3748 C.3     1  UNL1        0.0938
     32 N           2.2295    3.3969   34.5906 N.3     1  UNL1       -0.2686
     33 C           1.4198    4.5926   34.9960 C.3     1  UNL1        0.0897
     34 C           3.4248    2.9907   35.4008 C.3     1  UNL1        0.0938
     35 C           4.2346    1.7950   34.9953 C.3     1  UNL1        0.1082
@<TRIPOS>BOND
     1    16    17    1
     2    17    18    2
     3    17    19   am
     4    19    10    1
     5    10    11   ar
     6    11    12   ar
     7    12    13   ar
     8    13    14   ar
     9    14     8    1
    10     8     1    1
    11     1     2   ar
    12     2     3   ar
    13     3    21    1
    14    21    23    1
    15    23    24   ar
    16    24    25   ar
    17    25    26   ar
    18    26    29    1
    19    29    30    1
    20    30    31    1
    21    31    32    1
    22    32    33    1
    23    32    34    1
    24    34    35    1
    25    26    27   ar
    26    27    28   ar
    27     3     4   ar
    28     4     5   ar
    29     5     6   ar
    30     6     7    1
    31    14    15   ar
    32    15    10   ar
    33     6     1   ar
    34    28    23   ar
    35    35    29    1
    36    19    20    1
    37     8     9    1
    38    21    22    1
@<TRIPOS>MOLECULE
*****
 35 38 0 0 0
SMALL
GASTEIGER

@<TRIPOS>ATOM
      1 C          -2.8804    4.0400   24.0605 C.ar    1  UNL1        0.1472
      2 N          -2.1137    4.1071   22.7729 N.ar    1  UNL1       -0.1976
      3 C          -2.7957    3.7851   21.4763 C.ar    1  UNL1        0.2229
      4 N          -4.2443    3.3959   21.4672 N.ar    1  UNL1       -0.2110
      5 C          -5.0109    3.3288   22.7547 C.ar    1  UNL1        0.1160
      6 C          -4.3290    3.6508   24.0513 C.ar    1  UNL1        0.1085
      7 CL         -5.0957    3.5836   25.3388 Cl      1  UNL1       -0.0777
      8 N          -2.1985    4.3620   25.3571 N.pl3   1  UNL1       -0.2971
      9 H          -2.3913    5.2108   25.8171 H       1  UNL1        0.1536
     10 C           0.2910    2.6491   27.9298 C.ar    1  UNL1        0.0515
     11 C           0.7284    1.4484   27.1444 C.ar    1  UNL1        0.0148
     12 C           0.1902    1.2189   25.7632 C.ar    1  UNL1        0.0025
     13 C          -0.7854    2.1900   25.1674 C.ar    1  UNL1        0.0147
     14 C          -1.2228    3.3907   25.9528 C.ar    1  UNL1        0.0506
     15 C          -0.6847    3.6203   27.3340 C.ar    1  UNL1        0.0293
     16 C           0.9552    2.2058   31.8172 C.3     1  UNL1        0.0949
     17 C           0.4170    1.9762   30.4361 C.2     1  UNL1        0.2266
     18 O          -0.5333    0.8442   30.1799 O.2     1  UNL1       -0.2748
     19 N           0.8291    2.8786   29.3110 N.am    1  UNL1       -0.2839
     20 H           1.4528    3.6216   29.4791 H       1  UNL1        0.1549
     21 N          -2.0290    3.8522   20.1888 N.pl3   1  UNL1       -0.2679
     22 H          -2.2317    4.5564   19.5313 H       1  UNL1        0.1565
     23 C          -0.9536    2.8465   19.9029 C.ar    1  UNL1        0.1344
     24 C          -0.1029    2.9865   18.6755 C.ar    1  UNL1        0.0358
     25 C           0.9727    1.9806   18.3896 C.ar    1  UNL1        0.0190
     26 C           1.1975    0.8349   19.3312 C.ar    1  UNL1        0.0675
     27 C           0.3467    0.6949   20.5588 C.ar    1  UNL1        0.1147
     28 N          -0.7288    1.7007   20.8446 N.ar    1  UNL1       -0.2277
     29 N           2.2729   -0.1709   19.0454 N.pl3   1  UNL1       -0.3034
     30 C           2.4845   -1.3277   19.9765 C.3     1  UNL1        0.1082
     31 C           3.5601   -2.3335   19.6907 C.3     1  UNL1        0.0938
     32 N           4.4239   -2.1825   18.4738 N.3     1  UNL1       -0.2686
     33 C           5.4994   -3.1883   18.1880 C.3     1  UNL1        0.0897
     34 C           4.2123   -1.0256   17.5427 C.3     1  UNL1        0.0938
     35 C           3.1368   -0.0199   17.8285 C.3     1  UNL1        0.1082
@<TRIPOS>BOND
     1    16    17    1
     2    17    18    2
     3    17    19   am
     4    19    10    1
     5    10    11   ar
     6    11    12   ar
     7    12    13   ar
     8    13    14   ar
     9    14     8    1
    10     8     1    1
    11     1     2   ar
    12     2     3   ar
    13     3    21    1
    14    21    23    1
    15    23    24   ar
    16    24    25   ar
    17    25    26   ar
    18    26    29    1
    19    29    30    1
    20    30    31    1
    21    31    32    1
    22    32    33    1
    23    32    34    1
    24    34    35    1
    25    26    27   ar
    26    27    28   ar
    27     3     4   ar
    28     4     5   ar
    29     5     6   ar
    30     6     7    1
    31    14    15   ar
    32    15    10   ar
    33     6     1   ar
    34    28    23   ar
    35    35    29    1
    36    19    20    1
    37     8     9    1
    38    21    22    1
@<TRIPOS>MOLECULE
*****
 35 38 0 0 0
SMALL
GASTEIGER

@<TRIPOS>ATOM
      1 C          -3.0149    4.1592   23.9784 C.ar    1  UNL1        0.1472
      2 N          -2.2371    4.2293   22.6978 N.ar    1  UNL1       -0.1976
      3 C          -2.8496    3.7364   21.4203 C.ar    1  UNL1        0.2229
      4 N          -4.2399    3.1734   21.4235 N.ar    1  UNL1       -0.2110
      5 C          -5.0177    3.1032   22.7041 C.ar    1  UNL1        0.1160
      6 C          -4.4052    3.5961   23.9816 C.ar    1  UNL1        0.1085
      7 CL         -5.1831    3.5260   25.2622 Cl      1  UNL1       -0.0777
      8 N          -2.4024    4.6521   25.2559 N.pl3   1  UNL1       -0.2971
      9 H          -2.6851    5.5149   25.6365 H       1  UNL1        0.1536
     10 C           0.2871    1.8205   25.9621 C.ar    1  UNL1        0.0515
     11 C           0.7270    2.1868   27.3485 C.ar    1  UNL1        0.0148
     12 C           0.1237    3.3749   28.0375 C.ar    1  UNL1        0.0025
     13 C          -0.9194    4.1966   27.3399 C.ar    1  UNL1        0.0147
     14 C          -1.3592    3.8303   25.9535 C.ar    1  UNL1        0.0506
     15 C          -0.7560    2.6422   25.2646 C.ar    1  UNL1        0.0293
     16 C           2.7448   -0.3964   23.7724 C.3     1  UNL1        0.0949
     17 C           2.1416    0.7916   24.4613 C.2     1  UNL1        0.2266
     18 O           2.7896    2.1389   24.3384 O.2     1  UNL1       -0.2748
     19 N           0.8904    0.6324   25.2732 N.am    1  UNL1       -0.2839
     20 H           0.4651   -0.2518   25.3538 H       1  UNL1        0.1549
     21 N          -2.0718    3.8066   20.1396 N.pl3   1  UNL1       -0.2679
     22 H          -2.2746    4.5070   19.4782 H       1  UNL1        0.1565
     23 C          -0.9849    2.8095   19.8667 C.ar    1  UNL1        0.1344
     24 C          -0.1164    2.9603   18.6531 C.ar    1  UNL1        0.0358
     25 C           0.9706    1.9632   18.3801 C.ar    1  UNL1        0.0190
     26 C           1.1890    0.8154   19.3208 C.ar    1  UNL1        0.0675
     27 C           0.3204    0.6647   20.5345 C.ar    1  UNL1        0.1147
     28 N          -0.7665    1.6618   20.8074 N.ar    1  UNL1       -0.2277
     29 N           2.2759   -0.1816   19.0478 N.pl3   1  UNL1       -0.3034
     30 C           2.4948   -1.3288   19.9890 C.3     1  UNL1        0.1082
     31 C           3.5817   -2.3260   19.7161 C.3     1  UNL1        0.0938
     32 N           4.4497   -2.1757   18.5020 N.3     1  UNL1       -0.2686
     33 C           5.5366   -3.1728   18.2290 C.3     1  UNL1        0.0897
     34 C           4.2307   -1.0284   17.5608 C.3     1  UNL1        0.0938
     35 C           3.1438   -0.0314   17.8337 C.3     1  UNL1        0.1082
@<TRIPOS>BOND
     1    16    17    1
     2    17    18    2
     3    17    19   am
     4    19    10    1
     5    10    11   ar
     6    11    12   ar
     7    12    13   ar
     8    13    14   ar
     9    14     8    1
    10     8     1    1
    11     1     2   ar
    12     2     3   ar
    13     3    21    1
    14    21    23    1
    15    23    24   ar
    16    24    25   ar
    17    25    26   ar
    18    26    29    1
    19    29    30    1
    20    30    31    1
    21    31    32    1
    22    32    33    1
    23    32    34    1
    24    34    35    1
    25    26    27   ar
    26    27    28   ar
    27     3     4   ar
    28     4     5   ar
    29     5     6   ar
    30     6     7    1
    31    14    15   ar
    32    15    10   ar
    33     6     1   ar
    34    28    23   ar
    35    35    29    1
    36    19    20    1
    37     8     9    1
    38    21    22    1
@<TRIPOS>MOLECULE
*****
 35 38 0 0 0
SMALL
GASTEIGER

@<TRIPOS>ATOM
      1 C           6.2150   -3.3866   19.7971 C.ar    1  UNL1        0.1472
      2 N           6.7875   -4.3132   20.8284 N.ar    1  UNL1       -0.1976
      3 C           8.2702   -4.3646   21.0501 C.ar    1  UNL1        0.2229
      4 N           9.1803   -3.4894   20.2404 N.ar    1  UNL1       -0.2110
      5 C           8.6078   -2.5627   19.2091 C.ar    1  UNL1        0.1160
      6 C           7.1252   -2.5113   18.9874 C.ar    1  UNL1        0.1085
      7 CL          6.5528   -1.5847   17.9561 Cl      1  UNL1       -0.0777
      8 N           4.7324   -3.3352   19.5754 N.pl3   1  UNL1       -0.2971
      9 H           4.3085   -3.9526   18.9363 H       1  UNL1        0.1536
     10 C           2.0269   -0.5383   20.3550 C.ar    1  UNL1        0.0515
     11 C           2.2218   -0.3590   21.8314 C.ar    1  UNL1        0.0148
     12 C           3.2536   -1.1718   22.5558 C.ar    1  UNL1        0.0025
     13 C           4.0905   -2.1638   21.8038 C.ar    1  UNL1        0.0147
     14 C           3.8955   -2.3431   20.3274 C.ar    1  UNL1        0.0506
     15 C           2.8637   -1.5303   19.6030 C.ar    1  UNL1        0.0293
     16 C           0.3680    2.3313   18.1724 C.3     1  UNL1        0.0949
     17 C           1.3998    1.5186   18.8969 C.2     1  UNL1        0.2266
     18 O           2.8365    1.9500   18.8876 O.2     1  UNL1       -0.2748
     19 N           0.9951    0.2745   19.6305 N.am    1  UNL1       -0.2839
     20 H           0.0522   -0.0087   19.6366 H       1  UNL1        0.1549
     21 N           8.8426   -5.2912   22.0814 N.pl3   1  UNL1       -0.2679
     22 H           9.4438   -6.0212   21.8077 H       1  UNL1        0.1565
     23 C           8.4992   -5.1056   23.5296 C.ar    1  UNL1        0.1344
     24 C           7.8025   -6.2007   24.2815 C.ar    1  UNL1        0.0358
     25 C           7.4590   -6.0151   25.7299 C.ar    1  UNL1        0.0190
     26 C           7.8121   -4.7344   26.4263 C.ar    1  UNL1        0.0675
     27 C           8.5088   -3.6392   25.6743 C.ar    1  UNL1        0.1147
     28 N           8.8523   -3.8248   24.2260 N.ar    1  UNL1       -0.2277
     29 N           7.4686   -4.5488   27.8745 N.pl3   1  UNL1       -0.3034
     30 C           7.2564   -3.1694   28.4241 C.3     1  UNL1        0.1082
     31 C           6.9128   -2.9837   29.8724 C.3     1  UNL1        0.0938
     32 N           6.7816   -4.1775   30.7711 N.3     1  UNL1       -0.2686
     33 C           6.4382   -3.9919   32.2194 C.3     1  UNL1        0.0897
     34 C           6.9940   -5.5570   30.2215 C.3     1  UNL1        0.0938
     35 C           7.3375   -5.7426   28.7732 C.3     1  UNL1        0.1082
@<TRIPOS>BOND
     1    16    17    1
     2    17    18    2
     3    17    19   am
     4    19    10    1
     5    10    11   ar
     6    11    12   ar
     7    12    13   ar
     8    13    14   ar
     9    14     8    1
    10     8     1    1
    11     1     2   ar
    12     2     3   ar
    13     3    21    1
    14    21    23    1
    15    23    24   ar
    16    24    25   ar
    17    25    26   ar
    18    26    29    1
    19    29    30    1
    20    30    31    1
    21    31    32    1
    22    32    33    1
    23    32    34    1
    24    34    35    1
    25    26    27   ar
    26    27    28   ar
    27     3     4   ar
    28     4     5   ar
    29     5     6   ar
    30     6     7    1
    31    14    15   ar
    32    15    10   ar
    33     6     1   ar
    34    28    23   ar
    35    35    29    1
    36    19    20    1
    37     8     9    1
    38    21    22    1
@<TRIPOS>MOLECULE
*****
 35 38 0 0 0
SMALL
GASTEIGER

@<TRIPOS>ATOM
      1 C           6.1509   -4.5139   28.3071 C.ar    1  UNL1        0.1472
      2 N           5.7441   -3.2458   27.6169 N.ar    1  UNL1       -0.1976
      3 C           5.8858   -1.9294   28.3220 C.ar    1  UNL1        0.2229
      4 N           6.4343   -1.8811   29.7173 N.ar    1  UNL1       -0.2110
      5 C           6.8411   -3.1492   30.4075 C.ar    1  UNL1        0.1160
      6 C           6.6994   -4.4656   29.7025 C.ar    1  UNL1        0.1085
      7 CL          7.1063   -5.7337   30.3927 Cl      1  UNL1       -0.0777
      8 N           6.0092   -5.8302   27.6021 N.pl3   1  UNL1       -0.2971
      9 H           5.3790   -6.5056   27.9426 H       1  UNL1        0.1536
     10 C           7.9343   -5.3096   24.1709 C.ar    1  UNL1        0.0515
     11 C           8.4646   -6.6920   23.9309 C.ar    1  UNL1        0.0148
     12 C           8.1765   -7.7872   24.9146 C.ar    1  UNL1        0.0025
     13 C           7.3581   -7.4999   26.1383 C.ar    1  UNL1        0.0147
     14 C           6.8277   -6.1175   26.3783 C.ar    1  UNL1        0.0506
     15 C           7.1158   -5.0224   25.3946 C.ar    1  UNL1        0.0293
     16 C           7.4511   -2.6829   21.2355 C.3     1  UNL1        0.0949
     17 C           7.1630   -3.7780   22.2192 C.2     1  UNL1        0.2266
     18 O           5.8154   -4.4368   22.2348 O.2     1  UNL1       -0.2748
     19 N           8.2224   -4.2145   23.1872 N.am    1  UNL1       -0.2839
     20 H           9.1068   -3.7821   23.1770 H       1  UNL1        0.1549
     21 N           5.4789   -0.6613   27.6318 N.pl3   1  UNL1       -0.2679
     22 H           5.3803    0.1708   28.1488 H       1  UNL1        0.1565
     23 C           5.2223   -0.6608   26.1539 C.ar    1  UNL1        0.1344
     24 C           6.3420   -0.3723   25.1985 C.ar    1  UNL1        0.0358
     25 C           6.0855   -0.3718   23.7205 C.ar    1  UNL1        0.0190
     26 C           4.7092   -0.6599   23.1981 C.ar    1  UNL1        0.0675
     27 C           3.5895   -0.9484   24.1537 C.ar    1  UNL1        0.1147
     28 N           3.8461   -0.9489   25.6316 N.ar    1  UNL1       -0.2277
     29 N           4.4527   -0.6594   21.7203 N.pl3   1  UNL1       -0.3034
     30 C           4.9586    0.4691   20.8716 C.3     1  UNL1        0.1082
     31 C           4.7021    0.4696   19.3937 C.3     1  UNL1        0.0938
     32 N           3.9395   -0.6585   18.7645 N.3     1  UNL1       -0.2686
     33 C           3.6829   -0.6580   17.2866 C.3     1  UNL1        0.0897
     34 C           3.4335   -1.7871   19.6132 C.3     1  UNL1        0.0938
     35 C           3.6901   -1.7876   21.0911 C.3     1  UNL1        0.1082
@<TRIPOS>BOND
     1    16    17    1
     2    17    18    2
     3    17    19   am
     4    19    10    1
     5    10    11   ar
     6    11    12   ar
     7    12    13   ar
     8    13    14   ar
     9    14     8    1
    10     8     1    1
    11     1     2   ar
    12     2     3   ar
    13     3    21    1
    14    21    23    1
    15    23    24   ar
    16    24    25   ar
    17    25    26   ar
    18    26    29    1
    19    29    30    1
    20    30    31    1
    21    31    32    1
    22    32    33    1
    23    32    34    1
    24    34    35    1
    25    26    27   ar
    26    27    28   ar
    27     3     4   ar
    28     4     5   ar
    29     5     6   ar
    30     6     7    1
    31    14    15   ar
    32    15    10   ar
    33     6     1   ar
    34    28    23   ar
    35    35    29    1
    36    19    20    1
    37     8     9    1
    38    21    22    1
@<TRIPOS>MOLECULE
*****
 35 38 0 0 0
SMALL
GASTEIGER

@<TRIPOS>ATOM
      1 C           4.4833   -2.0572   19.1934 C.ar    1  UNL1        0.1472
      2 N           5.5792   -2.7611   19.9375 N.ar    1  UNL1       -0.1976
      3 C           7.0020   -2.6257   19.4820 C.ar    1  UNL1        0.2229
      4 N           7.3288   -1.7866   18.2825 N.ar    1  UNL1       -0.2110
      5 C           6.2329   -1.0827   17.5384 C.ar    1  UNL1        0.1160
      6 C           4.8102   -1.2180   17.9938 C.ar    1  UNL1        0.1085
      7 CL          3.7143   -0.5142   17.2498 Cl      1  UNL1       -0.0777
      8 N           3.0606   -2.1925   19.6489 N.pl3   1  UNL1       -0.2971
      9 H           2.5121   -2.9464   19.3327 H       1  UNL1        0.1536
     10 C           0.6867    0.6332   21.1084 C.ar    1  UNL1        0.0515
     11 C           1.2994    0.8476   22.4606 C.ar    1  UNL1        0.0148
     12 C           2.4991    0.0486   22.8756 C.ar    1  UNL1        0.0025
     13 C           3.0862   -0.9647   21.9384 C.ar    1  UNL1        0.0147
     14 C           2.4735   -1.1791   20.5862 C.ar    1  UNL1        0.0506
     15 C           1.2737   -0.3802   20.1712 C.ar    1  UNL1        0.0293
     16 C          -1.5348    3.5904   19.6697 C.3     1  UNL1        0.0949
     17 C          -0.3351    2.7914   20.0847 C.2     1  UNL1        0.2266
     18 O           1.0428    3.3519   19.8910 O.2     1  UNL1       -0.2748
     19 N          -0.5131    1.4321   20.6934 N.am    1  UNL1       -0.2839
     20 H          -1.4174    1.0643   20.8205 H       1  UNL1        0.1549
     21 N           8.0978   -3.3296   20.2261 N.pl3   1  UNL1       -0.2679
     22 H           8.9296   -3.5758   19.7605 H       1  UNL1        0.1565
     23 C           7.9265   -3.6582   21.6795 C.ar    1  UNL1        0.1344
     24 C           7.7953   -2.5551   22.6874 C.ar    1  UNL1        0.0358
     25 C           7.6240   -2.8838   24.1410 C.ar    1  UNL1        0.0190
     26 C           7.5837   -4.3155   24.5865 C.ar    1  UNL1        0.0675
     27 C           7.7148   -5.4186   23.5785 C.ar    1  UNL1        0.1147
     28 N           7.8862   -5.0900   22.1251 N.ar    1  UNL1       -0.2277
     29 N           7.4123   -4.6441   26.0400 N.pl3   1  UNL1       -0.3034
     30 C           6.6781   -3.6966   26.9416 C.3     1  UNL1        0.1082
     31 C           6.5067   -4.0252   28.3952 C.3     1  UNL1        0.0938
     32 N           7.0695   -5.3014   28.9470 N.3     1  UNL1       -0.2686
     33 C           6.8982   -5.6301   30.4004 C.3     1  UNL1        0.0897
     34 C           7.8038   -6.2490   28.0452 C.3     1  UNL1        0.0938
     35 C           7.9752   -5.9204   26.5918 C.3     1  UNL1        0.1082
@<TRIPOS>BOND
     1    16    17    1
     2    17    18    2
     3    17    19   am
     4    19    10    1
     5    10    11   ar
     6    11    12   ar
     7    12    13   ar
     8    13    14   ar
     9    14     8    1
    10     8     1    1
    11     1     2   ar
    12     2     3   ar
    13     3    21    1
    14    21    23    1
    15    23    24   ar
    16    24    25   ar
    17    25    26   ar
    18    26    29    1
    19    29    30    1
    20    30    31    1
    21    31    32    1
    22    32    33    1
    23    32    34    1
    24    34    35    1
    25    26    27   ar
    26    27    28   ar
    27     3     4   ar
    28     4     5   ar
    29     5     6   ar
    30     6     7    1
    31    14    15   ar
    32    15    10   ar
    33     6     1   ar
    34    28    23   ar
    35    35    29    1
    36    19    20    1
    37     8     9    1
    38    21    22    1
@<TRIPOS>MOLECULE
*****
 35 38 0 0 0
SMALL
GASTEIGER

@<TRIPOS>ATOM
      1 C          -2.5301    3.7607   23.2005 C.ar    1  UNL1        0.1472
      2 N          -1.5636    3.6006   22.0646 N.ar    1  UNL1       -0.1976
      3 C          -2.0648    3.2305   20.7000 C.ar    1  UNL1        0.2229
      4 N          -3.5323    3.0204   20.4715 N.ar    1  UNL1       -0.2110
      5 C          -4.4987    3.1805   21.6075 C.ar    1  UNL1        0.1160
      6 C          -3.9976    3.5506   22.9720 C.ar    1  UNL1        0.1085
      7 CL         -4.9640    3.7107   24.1079 Cl      1  UNL1       -0.0777
      8 N          -2.0290    4.1308   24.5650 N.pl3   1  UNL1       -0.2971
      9 H          -2.1427    5.0501   24.8986 H       1  UNL1        0.1536
     10 C           0.4257    1.2302   25.7102 C.ar    1  UNL1        0.0515
     11 C          -0.0058    1.0394   27.1340 C.ar    1  UNL1        0.0148
     12 C          -1.1117    1.8790   27.7015 C.ar    1  UNL1        0.0025
     13 C          -1.7861    2.9094   26.8452 C.ar    1  UNL1        0.0147
     14 C          -1.3546    3.1003   25.4214 C.ar    1  UNL1        0.0506
     15 C          -0.2487    2.2607   24.8539 C.ar    1  UNL1        0.0293
     16 C           4.0678   -0.0910   24.8505 C.3     1  UNL1        0.0949
     17 C           2.9619    0.7486   25.4180 C.2     1  UNL1        0.2266
     18 O           3.2865    1.9463   26.2609 O.2     1  UNL1       -0.2748
     19 N           1.5316    0.3906   25.1427 N.am    1  UNL1       -0.2839
     20 H           1.3186   -0.3954   24.5895 H       1  UNL1        0.1549
     21 N          -1.0984    3.0704   19.5641 N.pl3   1  UNL1       -0.2679
     22 H          -1.1908    3.6266   18.7570 H       1  UNL1        0.1565
     23 C           0.0089    2.0629   19.6577 C.ar    1  UNL1        0.1344
     24 C           1.3041    2.3032   18.9404 C.ar    1  UNL1        0.0358
     25 C           2.4115    1.2957   19.0340 C.ar    1  UNL1        0.0190
     26 C           2.2236    0.0479   19.8450 C.ar    1  UNL1        0.0675
     27 C           0.9283   -0.1924   20.5623 C.ar    1  UNL1        0.1147
     28 N          -0.1790    0.8151   20.4687 N.ar    1  UNL1       -0.2277
     29 N           3.3309   -0.9596   19.9386 N.pl3   1  UNL1       -0.3034
     30 C           3.9726   -1.4870   18.6896 C.3     1  UNL1        0.1082
     31 C           5.0799   -2.4945   18.7832 C.3     1  UNL1        0.0938
     32 N           5.5455   -2.9746   20.1259 N.3     1  UNL1       -0.2686
     33 C           6.6528   -3.9821   20.2195 C.3     1  UNL1        0.0897
     34 C           4.9038   -2.4472   21.3749 C.3     1  UNL1        0.0938
     35 C           3.7965   -1.4397   21.2813 C.3     1  UNL1        0.1082
@<TRIPOS>BOND
     1    16    17    1
     2    17    18    2
     3    17    19   am
     4    19    10    1
     5    10    11   ar
     6    11    12   ar
     7    12    13   ar
     8    13    14   ar
     9    14     8    1
    10     8     1    1
    11     1     2   ar
    12     2     3   ar
    13     3    21    1
    14    21    23    1
    15    23    24   ar
    16    24    25   ar
    17    25    26   ar
    18    26    29    1
    19    29    30    1
    20    30    31    1
    21    31    32    1
    22    32    33    1
    23    32    34    1
    24    34    35    1
    25    26    27   ar
    26    27    28   ar
    27     3     4   ar
    28     4     5   ar
    29     5     6   ar
    30     6     7    1
    31    14    15   ar
    32    15    10   ar
    33     6     1   ar
    34    28    23   ar
    35    35    29    1
    36    19    20    1
    37     8     9    1
    38    21    22    1
