@<TRIPOS>MOLECULE
*****
 29 31 0 0 0
SMALL
GASTEIGER

@<TRIPOS>ATOM
      1 C          -8.5299  -19.0697   21.4815 C.ar    1  UNL1        0.0252
      2 C          -7.2823  -18.9280   22.3022 C.ar    1  UNL1       -0.0009
      3 C          -5.9596  -19.3508   21.7353 C.ar    1  UNL1        0.0210
      4 C          -5.8844  -19.9154   20.3477 C.ar    1  UNL1        0.1397
      5 F          -4.5615  -20.3383   19.7806 F       1  UNL1       -0.2044
      6 C          -7.1318  -20.0571   19.5269 C.ar    1  UNL1        0.0587
      7 C          -8.4547  -19.6343   20.0939 C.ar    1  UNL1        0.1401
      8 F          -9.7023  -19.7760   19.2732 F       1  UNL1       -0.2044
      9 C         -13.3581  -17.5837   23.5755 C.3     1  UNL1        0.0122
     10 C         -12.0636  -17.5216   22.8202 C.3     1  UNL1        0.0568
     11 C         -11.1471  -18.7089   22.8039 C.3     1  UNL1        0.0380
     12 C          -9.8527  -18.6468   22.0486 C.3     1  UNL1        0.1080
     13 C          -9.7712  -20.0430   22.5907 C.3     1  UNL1        0.0291
     14 N          -9.4747  -17.3974   21.3095 N.2     1  UNL1       -0.2509
     15 C         -10.3913  -16.2102   21.3258 C.2     1  UNL1        0.1481
     16 N         -10.0134  -14.9607   20.5868 N.pl3   1  UNL1       -0.3380
     17 S         -11.6857  -16.2723   22.0812 S.3     1  UNL1       -0.0816
     18 H          -9.1638  -14.9199   20.0910 H       1  UNL1        0.1442
     19 H         -10.6149  -14.1814   20.5975 H       1  UNL1        0.1442
     20 C          -4.7120  -19.2091   22.5560 C.3     1  UNL1        0.0980
     21 N          -3.3694  -19.2175   21.8872 N.3     1  UNL1       -0.2892
     22 H          -3.4824  -19.7189   21.0062 H       1  UNL1        0.1237
     23 C          -2.6845  -17.9227   21.5639 C.3     1  UNL1        0.1307
     24 C          -2.1838  -16.5169   21.7149 C.3     1  UNL1        0.0245
     25 C          -2.9772  -17.1531   22.8176 C.3     1  UNL1        0.0245
     26 C          -2.1539  -18.2427   20.1978 C.3     1  UNL1        0.4088
     27 F          -1.6234  -18.5628   18.8318 F       1  UNL1       -0.1686
     28 F          -2.5131  -16.8620   19.7347 F       1  UNL1       -0.1686
     29 F          -1.7947  -19.6236   20.6608 F       1  UNL1       -0.1686
@<TRIPOS>BOND
     1    10     9    1
     2    10    11    1
     3    11    12    1
     4    12    13    1
     5    12     1    1
     6     1     2   ar
     7     2     3   ar
     8     3    20    1
     9    20    21    1
    10    21    23    1
    11    23    26    1
    12    26    27    1
    13    26    28    1
    14    26    29    1
    15    23    24    1
    16    24    25    1
    17     3     4   ar
    18     4     5    1
    19     4     6   ar
    20     6     7   ar
    21     7     8    1
    22    12    14    1
    23    14    15    2
    24    15    16    1
    25    15    17    1
    26    17    10    1
    27     7     1   ar
    28    25    23    1
    29    21    22    1
    30    16    18    1
    31    16    19    1
@<TRIPOS>MOLECULE
*****
 29 31 0 0 0
SMALL
GASTEIGER

@<TRIPOS>ATOM
      1 C          -8.2718  -17.3116   23.2948 C.ar    1  UNL1        0.0252
      2 C          -7.4301  -18.3371   22.5947 C.ar    1  UNL1       -0.0009
      3 C          -5.9387  -18.1824   22.5541 C.ar    1  UNL1        0.0210
      4 C          -5.2889  -17.0022   23.2135 C.ar    1  UNL1        0.1397
      5 F          -3.7974  -16.8474   23.1729 F       1  UNL1       -0.2044
      6 C          -6.1304  -15.9767   23.9135 C.ar    1  UNL1        0.0587
      7 C          -7.6219  -16.1314   23.9541 C.ar    1  UNL1        0.1401
      8 F          -8.4636  -15.1059   24.6542 F       1  UNL1       -0.2044
      9 C         -13.7040  -17.9063   23.4968 C.3     1  UNL1        0.0122
     10 C         -12.3407  -17.5102   23.0125 C.3     1  UNL1        0.0568
     11 C         -11.1265  -17.8625   23.8196 C.3     1  UNL1        0.0380
     12 C          -9.7632  -17.4664   23.3354 C.3     1  UNL1        0.1080
     13 C          -9.3943  -18.1610   24.6126 C.3     1  UNL1        0.0291
     14 N          -9.6141  -16.7180   22.0440 N.2     1  UNL1       -0.2509
     15 C         -10.8284  -16.3657   21.2369 C.2     1  UNL1        0.1481
     16 N         -10.6793  -15.6173   19.9455 N.pl3   1  UNL1       -0.3380
     17 S         -12.1917  -16.7618   21.7211 S.3     1  UNL1       -0.0816
     18 H          -9.7845  -15.3574   19.6276 H       1  UNL1        0.1442
     19 H         -11.4763  -15.3861   19.4157 H       1  UNL1        0.1442
     20 C          -5.0971  -19.2079   21.8541 C.3     1  UNL1        0.0980
     21 N          -4.4333  -18.8711   20.5517 N.3     1  UNL1       -0.2892
     22 H          -4.8329  -17.9868   20.2376 H       1  UNL1        0.1237
     23 C          -2.9423  -18.7199   20.4869 C.3     1  UNL1        0.1307
     24 C          -1.4937  -18.8671   20.8470 C.3     1  UNL1        0.0245
     25 C          -2.5463  -19.5267   21.6878 C.3     1  UNL1        0.0245
     26 C          -2.8206  -17.8606   19.2635 C.3     1  UNL1        0.4088
     27 F          -2.6988  -17.0013   18.0401 F       1  UNL1       -0.1686
     28 F          -4.2267  -18.2116   18.8770 F       1  UNL1       -0.1686
     29 F          -1.4143  -17.5096   19.6499 F       1  UNL1       -0.1686
@<TRIPOS>BOND
     1    10     9    1
     2    10    11    1
     3    11    12    1
     4    12    13    1
     5    12     1    1
     6     1     2   ar
     7     2     3   ar
     8     3    20    1
     9    20    21    1
    10    21    23    1
    11    23    26    1
    12    26    27    1
    13    26    28    1
    14    26    29    1
    15    23    24    1
    16    24    25    1
    17     3     4   ar
    18     4     5    1
    19     4     6   ar
    20     6     7   ar
    21     7     8    1
    22    12    14    1
    23    14    15    2
    24    15    16    1
    25    15    17    1
    26    17    10    1
    27     7     1   ar
    28    25    23    1
    29    21    22    1
    30    16    18    1
    31    16    19    1
@<TRIPOS>MOLECULE
*****
 29 31 0 0 0
SMALL
GASTEIGER

@<TRIPOS>ATOM
      1 C          -8.4841  -17.9374   22.4903 C.ar    1  UNL1        0.0252
      2 C          -7.2988  -18.7485   22.0575 C.ar    1  UNL1       -0.0009
      3 C          -7.3348  -19.4939   20.7564 C.ar    1  UNL1        0.0210
      4 C          -8.5560  -19.4283   19.8880 C.ar    1  UNL1        0.1397
      5 F          -8.5921  -20.1738   18.5868 F       1  UNL1       -0.2044
      6 C          -9.7413  -18.6174   20.3207 C.ar    1  UNL1        0.0587
      7 C          -9.7054  -17.8718   21.6219 C.ar    1  UNL1        0.1401
      8 F         -10.8907  -17.0608   22.0546 F       1  UNL1       -0.2044
      9 C          -8.4029  -15.2511   27.2528 C.3     1  UNL1        0.0122
     10 C          -8.0224  -15.6941   25.8711 C.3     1  UNL1        0.0568
     11 C          -8.8285  -16.7490   25.1731 C.3     1  UNL1        0.0380
     12 C          -8.4481  -17.1920   23.7914 C.3     1  UNL1        0.1080
     13 C          -9.6471  -18.0629   24.0233 C.3     1  UNL1        0.0291
     14 N          -7.2616  -16.5799   23.1077 N.2     1  UNL1       -0.2509
     15 C          -6.4555  -15.5249   23.8057 C.2     1  UNL1        0.1481
     16 N          -5.2689  -14.9128   23.1219 N.pl3   1  UNL1       -0.3380
     17 S          -6.8359  -15.0820   25.1874 S.3     1  UNL1       -0.0816
     18 H          -5.0192  -15.2035   22.2151 H       1  UNL1        0.1442
     19 H          -4.7399  -14.2203   23.5801 H       1  UNL1        0.1442
     20 C          -6.1494  -20.3050   20.3237 C.3     1  UNL1        0.0980
     21 N          -4.8896  -20.2851   21.1376 N.3     1  UNL1       -0.2892
     22 H          -4.4525  -21.1999   21.0261 H       1  UNL1        0.1237
     23 C          -3.8301  -19.2616   20.8548 C.3     1  UNL1        0.1307
     24 C          -2.8256  -18.4451   20.0971 C.3     1  UNL1        0.0245
     25 C          -3.6205  -19.5019   19.3891 C.3     1  UNL1        0.0245
     26 C          -3.6717  -18.6659   22.2223 C.3     1  UNL1        0.4088
     27 F          -3.5133  -18.0703   23.5898 F       1  UNL1       -0.1686
     28 F          -3.0643  -17.4357   21.6161 F       1  UNL1       -0.1686
     29 F          -4.2791  -19.8962   22.8286 F       1  UNL1       -0.1686
@<TRIPOS>BOND
     1    10     9    1
     2    10    11    1
     3    11    12    1
     4    12    13    1
     5    12     1    1
     6     1     2   ar
     7     2     3   ar
     8     3    20    1
     9    20    21    1
    10    21    23    1
    11    23    26    1
    12    26    27    1
    13    26    28    1
    14    26    29    1
    15    23    24    1
    16    24    25    1
    17     3     4   ar
    18     4     5    1
    19     4     6   ar
    20     6     7   ar
    21     7     8    1
    22    12    14    1
    23    14    15    2
    24    15    16    1
    25    15    17    1
    26    17    10    1
    27     7     1   ar
    28    25    23    1
    29    21    22    1
    30    16    18    1
    31    16    19    1
@<TRIPOS>MOLECULE
*****
 29 31 0 0 0
SMALL
GASTEIGER

@<TRIPOS>ATOM
      1 C          -8.0062  -16.3701   23.8039 C.ar    1  UNL1        0.0252
      2 C          -6.6705  -16.7616   23.2447 C.ar    1  UNL1       -0.0009
      3 C          -5.4135  -16.3837   23.9707 C.ar    1  UNL1        0.0210
      4 C          -5.4922  -15.6143   25.2559 C.ar    1  UNL1        0.1397
      5 F          -4.2351  -15.2364   25.9820 F       1  UNL1       -0.2044
      6 C          -6.8278  -15.2228   25.8152 C.ar    1  UNL1        0.0587
      7 C          -8.0848  -15.6007   25.0892 C.ar    1  UNL1        0.1401
      8 F          -9.4205  -15.2092   25.6484 F       1  UNL1       -0.2044
      9 C         -12.5783  -17.7023   21.1160 C.3     1  UNL1        0.0122
     10 C         -11.4804  -17.7227   22.1378 C.3     1  UNL1        0.0568
     11 C         -10.3611  -16.7276   22.0560 C.3     1  UNL1        0.0380
     12 C          -9.2632  -16.7480   23.0779 C.3     1  UNL1        0.1080
     13 C          -8.8053  -15.6012   22.2264 C.3     1  UNL1        0.0291
     14 N          -9.2846  -17.7636   24.1815 N.2     1  UNL1       -0.2509
     15 C         -10.4039  -18.7588   24.2633 C.2     1  UNL1        0.1481
     16 N         -10.4253  -19.7745   25.3670 N.pl3   1  UNL1       -0.3380
     17 S         -11.5018  -18.7384   23.2415 S.3     1  UNL1       -0.0816
     18 H          -9.7047  -19.7879   26.0376 H       1  UNL1        0.1442
     19 H         -11.1600  -20.4276   25.4206 H       1  UNL1        0.1442
     20 C          -4.0778  -16.7752   23.4115 C.3     1  UNL1        0.0980
     21 N          -3.9697  -17.9421   22.4751 N.3     1  UNL1       -0.2892
     22 H          -4.8366  -17.9703   21.9384 H       1  UNL1        0.1237
     23 C          -2.8449  -18.0072   21.4847 C.3     1  UNL1        0.1307
     24 C          -1.6217  -17.6098   20.7130 C.3     1  UNL1        0.0245
     25 C          -2.1704  -16.6982   21.7702 C.3     1  UNL1        0.0245
     26 C          -3.1289  -19.3388   20.8553 C.3     1  UNL1        0.4088
     27 F          -3.4128  -20.6704   20.2259 F       1  UNL1       -0.1686
     28 F          -2.5609  -18.8464   19.5572 F       1  UNL1       -0.1686
     29 F          -3.6969  -19.8313   22.1533 F       1  UNL1       -0.1686
@<TRIPOS>BOND
     1    10     9    1
     2    10    11    1
     3    11    12    1
     4    12    13    1
     5    12     1    1
     6     1     2   ar
     7     2     3   ar
     8     3    20    1
     9    20    21    1
    10    21    23    1
    11    23    26    1
    12    26    27    1
    13    26    28    1
    14    26    29    1
    15    23    24    1
    16    24    25    1
    17     3     4   ar
    18     4     5    1
    19     4     6   ar
    20     6     7   ar
    21     7     8    1
    22    12    14    1
    23    14    15    2
    24    15    16    1
    25    15    17    1
    26    17    10    1
    27     7     1   ar
    28    25    23    1
    29    21    22    1
    30    16    18    1
    31    16    19    1
@<TRIPOS>MOLECULE
*****
 29 31 0 0 0
SMALL
GASTEIGER

@<TRIPOS>ATOM
      1 C          -7.5527  -17.0771   23.0460 C.ar    1  UNL1        0.0252
      2 C          -6.7845  -18.2458   22.5037 C.ar    1  UNL1       -0.0009
      3 C          -5.3083  -18.3512   22.7476 C.ar    1  UNL1        0.0210
      4 C          -4.6001  -17.2879   23.5337 C.ar    1  UNL1        0.1397
      5 F          -3.1238  -17.3932   23.7775 F       1  UNL1       -0.2044
      6 C          -5.3683  -16.1192   24.0759 C.ar    1  UNL1        0.0587
      7 C          -6.8446  -16.0138   23.8321 C.ar    1  UNL1        0.1401
      8 F          -7.6128  -14.8451   24.3744 F       1  UNL1       -0.2044
      9 C         -12.9244  -16.6478   22.1157 C.3     1  UNL1        0.0122
     10 C         -11.6202  -17.1211   22.6858 C.3     1  UNL1        0.0568
     11 C         -10.3332  -16.4985   22.2320 C.3     1  UNL1        0.0380
     12 C          -9.0290  -16.9718   22.8021 C.3     1  UNL1        0.1080
     13 C          -8.5335  -15.9124   21.8628 C.3     1  UNL1        0.0291
     14 N          -9.0118  -18.0676   23.8261 N.2     1  UNL1       -0.2509
     15 C         -10.2987  -18.6902   24.2800 C.2     1  UNL1        0.1481
     16 N         -10.2815  -19.7862   25.3041 N.pl3   1  UNL1       -0.3380
     17 S         -11.6029  -18.2170   23.7099 S.3     1  UNL1       -0.0816
     18 H          -9.4256  -20.0968   25.6783 H       1  UNL1        0.1442
     19 H         -11.1262  -20.1948   25.6020 H       1  UNL1        0.1442
     20 C          -4.5401  -19.5199   22.2053 C.3     1  UNL1        0.0980
     21 N          -3.1225  -19.3392   21.7494 N.3     1  UNL1       -0.2892
     22 H          -2.6799  -20.2571   21.7930 H       1  UNL1        0.1237
     23 C          -2.8384  -18.7858   20.3845 C.3     1  UNL1        0.1307
     24 C          -2.8658  -18.6302   18.8929 C.3     1  UNL1        0.0245
     25 C          -3.6367  -19.7391   19.5456 C.3     1  UNL1        0.0245
     26 C          -1.9413  -17.6402   20.7494 C.3     1  UNL1        0.4088
     27 F          -1.0443  -16.4948   21.1143 F       1  UNL1       -0.1686
     28 F          -2.5144  -16.8325   19.6228 F       1  UNL1       -0.1686
     29 F          -1.3682  -18.4479   21.8760 F       1  UNL1       -0.1686
@<TRIPOS>BOND
     1    10     9    1
     2    10    11    1
     3    11    12    1
     4    12    13    1
     5    12     1    1
     6     1     2   ar
     7     2     3   ar
     8     3    20    1
     9    20    21    1
    10    21    23    1
    11    23    26    1
    12    26    27    1
    13    26    28    1
    14    26    29    1
    15    23    24    1
    16    24    25    1
    17     3     4   ar
    18     4     5    1
    19     4     6   ar
    20     6     7   ar
    21     7     8    1
    22    12    14    1
    23    14    15    2
    24    15    16    1
    25    15    17    1
    26    17    10    1
    27     7     1   ar
    28    25    23    1
    29    21    22    1
    30    16    18    1
    31    16    19    1
@<TRIPOS>MOLECULE
*****
 29 31 0 0 0
SMALL
GASTEIGER

@<TRIPOS>ATOM
      1 C          -8.4527  -16.8180   23.6662 C.ar    1  UNL1        0.0252
      2 C          -7.3927  -17.6751   23.0400 C.ar    1  UNL1       -0.0009
      3 C          -5.9459  -17.3101   23.1930 C.ar    1  UNL1        0.0210
      4 C          -5.5590  -16.0881   23.9722 C.ar    1  UNL1        0.1397
      5 F          -4.1120  -15.7231   24.1252 F       1  UNL1       -0.2044
      6 C          -6.6188  -15.2311   24.5983 C.ar    1  UNL1        0.0587
      7 C          -8.0658  -15.5961   24.4453 C.ar    1  UNL1        0.1401
      8 F          -9.1257  -14.7391   25.0715 F       1  UNL1       -0.2044
      9 C         -13.7253  -18.1783   23.1629 C.3     1  UNL1        0.0122
     10 C         -12.3795  -17.5914   22.8554 C.3     1  UNL1        0.0568
     11 C         -11.2453  -17.7700   23.8206 C.3     1  UNL1        0.0380
     12 C          -9.8995  -17.1831   23.5131 C.3     1  UNL1        0.1080
     13 C          -9.6085  -17.8217   24.8388 C.3     1  UNL1        0.0291
     14 N          -9.6880  -16.4177   22.2406 N.2     1  UNL1       -0.2509
     15 C         -10.8223  -16.2391   21.2755 C.2     1  UNL1        0.1481
     16 N         -10.6109  -15.4737   20.0029 N.pl3   1  UNL1       -0.3380
     17 S         -12.1681  -16.8260   21.5829 S.3     1  UNL1       -0.0816
     18 H          -9.7276  -15.0885   19.8011 H       1  UNL1        0.1442
     19 H         -11.3554  -15.3565   19.3695 H       1  UNL1        0.1442
     20 C          -4.8859  -18.1671   22.5669 C.3     1  UNL1        0.0980
     21 N          -5.2156  -19.5602   22.1188 N.3     1  UNL1       -0.2892
     22 H          -6.2312  -19.6481   22.1537 H       1  UNL1        0.1237
     23 C          -4.7863  -20.0327   20.7614 C.3     1  UNL1        0.1307
     24 C          -3.8917  -20.4141   19.6194 C.3     1  UNL1        0.0245
     25 C          -3.2970  -19.9342   20.9102 C.3     1  UNL1        0.0245
     26 C          -6.1267  -20.2954   20.1412 C.3     1  UNL1        0.4088
     27 F          -7.4669  -20.5581   19.5210 F       1  UNL1       -0.1686
     28 F          -6.2618  -18.8375   19.8155 F       1  UNL1       -0.1686
     29 F          -5.9916  -21.7534   20.4669 F       1  UNL1       -0.1686
@<TRIPOS>BOND
     1    10     9    1
     2    10    11    1
     3    11    12    1
     4    12    13    1
     5    12     1    1
     6     1     2   ar
     7     2     3   ar
     8     3    20    1
     9    20    21    1
    10    21    23    1
    11    23    26    1
    12    26    27    1
    13    26    28    1
    14    26    29    1
    15    23    24    1
    16    24    25    1
    17     3     4   ar
    18     4     5    1
    19     4     6   ar
    20     6     7   ar
    21     7     8    1
    22    12    14    1
    23    14    15    2
    24    15    16    1
    25    15    17    1
    26    17    10    1
    27     7     1   ar
    28    25    23    1
    29    21    22    1
    30    16    18    1
    31    16    19    1
@<TRIPOS>MOLECULE
*****
 29 31 0 0 0
SMALL
GASTEIGER

@<TRIPOS>ATOM
      1 C          -8.4523  -18.7172   21.8245 C.ar    1  UNL1        0.0252
      2 C          -7.3098  -18.2015   22.6485 C.ar    1  UNL1       -0.0009
      3 C          -5.8972  -18.4384   22.2033 C.ar    1  UNL1        0.0210
      4 C          -5.6269  -19.1910   20.9342 C.ar    1  UNL1        0.1397
      5 F          -4.2142  -19.4279   20.4889 F       1  UNL1       -0.2044
      6 C          -6.7693  -19.7067   20.1103 C.ar    1  UNL1        0.0587
      7 C          -8.1821  -19.4698   20.5554 C.ar    1  UNL1        0.1401
      8 F          -9.3246  -19.9855   19.7315 F       1  UNL1       -0.2044
      9 C         -13.5963  -17.8988   23.4899 C.3     1  UNL1        0.0122
     10 C         -12.3159  -17.7474   22.7234 C.3     1  UNL1        0.0568
     11 C         -11.1454  -18.6317   23.0363 C.3     1  UNL1        0.0380
     12 C          -9.8650  -18.4803   22.2698 C.3     1  UNL1        0.1080
     13 C          -9.4843  -19.5982   23.1946 C.3     1  UNL1        0.0291
     14 N          -9.7550  -17.4446   21.1903 N.2     1  UNL1       -0.2509
     15 C         -10.9255  -16.5604   20.8774 C.2     1  UNL1        0.1481
     16 N         -10.8156  -15.5247   19.7979 N.pl3   1  UNL1       -0.3380
     17 S         -12.2059  -16.7118   21.6439 S.3     1  UNL1       -0.0816
     18 H          -9.9752  -15.4253   19.2948 H       1  UNL1        0.1442
     19 H         -11.5838  -14.9443   19.5925 H       1  UNL1        0.1442
     20 C          -4.7546  -17.9227   23.0272 C.3     1  UNL1        0.0980
     21 N          -4.6982  -16.4727   23.4067 N.3     1  UNL1       -0.2892
     22 H          -5.1803  -15.9567   22.6707 H       1  UNL1        0.1237
     23 C          -5.2827  -16.0153   24.7103 C.3     1  UNL1        0.1307
     24 C          -5.4607  -15.8330   26.1885 C.3     1  UNL1        0.0245
     25 C          -4.3153  -16.6486   25.6659 C.3     1  UNL1        0.0245
     26 C          -6.4530  -15.2232   24.2074 C.3     1  UNL1        0.4088
     27 F          -7.6234  -14.4311   23.7046 F       1  UNL1       -0.1686
     28 F          -5.6098  -14.6877   23.0884 F       1  UNL1       -0.1686
     29 F          -7.2963  -15.7586   25.3265 F       1  UNL1       -0.1686
@<TRIPOS>BOND
     1    10     9    1
     2    10    11    1
     3    11    12    1
     4    12    13    1
     5    12     1    1
     6     1     2   ar
     7     2     3   ar
     8     3    20    1
     9    20    21    1
    10    21    23    1
    11    23    26    1
    12    26    27    1
    13    26    28    1
    14    26    29    1
    15    23    24    1
    16    24    25    1
    17     3     4   ar
    18     4     5    1
    19     4     6   ar
    20     6     7   ar
    21     7     8    1
    22    12    14    1
    23    14    15    2
    24    15    16    1
    25    15    17    1
    26    17    10    1
    27     7     1   ar
    28    25    23    1
    29    21    22    1
    30    16    18    1
    31    16    19    1
@<TRIPOS>MOLECULE
*****
 29 31 0 0 0
SMALL
GASTEIGER

@<TRIPOS>ATOM
      1 C          -8.6726  -17.6649   23.1407 C.ar    1  UNL1        0.0252
      2 C          -7.9648  -16.4793   23.7268 C.ar    1  UNL1       -0.0009
      3 C          -6.4739  -16.3628   23.6104 C.ar    1  UNL1        0.0210
      4 C          -5.6907  -17.4320   22.9080 C.ar    1  UNL1        0.1397
      5 F          -4.1997  -17.3156   22.7915 F       1  UNL1       -0.2044
      6 C          -6.3984  -18.6176   22.3219 C.ar    1  UNL1        0.0587
      7 C          -7.8893  -18.7341   22.4383 C.ar    1  UNL1        0.1401
      8 F          -8.5971  -19.9197   21.8522 F       1  UNL1       -0.2044
      9 C         -14.1013  -18.1142   23.6217 C.3     1  UNL1        0.0122
     10 C         -12.7529  -17.7975   23.0459 C.3     1  UNL1        0.0568
     11 C         -11.5119  -18.0980   23.8330 C.3     1  UNL1        0.0380
     12 C         -10.1635  -17.7813   23.2572 C.3     1  UNL1        0.1080
     13 C          -9.7531  -18.3581   24.5796 C.3     1  UNL1        0.0291
     14 N         -10.0561  -17.1641   21.8943 N.2     1  UNL1       -0.2509
     15 C         -11.2971  -16.8636   21.1072 C.2     1  UNL1        0.1481
     16 N         -11.1898  -16.2464   19.7442 N.pl3   1  UNL1       -0.3380
     17 S         -12.6455  -17.1803   21.6830 S.3     1  UNL1       -0.0816
     18 H         -10.3048  -16.0385   19.3663 H       1  UNL1        0.1442
     19 H         -12.0043  -16.0492   19.2276 H       1  UNL1        0.1442
     20 C          -5.7662  -15.1772   24.1965 C.3     1  UNL1        0.0980
     21 N          -6.2082  -14.6165   25.5157 N.3     1  UNL1       -0.2892
     22 H          -7.1317  -14.2093   25.3680 H       1  UNL1        0.1237
     23 C          -6.3169  -15.5134   26.7131 C.3     1  UNL1        0.1307
     24 C          -5.9849  -16.5923   27.7009 C.3     1  UNL1        0.0245
     25 C          -5.0856  -16.3492   26.5252 C.3     1  UNL1        0.0245
     26 C          -7.5859  -14.9890   27.3170 C.3     1  UNL1        0.4088
     27 F          -8.8550  -14.4647   27.9208 F       1  UNL1       -0.1686
     28 F          -6.8015  -13.9530   28.0662 F       1  UNL1       -0.1686
     29 F          -8.3705  -16.0250   26.5679 F       1  UNL1       -0.1686
@<TRIPOS>BOND
     1    10     9    1
     2    10    11    1
     3    11    12    1
     4    12    13    1
     5    12     1    1
     6     1     2   ar
     7     2     3   ar
     8     3    20    1
     9    20    21    1
    10    21    23    1
    11    23    26    1
    12    26    27    1
    13    26    28    1
    14    26    29    1
    15    23    24    1
    16    24    25    1
    17     3     4   ar
    18     4     5    1
    19     4     6   ar
    20     6     7   ar
    21     7     8    1
    22    12    14    1
    23    14    15    2
    24    15    16    1
    25    15    17    1
    26    17    10    1
    27     7     1   ar
    28    25    23    1
    29    21    22    1
    30    16    18    1
    31    16    19    1
@<TRIPOS>MOLECULE
*****
 29 31 0 0 0
SMALL
GASTEIGER

@<TRIPOS>ATOM
      1 C          -6.4418  -17.1222   23.2545 C.ar    1  UNL1        0.0252
      2 C          -7.7769  -17.7784   23.4470 C.ar    1  UNL1       -0.0009
      3 C          -8.8958  -17.0243   24.1023 C.ar    1  UNL1        0.0210
      4 C          -8.6796  -15.6139   24.5650 C.ar    1  UNL1        0.1397
      5 F          -9.7985  -14.8596   25.2203 F       1  UNL1       -0.2044
      6 C          -7.3446  -14.9577   24.3725 C.ar    1  UNL1        0.0587
      7 C          -6.2257  -15.7118   23.7173 C.ar    1  UNL1        0.1401
      8 F          -4.8906  -15.0556   23.5248 F       1  UNL1       -0.2044
      9 C          -2.3255  -19.8565   20.9128 C.3     1  UNL1        0.0122
     10 C          -3.6886  -19.2735   21.1409 C.3     1  UNL1        0.0568
     11 C          -3.9599  -18.4594   22.3712 C.3     1  UNL1        0.0380
     12 C          -5.3230  -17.8764   22.5993 C.3     1  UNL1        0.1080
     13 C          -4.6197  -17.3835   23.8291 C.3     1  UNL1        0.0291
     14 N          -6.4148  -18.1074   21.5971 N.2     1  UNL1       -0.2509
     15 C          -6.1435  -18.9215   20.3668 C.2     1  UNL1        0.1481
     16 N          -7.2354  -19.1525   19.3644 N.pl3   1  UNL1       -0.3380
     17 S          -4.7804  -19.5045   20.1387 S.3     1  UNL1       -0.0816
     18 H          -8.1301  -18.7699   19.5141 H       1  UNL1        0.1442
     19 H          -7.0573  -19.6868   18.5569 H       1  UNL1        0.1442
     20 C         -10.2308  -17.6805   24.2948 C.3     1  UNL1        0.0980
     21 N         -10.6846  -18.7499   23.3459 N.3     1  UNL1       -0.2892
     22 H         -11.1410  -19.4682   23.9083 H       1  UNL1        0.1237
     23 C         -11.6266  -18.4111   22.2288 C.3     1  UNL1        0.1307
     24 C         -12.7593  -17.7655   21.4871 C.3     1  UNL1        0.0245
     25 C         -12.5030  -17.4102   22.9217 C.3     1  UNL1        0.0245
     26 C         -11.0772  -19.2943   21.1479 C.3     1  UNL1        0.4088
     27 F         -10.5279  -20.1774   20.0671 F       1  UNL1       -0.1686
     28 F         -11.0440  -18.1248   20.2092 F       1  UNL1       -0.1686
     29 F         -11.1104  -20.4638   22.0867 F       1  UNL1       -0.1686
@<TRIPOS>BOND
     1    10     9    1
     2    10    11    1
     3    11    12    1
     4    12    13    1
     5    12     1    1
     6     1     2   ar
     7     2     3   ar
     8     3    20    1
     9    20    21    1
    10    21    23    1
    11    23    26    1
    12    26    27    1
    13    26    28    1
    14    26    29    1
    15    23    24    1
    16    24    25    1
    17     3     4   ar
    18     4     5    1
    19     4     6   ar
    20     6     7   ar
    21     7     8    1
    22    12    14    1
    23    14    15    2
    24    15    16    1
    25    15    17    1
    26    17    10    1
    27     7     1   ar
    28    25    23    1
    29    21    22    1
    30    16    18    1
    31    16    19    1
