@<TRIPOS>MOLECULE
*****
 30 33 0 0 0
SMALL
GASTEIGER

@<TRIPOS>ATOM
      1 N         -10.7153  -16.8563   22.6098 N.ar    1  UNL1       -0.3306
      2 C          -9.3733  -16.5690   23.2153 C.ar    1  UNL1        0.0332
      3 C          -8.3437  -17.3466   22.4504 C.ar    1  UNL1       -0.0077
      4 C          -9.0492  -18.1145   21.3721 C.ar    1  UNL1        0.0129
      5 C          -8.5464  -19.0504   20.3133 C.ar    1  UNL1        0.0012
      6 C          -9.5093  -19.6834   19.3531 C.ar    1  UNL1        0.0001
      7 C         -10.9751  -19.3803   19.4516 C.ar    1  UNL1        0.0015
      8 C         -11.4779  -18.4443   20.5104 C.ar    1  UNL1        0.0172
      9 C         -10.5150  -17.8114   21.4707 C.ar    1  UNL1        0.0593
     10 C          -6.8966  -17.2550   22.8345 C.3     1  UNL1        0.0449
     11 C          -6.4792  -16.3859   23.9836 C.3     1  UNL1        0.0803
     12 C          -7.5088  -15.6082   24.7485 C.3     1  UNL1        0.0240
     13 C          -8.9559  -15.6998   24.3644 C.3     1  UNL1        0.0449
     14 N          -5.0320  -16.2943   24.3677 N.3     1  UNL1       -0.1804
     15 H          -4.9155  -16.8544   25.2121 H       1  UNL1        0.1488
     16 S          -3.9710  -16.7372   23.4043 S.O2    1  UNL1        0.0602
     17 O          -3.9454  -18.0890   24.0538 O.2     1  UNL1       -0.1530
     18 O          -3.9965  -15.3854   22.7548 O.2     1  UNL1       -0.1530
     19 C          -2.9099  -17.1801   22.4409 C.ar    1  UNL1        0.1221
     20 C          -2.0732  -16.1608   21.7261 C.ar    1  UNL1        0.0222
     21 C          -1.0122  -16.6036   20.7628 C.ar    1  UNL1        0.0310
     22 C          -0.7879  -18.0657   20.5142 C.ar    1  UNL1        0.1402
     23 F           0.2731  -18.5086   19.5508 F       1  UNL1       -0.2042
     24 C          -1.6246  -19.0851   21.2289 C.ar    1  UNL1        0.0310
     25 C          -2.6857  -18.6423   22.1923 C.ar    1  UNL1        0.0222
     26 C         -12.0272  -16.2882   23.0637 C.3     1  UNL1        0.1116
     27 C         -13.2378  -17.1699   23.1469 C.3     1  UNL1        0.0661
     28 O         -12.1000  -18.8220   24.7980 O.co2   1  UNL1       -0.5491
     29 C         -13.3422  -18.2001   24.2322 C.2     1  UNL1        0.0523
     30 O         -14.6889  -18.6083   24.7517 O.co2   1  UNL1       -0.5491
@<TRIPOS>UNITY_ATOM_ATTR
28 1
charge -1
@<TRIPOS>BOND
     1    28    29   ar
     2    29    30   ar
     3    29    27    1
     4    27    26    1
     5    26     1    1
     6     1     2   ar
     7     2     3   ar
     8     3     4   ar
     9     4     5   ar
    10     5     6   ar
    11     6     7   ar
    12     7     8   ar
    13     8     9   ar
    14     3    10    1
    15    10    11    1
    16    11    14    1
    17    14    16    1
    18    16    17    2
    19    16    18    2
    20    16    19    1
    21    19    20   ar
    22    20    21   ar
    23    21    22   ar
    24    22    23    1
    25    22    24   ar
    26    24    25   ar
    27    11    12    1
    28    12    13    1
    29     9     1   ar
    30    25    19   ar
    31    13     2    1
    32     9     4   ar
    33    14    15    1
@<TRIPOS>MOLECULE
*****
 30 33 0 0 0
SMALL
GASTEIGER

@<TRIPOS>ATOM
      1 N         -11.3661  -18.3892   23.0896 N.ar    1  UNL1       -0.3306
      2 C         -10.0562  -19.0915   22.8874 C.ar    1  UNL1        0.0332
      3 C          -9.4952  -18.6549   21.5665 C.ar    1  UNL1       -0.0077
      4 C         -10.4584  -17.6828   20.9523 C.ar    1  UNL1        0.0129
      5 C         -10.4320  -16.9260   19.6576 C.ar    1  UNL1        0.0012
      6 C         -11.5619  -16.0049   19.3041 C.ar    1  UNL1        0.0001
      7 C         -12.7181  -15.8406   20.2454 C.ar    1  UNL1        0.0015
      8 C         -12.7446  -16.5975   21.5402 C.ar    1  UNL1        0.0172
      9 C         -11.6147  -17.5186   21.8936 C.ar    1  UNL1        0.0593
     10 C          -8.1798  -19.1990   21.0936 C.3     1  UNL1        0.0449
     11 C          -7.4253  -20.1797   21.9417 C.3     1  UNL1        0.0803
     12 C          -7.9863  -20.6163   23.2625 C.3     1  UNL1        0.0240
     13 C          -9.3017  -20.0722   23.7354 C.3     1  UNL1        0.0449
     14 N          -6.1098  -20.7238   21.4687 N.3     1  UNL1       -0.1804
     15 H          -6.2885  -21.1985   20.5838 H       1  UNL1        0.1488
     16 S          -4.9544  -19.7959   21.2367 S.O2    1  UNL1        0.0602
     17 O          -4.7765  -19.6466   22.7185 O.2     1  UNL1       -0.1530
     18 O          -5.1322  -19.9451   19.7548 O.2     1  UNL1       -0.1530
     19 C          -3.7989  -18.8679   21.0046 C.ar    1  UNL1        0.1221
     20 C          -3.2971  -18.0011   22.1211 C.ar    1  UNL1        0.0222
     21 C          -2.1417  -17.0732   21.8890 C.ar    1  UNL1        0.0310
     22 C          -1.4880  -17.0122   20.5403 C.ar    1  UNL1        0.1402
     23 F          -0.3325  -16.0842   20.3082 F       1  UNL1       -0.2042
     24 C          -1.9897  -17.8790   19.4236 C.ar    1  UNL1        0.0310
     25 C          -3.1452  -18.8069   19.6558 C.ar    1  UNL1        0.0222
     26 C         -12.2689  -18.5324   24.2789 C.3     1  UNL1        0.1116
     27 C         -13.6329  -17.9086   24.2645 C.3     1  UNL1        0.0661
     28 O         -14.6586  -18.8261   26.4681 O.co2   1  UNL1       -0.5491
     29 C         -14.7661  -18.5662   24.9948 C.2     1  UNL1        0.0523
     30 O         -16.0069  -18.9640   24.2517 O.co2   1  UNL1       -0.5491
@<TRIPOS>UNITY_ATOM_ATTR
28 1
charge -1
@<TRIPOS>BOND
     1    28    29   ar
     2    29    30   ar
     3    29    27    1
     4    27    26    1
     5    26     1    1
     6     1     2   ar
     7     2     3   ar
     8     3     4   ar
     9     4     5   ar
    10     5     6   ar
    11     6     7   ar
    12     7     8   ar
    13     8     9   ar
    14     3    10    1
    15    10    11    1
    16    11    14    1
    17    14    16    1
    18    16    17    2
    19    16    18    2
    20    16    19    1
    21    19    20   ar
    22    20    21   ar
    23    21    22   ar
    24    22    23    1
    25    22    24   ar
    26    24    25   ar
    27    11    12    1
    28    12    13    1
    29     9     1   ar
    30    25    19   ar
    31    13     2    1
    32     9     4   ar
    33    14    15    1
@<TRIPOS>MOLECULE
*****
 30 33 0 0 0
SMALL
GASTEIGER

@<TRIPOS>ATOM
      1 N         -10.4067  -18.5548   23.2073 N.ar    1  UNL1       -0.3306
      2 C          -9.1904  -19.1476   22.5599 C.ar    1  UNL1        0.0332
      3 C          -9.1635  -18.7013   21.1281 C.ar    1  UNL1       -0.0077
      4 C         -10.3632  -17.8328   20.8905 C.ar    1  UNL1        0.0129
      5 C         -10.8552  -17.1127   19.6702 C.ar    1  UNL1        0.0012
      6 C         -12.1156  -16.3021   19.7348 C.ar    1  UNL1        0.0001
      7 C         -12.8839  -16.2115   21.0199 C.ar    1  UNL1        0.0015
      8 C         -12.3919  -16.9316   22.2403 C.ar    1  UNL1        0.0172
      9 C         -11.1315  -17.7422   22.1756 C.ar    1  UNL1        0.0593
     10 C          -8.0500  -19.1436   20.2255 C.3     1  UNL1        0.0449
     11 C          -6.9634  -20.0320   20.7548 C.3     1  UNL1        0.0803
     12 C          -6.9904  -20.4782   22.1866 C.3     1  UNL1        0.0240
     13 C          -8.1038  -20.0360   23.0892 C.3     1  UNL1        0.0449
     14 N          -5.8499  -20.4742   19.8522 N.3     1  UNL1       -0.1804
     15 H          -6.1874  -20.3698   18.8953 H       1  UNL1        0.1488
     16 S          -4.5157  -19.7919   19.9176 S.O2    1  UNL1        0.0602
     17 O          -3.8435  -21.1221   20.0861 O.2     1  UNL1       -0.1530
     18 O          -5.1879  -18.4615   19.7491 O.2     1  UNL1       -0.1530
     19 C          -3.1815  -19.1094   19.9830 C.ar    1  UNL1        0.1221
     20 C          -2.6211  -18.4396   18.7635 C.ar    1  UNL1        0.0222
     21 C          -1.2870  -17.7572   18.8289 C.ar    1  UNL1        0.0310
     22 C          -0.5132  -17.7446   20.1139 C.ar    1  UNL1        0.1402
     23 F           0.8210  -17.0622   20.1793 F       1  UNL1       -0.2042
     24 C          -1.0735  -18.4144   21.3335 C.ar    1  UNL1        0.0310
     25 C          -2.4077  -19.0969   21.2681 C.ar    1  UNL1        0.0222
     26 C         -10.8249  -18.7417   24.6357 C.3     1  UNL1        0.1116
     27 C          -9.8421  -18.4999   25.7427 C.3     1  UNL1        0.0661
     28 O          -9.1967  -16.1983   24.7249 O.co2   1  UNL1       -0.5491
     29 C          -9.1719  -17.1642   25.8722 C.2     1  UNL1        0.0523
     30 O          -8.4768  -16.7945   27.1490 O.co2   1  UNL1       -0.5491
@<TRIPOS>UNITY_ATOM_ATTR
28 1
charge -1
@<TRIPOS>BOND
     1    28    29   ar
     2    29    30   ar
     3    29    27    1
     4    27    26    1
     5    26     1    1
     6     1     2   ar
     7     2     3   ar
     8     3     4   ar
     9     4     5   ar
    10     5     6   ar
    11     6     7   ar
    12     7     8   ar
    13     8     9   ar
    14     3    10    1
    15    10    11    1
    16    11    14    1
    17    14    16    1
    18    16    17    2
    19    16    18    2
    20    16    19    1
    21    19    20   ar
    22    20    21   ar
    23    21    22   ar
    24    22    23    1
    25    22    24   ar
    26    24    25   ar
    27    11    12    1
    28    12    13    1
    29     9     1   ar
    30    25    19   ar
    31    13     2    1
    32     9     4   ar
    33    14    15    1
@<TRIPOS>MOLECULE
*****
 30 33 0 0 0
SMALL
GASTEIGER

@<TRIPOS>ATOM
      1 N         -11.2516  -17.3405   23.3385 N.ar    1  UNL1       -0.3306
      2 C          -9.8607  -17.0051   23.7888 C.ar    1  UNL1        0.0332
      3 C          -9.1941  -16.2264   22.6937 C.ar    1  UNL1       -0.0077
      4 C         -10.1731  -16.0806   21.5666 C.ar    1  UNL1        0.0129
      5 C         -10.0709  -15.4098   20.2288 C.ar    1  UNL1        0.0012
      6 C         -11.2404  -15.4276   19.2897 C.ar    1  UNL1        0.0001
      7 C         -12.5120  -16.1161   19.6883 C.ar    1  UNL1        0.0015
      8 C         -12.6142  -16.7869   21.0260 C.ar    1  UNL1        0.0172
      9 C         -11.4447  -16.7692   21.9651 C.ar    1  UNL1        0.0593
     10 C          -7.7818  -15.7507   22.8642 C.3     1  UNL1        0.0449
     11 C          -7.0361  -16.0537   24.1300 C.3     1  UNL1        0.0803
     12 C          -7.7026  -16.8324   25.2251 C.3     1  UNL1        0.0240
     13 C          -9.1149  -17.3081   25.0546 C.3     1  UNL1        0.0449
     14 N          -5.6237  -15.5780   24.3005 N.3     1  UNL1       -0.1804
     15 H          -5.3734  -15.7423   25.2756 H       1  UNL1        0.1488
     16 S          -4.5270  -16.1704   23.4661 S.O2    1  UNL1        0.0602
     17 O          -4.3931  -14.8749   22.7221 O.2     1  UNL1       -0.1530
     18 O          -4.6608  -17.4660   24.2102 O.2     1  UNL1       -0.1530
     19 C          -3.4302  -16.7629   22.6318 C.ar    1  UNL1        0.1221
     20 C          -3.3134  -18.2520   22.4944 C.ar    1  UNL1        0.0222
     21 C          -2.2167  -18.8445   21.6601 C.ar    1  UNL1        0.0310
     22 C          -1.2368  -17.9478   20.9631 C.ar    1  UNL1        0.1402
     23 F          -0.1400  -18.5403   20.1288 F       1  UNL1       -0.2042
     24 C          -1.3535  -16.4587   21.1004 C.ar    1  UNL1        0.0310
     25 C          -2.4502  -15.8662   21.9348 C.ar    1  UNL1        0.0222
     26 C         -12.2706  -18.1119   24.1238 C.3     1  UNL1        0.1116
     27 C         -13.7240  -17.7562   24.0200 C.3     1  UNL1        0.0661
     28 O         -14.4679  -18.7865   26.2860 O.co2   1  UNL1       -0.5491
     29 C         -14.7382  -18.4981   24.8390 C.2     1  UNL1        0.0523
     30 O         -16.0227  -18.9517   24.2111 O.co2   1  UNL1       -0.5491
@<TRIPOS>UNITY_ATOM_ATTR
28 1
charge -1
@<TRIPOS>BOND
     1    28    29   ar
     2    29    30   ar
     3    29    27    1
     4    27    26    1
     5    26     1    1
     6     1     2   ar
     7     2     3   ar
     8     3     4   ar
     9     4     5   ar
    10     5     6   ar
    11     6     7   ar
    12     7     8   ar
    13     8     9   ar
    14     3    10    1
    15    10    11    1
    16    11    14    1
    17    14    16    1
    18    16    17    2
    19    16    18    2
    20    16    19    1
    21    19    20   ar
    22    20    21   ar
    23    21    22   ar
    24    22    23    1
    25    22    24   ar
    26    24    25   ar
    27    11    12    1
    28    12    13    1
    29     9     1   ar
    30    25    19   ar
    31    13     2    1
    32     9     4   ar
    33    14    15    1
@<TRIPOS>MOLECULE
*****
 30 33 0 0 0
SMALL
GASTEIGER

@<TRIPOS>ATOM
      1 N          -3.1647  -18.2210   21.9137 N.ar    1  UNL1       -0.3306
      2 C          -4.1961  -17.4340   22.6665 C.ar    1  UNL1        0.0332
      3 C          -5.5345  -18.0621   22.4131 C.ar    1  UNL1       -0.0077
      4 C          -5.3303  -19.2374   21.5037 C.ar    1  UNL1        0.0129
      5 C          -6.2887  -20.2308   20.9167 C.ar    1  UNL1        0.0012
      6 C          -5.7825  -21.3224   20.0212 C.ar    1  UNL1        0.0001
      7 C          -4.3179  -21.4206   19.7125 C.ar    1  UNL1        0.0015
      8 C          -3.3595  -20.4272   20.2995 C.ar    1  UNL1        0.0172
      9 C          -3.8656  -19.3356   21.1950 C.ar    1  UNL1        0.0593
     10 C          -6.7662  -17.4827   23.0432 C.3     1  UNL1        0.0449
     11 C          -6.6597  -16.2752   23.9267 C.3     1  UNL1        0.0803
     12 C          -5.3213  -15.6471   24.1802 C.3     1  UNL1        0.0240
     13 C          -4.0895  -16.2265   23.5501 C.3     1  UNL1        0.0449
     14 N          -7.8915  -15.6958   24.5569 N.3     1  UNL1       -0.1804
     15 H          -7.9195  -14.7100   24.2967 H       1  UNL1        0.1488
     16 S          -9.2397  -16.2678   24.2323 S.O2    1  UNL1        0.0602
     17 O          -9.2519  -16.9863   25.5489 O.2     1  UNL1       -0.1530
     18 O          -9.2275  -15.5492   22.9157 O.2     1  UNL1       -0.1530
     19 C         -10.5879  -16.8397   23.9077 C.ar    1  UNL1        0.1221
     20 C         -11.5005  -16.1181   22.9610 C.ar    1  UNL1        0.0222
     21 C         -12.8486  -16.6900   22.6364 C.ar    1  UNL1        0.0310
     22 C         -13.2841  -17.9836   23.2585 C.ar    1  UNL1        0.1402
     23 F         -14.6323  -18.5555   22.9339 F       1  UNL1       -0.2042
     24 C         -12.3715  -18.7053   24.2053 C.ar    1  UNL1        0.0310
     25 C         -11.0234  -18.1334   24.5299 C.ar    1  UNL1        0.0222
     26 C          -1.6911  -17.9425   21.8847 C.3     1  UNL1        0.1116
     27 C          -1.0774  -17.2749   20.6899 C.3     1  UNL1        0.0661
     28 O           0.5473  -19.0218   19.6610 O.co2   1  UNL1       -0.5491
     29 C          -0.6262  -18.0982   19.5200 C.2     1  UNL1        0.0523
     30 O          -1.3484  -17.9979   18.2092 O.co2   1  UNL1       -0.5491
@<TRIPOS>UNITY_ATOM_ATTR
28 1
charge -1
@<TRIPOS>BOND
     1    28    29   ar
     2    29    30   ar
     3    29    27    1
     4    27    26    1
     5    26     1    1
     6     1     2   ar
     7     2     3   ar
     8     3     4   ar
     9     4     5   ar
    10     5     6   ar
    11     6     7   ar
    12     7     8   ar
    13     8     9   ar
    14     3    10    1
    15    10    11    1
    16    11    14    1
    17    14    16    1
    18    16    17    2
    19    16    18    2
    20    16    19    1
    21    19    20   ar
    22    20    21   ar
    23    21    22   ar
    24    22    23    1
    25    22    24   ar
    26    24    25   ar
    27    11    12    1
    28    12    13    1
    29     9     1   ar
    30    25    19   ar
    31    13     2    1
    32     9     4   ar
    33    14    15    1
@<TRIPOS>MOLECULE
*****
 30 33 0 0 0
SMALL
GASTEIGER

@<TRIPOS>ATOM
      1 N          -4.7323  -19.3473   20.8367 N.ar    1  UNL1       -0.3306
      2 C          -6.1965  -19.2912   20.5157 C.ar    1  UNL1        0.0332
      3 C          -6.8615  -18.4161   21.5365 C.ar    1  UNL1       -0.0077
      4 C          -5.8084  -17.9315   22.4884 C.ar    1  UNL1        0.0129
      5 C          -5.8777  -17.0405   23.6930 C.ar    1  UNL1        0.0012
      6 C          -4.6311  -16.7250   24.4652 C.ar    1  UNL1        0.0001
      7 C          -3.3151  -17.3005   24.0327 C.ar    1  UNL1        0.0015
      8 C          -3.2458  -18.1915   22.8280 C.ar    1  UNL1        0.0172
      9 C          -4.4925  -18.5070   22.0559 C.ar    1  UNL1        0.0593
     10 C          -8.3402  -18.1737   21.4674 C.3     1  UNL1        0.0449
     11 C          -9.1538  -18.8063   20.3775 C.3     1  UNL1        0.0803
     12 C          -8.4888  -19.6813   19.3567 C.3     1  UNL1        0.0240
     13 C          -7.0101  -19.9238   19.4258 C.3     1  UNL1        0.0449
     14 N         -10.6325  -18.5638   20.3084 N.3     1  UNL1       -0.1804
     15 H         -11.0237  -19.2965   19.7163 H       1  UNL1        0.1488
     16 S         -11.4485  -18.5424   21.5668 S.O2    1  UNL1        0.0602
     17 O         -11.7399  -17.0866   21.3532 O.2     1  UNL1       -0.1530
     18 O         -11.1571  -19.9982   21.7805 O.2     1  UNL1       -0.1530
     19 C         -12.2645  -18.5210   22.8253 C.ar    1  UNL1        0.1221
     20 C         -11.6425  -18.9241   24.1294 C.ar    1  UNL1        0.0222
     21 C         -12.4585  -18.9027   25.3878 C.ar    1  UNL1        0.0310
     22 C         -13.8964  -18.4782   25.3422 C.ar    1  UNL1        0.1402
     23 F         -14.7124  -18.4569   26.6007 F       1  UNL1       -0.2042
     24 C         -14.5185  -18.0751   24.0382 C.ar    1  UNL1        0.0310
     25 C         -13.7025  -18.0965   22.7797 C.ar    1  UNL1        0.0222
     26 C          -3.6908  -20.1099   20.0727 C.3     1  UNL1        0.1116
     27 C          -2.9157  -19.4332   18.9814 C.3     1  UNL1        0.0661
     28 O          -2.6141  -16.9203   19.5681 O.co2   1  UNL1       -0.5491
     29 C          -2.0217  -18.2729   19.3049 C.2     1  UNL1        0.0523
     30 O          -0.5353  -18.4654   19.3652 O.co2   1  UNL1       -0.5491
@<TRIPOS>UNITY_ATOM_ATTR
28 1
charge -1
@<TRIPOS>BOND
     1    28    29   ar
     2    29    30   ar
     3    29    27    1
     4    27    26    1
     5    26     1    1
     6     1     2   ar
     7     2     3   ar
     8     3     4   ar
     9     4     5   ar
    10     5     6   ar
    11     6     7   ar
    12     7     8   ar
    13     8     9   ar
    14     3    10    1
    15    10    11    1
    16    11    14    1
    17    14    16    1
    18    16    17    2
    19    16    18    2
    20    16    19    1
    21    19    20   ar
    22    20    21   ar
    23    21    22   ar
    24    22    23    1
    25    22    24   ar
    26    24    25   ar
    27    11    12    1
    28    12    13    1
    29     9     1   ar
    30    25    19   ar
    31    13     2    1
    32     9     4   ar
    33    14    15    1
@<TRIPOS>MOLECULE
*****
 30 33 0 0 0
SMALL
GASTEIGER

@<TRIPOS>ATOM
      1 N           3.2257   -1.4922   20.1505 N.ar    1  UNL1       -0.3306
      2 C           2.3375   -0.3008   19.9467 C.ar    1  UNL1        0.0332
      3 C           2.1045    0.3377   21.2839 C.ar    1  UNL1       -0.0077
      4 C           2.8486   -0.4592   22.3141 C.ar    1  UNL1        0.0129
      5 C           2.9847   -0.3011   23.7995 C.ar    1  UNL1        0.0012
      6 C           3.8138   -1.2740   24.5844 C.ar    1  UNL1        0.0001
      7 C           4.5068   -2.4050   23.8839 C.ar    1  UNL1        0.0015
      8 C           4.3706   -2.5631   22.3985 C.ar    1  UNL1        0.0172
      9 C           3.5416   -1.5902   21.6136 C.ar    1  UNL1        0.0593
     10 C           1.2448    1.5622   21.3907 C.3     1  UNL1        0.0449
     11 C           0.6182    2.1483   20.1603 C.3     1  UNL1        0.0803
     12 C           0.8512    1.5099   18.8231 C.3     1  UNL1        0.0240
     13 C           1.7109    0.2853   18.7163 C.3     1  UNL1        0.0449
     14 N          -0.2416    3.3729   20.2672 N.3     1  UNL1       -0.1804
     15 H          -0.6827    3.5033   19.3568 H       1  UNL1        0.1488
     16 S          -1.3358    3.4339   21.2913 S.O2    1  UNL1        0.0602
     17 O          -2.1333    2.4412   20.4986 O.2     1  UNL1       -0.1530
     18 O          -0.5384    4.4267   22.0841 O.2     1  UNL1       -0.1530
     19 C          -2.4300    3.4949   22.3156 C.ar    1  UNL1        0.1221
     20 C          -2.0913    3.6833   23.7646 C.ar    1  UNL1        0.0222
     21 C          -3.1855    3.7444   24.7888 C.ar    1  UNL1        0.0310
     22 C          -4.6184    3.6171   24.3639 C.ar    1  UNL1        0.1402
     23 F          -5.7126    3.6781   25.3882 F       1  UNL1       -0.2042
     24 C          -4.9572    3.4287   22.9149 C.ar    1  UNL1        0.0310
     25 C          -3.8630    3.3676   21.8907 C.ar    1  UNL1        0.0222
     26 C           3.7126   -2.4225   19.0793 C.3     1  UNL1        0.1116
     27 C           3.2215   -3.8391   19.0360 C.3     1  UNL1        0.0661
     28 O           3.2721   -6.0659   20.3735 O.co2   1  UNL1       -0.5491
     29 C           3.9959   -4.9228   19.7258 C.2     1  UNL1        0.0523
     30 O           5.4941   -4.8635   19.7678 O.co2   1  UNL1       -0.5491
@<TRIPOS>UNITY_ATOM_ATTR
28 1
charge -1
@<TRIPOS>BOND
     1    28    29   ar
     2    29    30   ar
     3    29    27    1
     4    27    26    1
     5    26     1    1
     6     1     2   ar
     7     2     3   ar
     8     3     4   ar
     9     4     5   ar
    10     5     6   ar
    11     6     7   ar
    12     7     8   ar
    13     8     9   ar
    14     3    10    1
    15    10    11    1
    16    11    14    1
    17    14    16    1
    18    16    17    2
    19    16    18    2
    20    16    19    1
    21    19    20   ar
    22    20    21   ar
    23    21    22   ar
    24    22    23    1
    25    22    24   ar
    26    24    25   ar
    27    11    12    1
    28    12    13    1
    29     9     1   ar
    30    25    19   ar
    31    13     2    1
    32     9     4   ar
    33    14    15    1
@<TRIPOS>MOLECULE
*****
 30 33 0 0 0
SMALL
GASTEIGER

@<TRIPOS>ATOM
      1 N           3.0544   -1.6272   20.3152 N.ar    1  UNL1       -0.3306
      2 C           2.2446   -0.3879   20.0736 C.ar    1  UNL1        0.0332
      3 C           2.1578    0.3683   21.3661 C.ar    1  UNL1       -0.0077
      4 C           2.9139   -0.4037   22.4065 C.ar    1  UNL1        0.0129
      5 C           3.1693   -0.1430   23.8614 C.ar    1  UNL1        0.0012
      6 C           3.9790   -1.1155   24.6667 C.ar    1  UNL1        0.0001
      7 C           4.5331   -2.3488   24.0172 C.ar    1  UNL1        0.0015
      8 C           4.2777   -2.6095   22.5623 C.ar    1  UNL1        0.0172
      9 C           3.4680   -1.6370   21.7570 C.ar    1  UNL1        0.0593
     10 C           1.4014    1.6621   21.4287 C.3     1  UNL1        0.0449
     11 C           0.7319    2.1997   20.1988 C.3     1  UNL1        0.0803
     12 C           0.8187    1.4436   18.9063 C.3     1  UNL1        0.0240
     13 C           1.5751    0.1498   18.8437 C.3     1  UNL1        0.0449
     14 N          -0.0246    3.4936   20.2615 N.3     1  UNL1       -0.1804
     15 H           0.4406    4.1379   19.6220 H       1  UNL1        0.1488
     16 S          -1.4853    3.5255   19.9218 S.O2    1  UNL1        0.0602
     17 O          -1.1894    4.3863   18.7297 O.2     1  UNL1       -0.1530
     18 O          -1.7812    2.6646   21.1141 O.2     1  UNL1       -0.1530
     19 C          -2.9460    3.5573   19.5823 C.ar    1  UNL1        0.1221
     20 C          -3.3829    3.8370   18.1748 C.ar    1  UNL1        0.0222
     21 C          -4.8436    3.8689   17.8353 C.ar    1  UNL1        0.0310
     22 C          -5.8674    3.6210   18.9032 C.ar    1  UNL1        0.1402
     23 F          -7.3281    3.6529   18.5636 F       1  UNL1       -0.2042
     24 C          -5.4306    3.3413   20.3107 C.ar    1  UNL1        0.0310
     25 C          -3.9698    3.3095   20.6502 C.ar    1  UNL1        0.0222
     26 C           3.3914   -2.6731   19.2941 C.3     1  UNL1        0.1116
     27 C           4.8171   -2.8835   18.8783 C.3     1  UNL1        0.0661
     28 O           6.8614   -2.1682   17.4433 O.co2   1  UNL1       -0.5491
     29 C           5.3960   -2.0805   17.7513 C.2     1  UNL1        0.0523
     30 O           4.5094   -1.1900   16.9322 O.co2   1  UNL1       -0.5491
@<TRIPOS>UNITY_ATOM_ATTR
28 1
charge -1
@<TRIPOS>BOND
     1    28    29   ar
     2    29    30   ar
     3    29    27    1
     4    27    26    1
     5    26     1    1
     6     1     2   ar
     7     2     3   ar
     8     3     4   ar
     9     4     5   ar
    10     5     6   ar
    11     6     7   ar
    12     7     8   ar
    13     8     9   ar
    14     3    10    1
    15    10    11    1
    16    11    14    1
    17    14    16    1
    18    16    17    2
    19    16    18    2
    20    16    19    1
    21    19    20   ar
    22    20    21   ar
    23    21    22   ar
    24    22    23    1
    25    22    24   ar
    26    24    25   ar
    27    11    12    1
    28    12    13    1
    29     9     1   ar
    30    25    19   ar
    31    13     2    1
    32     9     4   ar
    33    14    15    1
@<TRIPOS>MOLECULE
*****
 30 33 0 0 0
SMALL
GASTEIGER

@<TRIPOS>ATOM
      1 N           3.1231   -1.5849   20.1593 N.ar    1  UNL1       -0.3306
      2 C           2.2443   -0.3842   19.9691 C.ar    1  UNL1        0.0332
      3 C           2.0844    0.2885   21.3002 C.ar    1  UNL1       -0.0077
      4 C           2.8643   -0.4963   22.3130 C.ar    1  UNL1        0.0129
      5 C           3.0729   -0.3062   23.7862 C.ar    1  UNL1        0.0012
      6 C           3.9234   -1.2740   24.5543 C.ar    1  UNL1        0.0001
      7 C           4.5654   -2.4318   23.8492 C.ar    1  UNL1        0.0015
      8 C           4.3568   -2.6219   22.3760 C.ar    1  UNL1        0.0172
      9 C           3.5063   -1.6541   21.6079 C.ar    1  UNL1        0.0593
     10 C           1.2492    1.5289   21.4181 C.3     1  UNL1        0.0449
     11 C           0.5740    2.0965   20.2048 C.3     1  UNL1        0.0803
     12 C           0.7339    1.4237   18.8738 C.3     1  UNL1        0.0240
     13 C           1.5691    0.1834   18.7559 C.3     1  UNL1        0.0449
     14 N          -0.2612    3.3370   20.3227 N.3     1  UNL1       -0.1804
     15 H          -0.6807    3.4977   19.4069 H       1  UNL1        0.1488
     16 S          -1.3747    3.3987   21.3259 S.O2    1  UNL1        0.0602
     17 O          -0.5608    4.3321   22.1721 O.2     1  UNL1       -0.1530
     18 O          -2.1888    2.4653   20.4796 O.2     1  UNL1       -0.1530
     19 C          -2.4883    3.4604   22.3290 C.ar    1  UNL1        0.1221
     20 C          -2.1784    3.6678   23.7819 C.ar    1  UNL1        0.0222
     21 C          -3.2919    3.7295   24.7849 C.ar    1  UNL1        0.0310
     22 C          -4.7154    3.5838   24.3351 C.ar    1  UNL1        0.1402
     23 F          -5.8290    3.6455   25.3382 F       1  UNL1       -0.2042
     24 C          -5.0255    3.3764   22.8822 C.ar    1  UNL1        0.0310
     25 C          -3.9119    3.3147   21.8791 C.ar    1  UNL1        0.0222
     26 C           3.5448   -2.5473   19.0888 C.3     1  UNL1        0.1116
     27 C           4.8397   -2.3395   18.3610 C.3     1  UNL1        0.0661
     28 O           6.1838   -0.3174   17.4365 O.co2   1  UNL1       -0.5491
     29 C           4.9784   -1.2087   17.3851 C.2     1  UNL1        0.0523
     30 O           3.9119   -0.9694   16.3579 O.co2   1  UNL1       -0.5491
@<TRIPOS>UNITY_ATOM_ATTR
28 1
charge -1
@<TRIPOS>BOND
     1    28    29   ar
     2    29    30   ar
     3    29    27    1
     4    27    26    1
     5    26     1    1
     6     1     2   ar
     7     2     3   ar
     8     3     4   ar
     9     4     5   ar
    10     5     6   ar
    11     6     7   ar
    12     7     8   ar
    13     8     9   ar
    14     3    10    1
    15    10    11    1
    16    11    14    1
    17    14    16    1
    18    16    17    2
    19    16    18    2
    20    16    19    1
    21    19    20   ar
    22    20    21   ar
    23    21    22   ar
    24    22    23    1
    25    22    24   ar
    26    24    25   ar
    27    11    12    1
    28    12    13    1
    29     9     1   ar
    30    25    19   ar
    31    13     2    1
    32     9     4   ar
    33    14    15    1
