@<TRIPOS>MOLECULE
*****
 32 36 0 0 0
SMALL
GASTEIGER

@<TRIPOS>ATOM
      1 C         -10.0584  -17.0460   22.5124 C.ar    1  UNL1        0.0436
      2 C         -11.4876  -16.8166   22.9056 C.ar    1  UNL1        0.0142
      3 C         -12.5893  -17.5267   22.1762 C.ar    1  UNL1        0.0010
      4 C         -12.2618  -18.4662   21.0537 C.ar    1  UNL1       -0.0032
      5 C         -10.8326  -18.6957   20.6605 C.ar    1  UNL1       -0.0091
      6 C          -9.7309  -17.9856   21.3899 C.ar    1  UNL1       -0.0101
      7 C          -8.3016  -18.2149   20.9967 C.3     1  UNL1        0.0444
      8 C          -7.9740  -19.1544   19.8741 C.3     1  UNL1        0.0749
      9 N          -9.0758  -19.8646   19.1448 N.3     1  UNL1       -0.2934
     10 C         -10.5051  -19.6352   19.5380 C.3     1  UNL1        0.0954
     11 H          -8.8994  -20.8641   19.2459 H       1  UNL1        0.1236
     12 C          -7.4435  -15.6072   24.9938 C.3     1  UNL1        0.0791
     13 C          -7.0788  -14.8791   23.7341 C.3     1  UNL1        0.0391
     14 C          -8.0140  -15.3295   22.6512 C.3     1  UNL1        0.0923
     15 N          -8.9566  -16.3359   23.2417 N.pl3   1  UNL1       -0.3063
     16 C          -8.6040  -16.5076   24.6895 C.3     1  UNL1        0.1067
     17 C          -7.5836  -15.4227   27.5816 C.3     1  UNL1        0.0897
     18 N          -6.7664  -15.4607   26.3243 N.3     1  UNL1       -0.2699
     19 C          -5.2722  -15.3522   26.3976 C.3     1  UNL1        0.0897
     20 C          -6.5448  -19.3839   19.4809 C.3     1  UNL1        0.0886
     21 N          -5.5815  -19.9757   20.4667 N.3     1  UNL1       -0.2667
     22 C          -5.5156  -21.4630   20.6505 C.3     1  UNL1        0.0899
     23 C          -4.6841  -19.0804   21.2685 C.3     1  UNL1        0.0978
     24 C          -5.0400  -18.7349   22.6842 C.3     1  UNL1        0.0224
     25 C          -4.1426  -17.8396   23.4860 C.3     1  UNL1        0.0065
     26 C          -2.8892  -17.2898   22.8723 C.3     1  UNL1        0.0277
     27 C          -2.5332  -17.6353   21.4567 C.ar    1  UNL1       -0.0073
     28 C          -1.2798  -17.0855   20.8430 C.ar    1  UNL1       -0.0015
     29 C          -0.9238  -17.4310   19.4274 C.ar    1  UNL1        0.0203
     30 C          -1.8212  -18.3263   18.6256 C.ar    1  UNL1        0.0985
     31 N          -3.0746  -18.8761   19.2393 N.ar    1  UNL1       -0.2471
     32 C          -3.4306  -18.5306   20.6548 C.ar    1  UNL1        0.0695
@<TRIPOS>BOND
     1    17    18    1
     2    18    19    1
     3    12    18    1
     4    12    13    1
     5    13    14    1
     6    14    15    1
     7    15     1    1
     8     1     2   ar
     9     2     3   ar
    10     3     4   ar
    11     4     5   ar
    12     5     6   ar
    13     6     7    1
    14     7     8    1
    15     8    20    1
    16    20    21    1
    17    21    22    1
    18    23    21    1
    19    23    24    1
    20    24    25    1
    21    25    26    1
    22    26    27    1
    23    27    28   ar
    24    28    29   ar
    25    29    30   ar
    26    30    31   ar
    27    31    32   ar
    28     8     9    1
    29     9    10    1
    30    15    16    1
    31    16    12    1
    32     6     1   ar
    33    32    23    1
    34    10     5    1
    35    32    27   ar
    36     9    11    1
@<TRIPOS>MOLECULE
*****
 32 36 0 0 0
SMALL
GASTEIGER

@<TRIPOS>ATOM
      1 C           3.2288   -1.5984   20.3397 C.ar    1  UNL1        0.0436
      2 C           3.5543   -2.3432   19.0791 C.ar    1  UNL1        0.0142
      3 C           4.4840   -3.5195   19.1218 C.ar    1  UNL1        0.0010
      4 C           5.0881   -3.9511   20.4252 C.ar    1  UNL1       -0.0032
      5 C           4.7626   -3.2063   21.6858 C.ar    1  UNL1       -0.0091
      6 C           3.8329   -2.0300   21.6431 C.ar    1  UNL1       -0.0101
      7 C           3.5073   -1.2851   22.9038 C.3     1  UNL1        0.0444
      8 C           4.1114   -1.7167   24.2072 C.3     1  UNL1        0.0749
      9 N           5.0412   -2.8931   24.2498 N.3     1  UNL1       -0.2934
     10 C           5.3667   -3.6379   22.9892 C.3     1  UNL1        0.0954
     11 H           4.6309   -3.5694   24.8938 H       1  UNL1        0.1236
     12 C           1.4532    1.8468   20.1312 C.3     1  UNL1        0.0791
     13 C           0.2834    0.9296   20.3317 C.3     1  UNL1        0.0391
     14 C           0.8061   -0.4726   20.4342 C.3     1  UNL1        0.0923
     15 N           2.2990   -0.4220   20.2971 N.pl3   1  UNL1       -0.3063
     16 C           2.6989    1.0115   20.1098 C.3     1  UNL1        0.1067
     17 C           1.3518    4.2150   21.1950 C.3     1  UNL1        0.0897
     18 N           1.3887    3.3377   19.9789 N.3     1  UNL1       -0.2699
     19 C           1.3610    3.9513   18.6104 C.3     1  UNL1        0.0897
     20 C           3.7859   -0.9719   25.4678 C.3     1  UNL1        0.0886
     21 N           3.5272    0.5048   25.4210 N.3     1  UNL1       -0.2667
     22 C           4.6775    1.4675   25.4015 C.3     1  UNL1        0.0899
     23 C           2.1184    1.0190   25.3936 C.3     1  UNL1        0.0978
     24 C           1.5564    1.5998   24.1299 C.3     1  UNL1        0.0224
     25 C           0.1476    2.1139   24.1025 C.3     1  UNL1        0.0065
     26 C          -0.6993    2.0474   25.3387 C.3     1  UNL1        0.0277
     27 C          -0.1374    1.4666   26.6024 C.ar    1  UNL1       -0.0073
     28 C          -0.9843    1.4001   27.8387 C.ar    1  UNL1       -0.0015
     29 C          -0.4222    0.8193   29.1024 C.ar    1  UNL1        0.0203
     30 C           0.9866    0.3051   29.1298 C.ar    1  UNL1        0.0985
     31 N           1.8335    0.3717   27.8935 N.ar    1  UNL1       -0.2471
     32 C           1.2715    0.9524   26.6299 C.ar    1  UNL1        0.0695
@<TRIPOS>BOND
     1    17    18    1
     2    18    19    1
     3    12    18    1
     4    12    13    1
     5    13    14    1
     6    14    15    1
     7    15     1    1
     8     1     2   ar
     9     2     3   ar
    10     3     4   ar
    11     4     5   ar
    12     5     6   ar
    13     6     7    1
    14     7     8    1
    15     8    20    1
    16    20    21    1
    17    21    22    1
    18    23    21    1
    19    23    24    1
    20    24    25    1
    21    25    26    1
    22    26    27    1
    23    27    28   ar
    24    28    29   ar
    25    29    30   ar
    26    30    31   ar
    27    31    32   ar
    28     8     9    1
    29     9    10    1
    30    15    16    1
    31    16    12    1
    32     6     1   ar
    33    32    23    1
    34    10     5    1
    35    32    27   ar
    36     9    11    1
@<TRIPOS>MOLECULE
*****
 32 36 0 0 0
SMALL
GASTEIGER

@<TRIPOS>ATOM
      1 C           3.1888   -0.4911   19.6168 C.ar    1  UNL1        0.0436
      2 C           3.1558   -0.2319   18.1398 C.ar    1  UNL1        0.0142
      3 C           3.9840   -1.0709   17.2124 C.ar    1  UNL1        0.0010
      4 C           4.8453   -2.1691   17.7621 C.ar    1  UNL1       -0.0032
      5 C           4.8784   -2.4283   19.2391 C.ar    1  UNL1       -0.0091
      6 C           4.0501   -1.5893   20.1665 C.ar    1  UNL1       -0.0101
      7 C           4.0832   -1.8485   21.6436 C.3     1  UNL1        0.0444
      8 C           4.9445   -2.9467   22.1933 C.3     1  UNL1        0.0749
      9 N           5.7727   -3.7857   21.2658 N.3     1  UNL1       -0.2934
     10 C           5.7397   -3.5265   19.7888 C.3     1  UNL1        0.0954
     11 H           5.4785   -4.7528   21.4017 H       1  UNL1        0.1236
     12 C           1.6815    2.0732   22.1104 C.3     1  UNL1        0.0791
     13 C           0.4905    1.2047   21.8325 C.3     1  UNL1        0.0391
     14 C           0.9102    0.1384   20.8646 C.3     1  UNL1        0.0923
     15 N           2.3606    0.3479   20.5443 N.pl3   1  UNL1       -0.3063
     16 C           2.8373    1.5437   21.3142 C.3     1  UNL1        0.1067
     17 C           1.9908    3.0781   24.4862 C.3     1  UNL1        0.0897
     18 N           1.7115    3.2625   23.0240 N.3     1  UNL1       -0.2699
     19 C           1.4622    4.6362   22.4755 C.3     1  UNL1        0.0897
     20 C           4.9775   -3.2059   23.6703 C.3     1  UNL1        0.0886
     21 N           6.2765   -3.1285   24.4165 N.3     1  UNL1       -0.2667
     22 C           7.0939   -1.8715   24.3709 C.3     1  UNL1        0.0899
     23 C           6.7580   -4.3080   25.2082 C.3     1  UNL1        0.0978
     24 C           6.4239   -4.4195   26.6663 C.3     1  UNL1        0.0224
     25 C           6.9055   -5.5990   27.4580 C.3     1  UNL1        0.0065
     26 C           7.7212   -6.6670   26.7917 C.3     1  UNL1        0.0277
     27 C           8.0553   -6.5556   25.3337 C.ar    1  UNL1       -0.0073
     28 C           8.8710   -7.6236   24.6673 C.ar    1  UNL1       -0.0015
     29 C           9.2052   -7.5120   23.2092 C.ar    1  UNL1        0.0203
     30 C           8.7236   -6.3325   22.4175 C.ar    1  UNL1        0.0985
     31 N           7.9079   -5.2645   23.0838 N.ar    1  UNL1       -0.2471
     32 C           7.5737   -5.3760   24.5419 C.ar    1  UNL1        0.0695
@<TRIPOS>BOND
     1    17    18    1
     2    18    19    1
     3    12    18    1
     4    12    13    1
     5    13    14    1
     6    14    15    1
     7    15     1    1
     8     1     2   ar
     9     2     3   ar
    10     3     4   ar
    11     4     5   ar
    12     5     6   ar
    13     6     7    1
    14     7     8    1
    15     8    20    1
    16    20    21    1
    17    21    22    1
    18    23    21    1
    19    23    24    1
    20    24    25    1
    21    25    26    1
    22    26    27    1
    23    27    28   ar
    24    28    29   ar
    25    29    30   ar
    26    30    31   ar
    27    31    32   ar
    28     8     9    1
    29     9    10    1
    30    15    16    1
    31    16    12    1
    32     6     1   ar
    33    32    23    1
    34    10     5    1
    35    32    27   ar
    36     9    11    1
@<TRIPOS>MOLECULE
*****
 32 36 0 0 0
SMALL
GASTEIGER

@<TRIPOS>ATOM
      1 C           7.6497   -5.0511   24.1735 C.ar    1  UNL1        0.0436
      2 C           8.2475   -5.6296   22.9253 C.ar    1  UNL1        0.0142
      3 C           8.9063   -6.9765   22.9639 C.ar    1  UNL1        0.0010
      4 C           8.9674   -7.7451   24.2506 C.ar    1  UNL1       -0.0032
      5 C           8.3695   -7.1667   25.4987 C.ar    1  UNL1       -0.0091
      6 C           7.7107   -5.8197   25.4602 C.ar    1  UNL1       -0.0101
      7 C           7.1128   -5.2412   26.7084 C.3     1  UNL1        0.0444
      8 C           7.1738   -6.0098   27.9951 C.3     1  UNL1        0.0749
      9 N           7.8327   -7.3568   28.0336 N.3     1  UNL1       -0.2934
     10 C           8.4306   -7.9352   26.7855 C.3     1  UNL1        0.0954
     11 H           7.1286   -8.0199   28.3575 H       1  UNL1        0.1236
     12 C           5.3176   -1.9579   23.9304 C.3     1  UNL1        0.0791
     13 C           6.6362   -1.3046   24.2213 C.3     1  UNL1        0.0391
     14 C           7.6703   -2.3838   24.3477 C.3     1  UNL1        0.0923
     15 N           6.9908   -3.7041   24.1350 N.pl3   1  UNL1       -0.3063
     16 C           5.5368   -3.4408   23.8771 C.3     1  UNL1        0.1067
     17 C           3.3840   -0.4932   24.8608 C.3     1  UNL1        0.0897
     18 N           4.0096   -1.2521   23.7283 N.3     1  UNL1       -0.2699
     19 C           3.3270   -1.3053   22.3936 C.3     1  UNL1        0.0897
     20 C           6.5760   -5.4313   29.2433 C.3     1  UNL1        0.0886
     21 N           7.2954   -4.3443   29.9854 N.3     1  UNL1       -0.2667
     22 C           8.7950   -4.3116   29.9998 C.3     1  UNL1        0.0899
     23 C           6.5153   -3.2899   30.7131 C.3     1  UNL1        0.0978
     24 C           6.2348   -3.4419   32.1788 C.3     1  UNL1        0.0224
     25 C           5.4546   -2.3875   32.9065 C.3     1  UNL1        0.0065
     26 C           4.9550   -1.1810   32.1685 C.3     1  UNL1        0.0277
     27 C           5.2354   -1.0289   30.7029 C.ar    1  UNL1       -0.0073
     28 C           4.7357    0.1777   29.9649 C.ar    1  UNL1       -0.0015
     29 C           5.0162    0.3298   28.4992 C.ar    1  UNL1        0.0203
     30 C           5.7964   -0.7247   27.7715 C.ar    1  UNL1        0.0985
     31 N           6.2961   -1.9312   28.5095 N.ar    1  UNL1       -0.2471
     32 C           6.0156   -2.0833   29.9751 C.ar    1  UNL1        0.0695
@<TRIPOS>BOND
     1    17    18    1
     2    18    19    1
     3    12    18    1
     4    12    13    1
     5    13    14    1
     6    14    15    1
     7    15     1    1
     8     1     2   ar
     9     2     3   ar
    10     3     4   ar
    11     4     5   ar
    12     5     6   ar
    13     6     7    1
    14     7     8    1
    15     8    20    1
    16    20    21    1
    17    21    22    1
    18    23    21    1
    19    23    24    1
    20    24    25    1
    21    25    26    1
    22    26    27    1
    23    27    28   ar
    24    28    29   ar
    25    29    30   ar
    26    30    31   ar
    27    31    32   ar
    28     8     9    1
    29     9    10    1
    30    15    16    1
    31    16    12    1
    32     6     1   ar
    33    32    23    1
    34    10     5    1
    35    32    27   ar
    36     9    11    1
@<TRIPOS>MOLECULE
*****
 32 36 0 0 0
SMALL
GASTEIGER

@<TRIPOS>ATOM
      1 C           8.2945   -5.6687   27.6744 C.ar    1  UNL1        0.0436
      2 C           8.8607   -6.9181   28.2811 C.ar    1  UNL1        0.0142
      3 C           9.1765   -8.0981   27.4106 C.ar    1  UNL1        0.0010
      4 C           8.9261   -8.0286   25.9333 C.ar    1  UNL1       -0.0032
      5 C           8.3599   -6.7791   25.3265 C.ar    1  UNL1       -0.0091
      6 C           8.0440   -5.5992   26.1970 C.ar    1  UNL1       -0.0101
      7 C           7.4778   -4.3496   25.5903 C.3     1  UNL1        0.0444
      8 C           7.2273   -4.2802   24.1130 C.3     1  UNL1        0.0749
      9 N           7.5432   -5.4602   23.2424 N.3     1  UNL1       -0.2934
     10 C           8.1094   -6.7096   23.8492 C.3     1  UNL1        0.0954
     11 H           8.2158   -5.1403   22.5455 H       1  UNL1        0.1236
     12 C           6.8951   -3.0343   30.1579 C.3     1  UNL1        0.0791
     13 C           8.0902   -2.3111   29.6111 C.3     1  UNL1        0.0391
     14 C           8.7598   -3.2099   28.6143 C.3     1  UNL1        0.0923
     15 N           7.9786   -4.4886   28.5449 N.pl3   1  UNL1       -0.3063
     16 C           6.8262   -4.3801   29.4989 C.3     1  UNL1        0.1067
     17 C           5.8159   -3.1816   32.5166 C.3     1  UNL1        0.0897
     18 N           5.9371   -2.5047   31.1835 N.3     1  UNL1       -0.2699
     19 C           5.1005   -1.2983   30.8761 C.3     1  UNL1        0.0897
     20 C           6.6611   -3.0307   23.5062 C.3     1  UNL1        0.0886
     21 N           6.8723   -2.7420   22.0495 N.3     1  UNL1       -0.2667
     22 C           8.1962   -2.2231   21.5720 C.3     1  UNL1        0.0899
     23 C           5.7596   -2.9722   21.0703 C.3     1  UNL1        0.0978
     24 C           5.8217   -4.1344   20.1240 C.3     1  UNL1        0.0224
     25 C           4.7090   -4.3646   19.1448 C.3     1  UNL1        0.0065
     26 C           3.5342   -3.4327   19.1118 C.3     1  UNL1        0.0277
     27 C           3.4720   -2.2705   20.0581 C.ar    1  UNL1       -0.0073
     28 C           2.2971   -1.3385   20.0251 C.ar    1  UNL1       -0.0015
     29 C           2.2350   -0.1763   20.9714 C.ar    1  UNL1        0.0203
     30 C           3.3477    0.0539   21.9506 C.ar    1  UNL1        0.0985
     31 N           4.5225   -0.8781   21.9836 N.ar    1  UNL1       -0.2471
     32 C           4.5847   -2.0402   21.0373 C.ar    1  UNL1        0.0695
@<TRIPOS>BOND
     1    17    18    1
     2    18    19    1
     3    12    18    1
     4    12    13    1
     5    13    14    1
     6    14    15    1
     7    15     1    1
     8     1     2   ar
     9     2     3   ar
    10     3     4   ar
    11     4     5   ar
    12     5     6   ar
    13     6     7    1
    14     7     8    1
    15     8    20    1
    16    20    21    1
    17    21    22    1
    18    23    21    1
    19    23    24    1
    20    24    25    1
    21    25    26    1
    22    26    27    1
    23    27    28   ar
    24    28    29   ar
    25    29    30   ar
    26    30    31   ar
    27    31    32   ar
    28     8     9    1
    29     9    10    1
    30    15    16    1
    31    16    12    1
    32     6     1   ar
    33    32    23    1
    34    10     5    1
    35    32    27   ar
    36     9    11    1
@<TRIPOS>MOLECULE
*****
 32 36 0 0 0
SMALL
GASTEIGER

@<TRIPOS>ATOM
      1 C           2.8313    0.2169   19.2606 C.ar    1  UNL1        0.0436
      2 C           3.1633   -0.0967   17.8318 C.ar    1  UNL1        0.0142
      3 C           4.0117   -1.2892   17.5033 C.ar    1  UNL1        0.0010
      4 C           4.5282   -2.1682   18.6036 C.ar    1  UNL1       -0.0032
      5 C           4.1963   -1.8546   20.0324 C.ar    1  UNL1       -0.0091
      6 C           3.3478   -0.6621   20.3609 C.ar    1  UNL1       -0.0101
      7 C           3.0159   -0.3485   21.7897 C.3     1  UNL1        0.0444
      8 C           3.5324   -1.2275   22.8900 C.3     1  UNL1        0.0749
      9 N           4.3809   -2.4201   22.5614 N.3     1  UNL1       -0.2934
     10 C           4.7128   -2.7336   21.1327 C.3     1  UNL1        0.0954
     11 H           3.8994   -3.2367   22.9379 H       1  UNL1        0.1236
     12 C           0.0654    2.8692   19.8776 C.3     1  UNL1        0.0791
     13 C           1.2891    3.6201   20.3120 C.3     1  UNL1        0.0391
     14 C           2.4741    2.7179   20.1338 C.3     1  UNL1        0.0923
     15 N           1.9829    1.4095   19.5892 N.pl3   1  UNL1       -0.3063
     16 C           0.4942    1.5029   19.4309 C.3     1  UNL1        0.1067
     17 C          -1.9378    3.9623   18.6357 C.3     1  UNL1        0.0897
     18 N          -1.3403    3.3926   19.8881 N.3     1  UNL1       -0.2699
     19 C          -2.1485    3.3463   21.1509 C.3     1  UNL1        0.0897
     20 C           3.2004   -0.9140   24.3188 C.3     1  UNL1        0.0886
     21 N           3.0883    0.5131   24.7670 N.3     1  UNL1       -0.2667
     22 C           4.3258    1.3406   24.9519 C.3     1  UNL1        0.0899
     23 C           1.7389    1.1128   25.0302 C.3     1  UNL1        0.0978
     24 C           1.0275    1.8647   23.9445 C.3     1  UNL1        0.0224
     25 C          -0.3220    2.4643   24.2078 C.3     1  UNL1        0.0065
     26 C          -0.9601    2.3121   25.5567 C.3     1  UNL1        0.0277
     27 C          -0.2488    1.5602   26.6423 C.ar    1  UNL1       -0.0073
     28 C          -0.8870    1.4080   27.9913 C.ar    1  UNL1       -0.0015
     29 C          -0.1756    0.6561   29.0770 C.ar    1  UNL1        0.0203
     30 C           1.1739    0.0565   28.8137 C.ar    1  UNL1        0.0985
     31 N           1.8120    0.2087   27.4648 N.ar    1  UNL1       -0.2471
     32 C           1.1007    0.9606   26.3791 C.ar    1  UNL1        0.0695
@<TRIPOS>BOND
     1    17    18    1
     2    18    19    1
     3    12    18    1
     4    12    13    1
     5    13    14    1
     6    14    15    1
     7    15     1    1
     8     1     2   ar
     9     2     3   ar
    10     3     4   ar
    11     4     5   ar
    12     5     6   ar
    13     6     7    1
    14     7     8    1
    15     8    20    1
    16    20    21    1
    17    21    22    1
    18    23    21    1
    19    23    24    1
    20    24    25    1
    21    25    26    1
    22    26    27    1
    23    27    28   ar
    24    28    29   ar
    25    29    30   ar
    26    30    31   ar
    27    31    32   ar
    28     8     9    1
    29     9    10    1
    30    15    16    1
    31    16    12    1
    32     6     1   ar
    33    32    23    1
    34    10     5    1
    35    32    27   ar
    36     9    11    1
@<TRIPOS>MOLECULE
*****
 32 36 0 0 0
SMALL
GASTEIGER

@<TRIPOS>ATOM
      1 C           3.5185   -0.3034   20.1032 C.ar    1  UNL1        0.0436
      2 C           3.2536    0.0740   18.6758 C.ar    1  UNL1        0.0142
      3 C           3.7351   -0.8108   17.5645 C.ar    1  UNL1        0.0010
      4 C           4.4815   -2.0730   17.8805 C.ar    1  UNL1       -0.0032
      5 C           4.7463   -2.4504   19.3078 C.ar    1  UNL1       -0.0091
      6 C           4.2648   -1.5655   20.4192 C.ar    1  UNL1       -0.0101
      7 C           4.5297   -1.9429   21.8467 C.3     1  UNL1        0.0444
      8 C           5.2760   -3.2051   22.1627 C.3     1  UNL1        0.0749
      9 N           5.7575   -4.0899   21.0512 N.3     1  UNL1       -0.2934
     10 C           5.4927   -3.7126   19.6238 C.3     1  UNL1        0.0954
     11 H           5.3315   -5.0050   21.1978 H       1  UNL1        0.1236
     12 C           1.6168    1.6282   22.8814 C.3     1  UNL1        0.0791
     13 C           2.9754    2.2580   22.9685 C.3     1  UNL1        0.0391
     14 C           3.8531    1.6111   21.9384 C.3     1  UNL1        0.0923
     15 N           3.0370    0.5815   21.2147 N.pl3   1  UNL1       -0.3063
     16 C           1.6549    0.5920   21.7974 C.3     1  UNL1        0.1067
     17 C          -0.5401    3.0232   23.2709 C.3     1  UNL1        0.0897
     18 N           0.4287    1.9738   23.7293 N.3     1  UNL1       -0.2699
     19 C           0.2094    1.2700   25.0357 C.3     1  UNL1        0.0897
     20 C           5.5409   -3.5824   23.5900 C.3     1  UNL1        0.0886
     21 N           6.9519   -3.7177   24.0806 N.3     1  UNL1       -0.2667
     22 C           7.8720   -2.5333   24.0541 C.3     1  UNL1        0.0899
     23 C           7.4429   -5.0374   24.5977 C.3     1  UNL1        0.0978
     24 C           7.9844   -6.0617   23.6450 C.3     1  UNL1        0.0224
     25 C           8.4753   -7.3814   24.1621 C.3     1  UNL1        0.0065
     26 C           8.4248   -7.6767   25.6319 C.3     1  UNL1        0.0277
     27 C           7.8834   -6.6525   26.5845 C.ar    1  UNL1       -0.0073
     28 C           7.8329   -6.9478   28.0543 C.ar    1  UNL1       -0.0015
     29 C           7.2914   -5.9235   29.0070 C.ar    1  UNL1        0.0203
     30 C           6.8004   -4.6038   28.4899 C.ar    1  UNL1        0.0985
     31 N           6.8509   -4.3085   27.0201 N.ar    1  UNL1       -0.2471
     32 C           7.3924   -5.3327   26.0675 C.ar    1  UNL1        0.0695
@<TRIPOS>BOND
     1    17    18    1
     2    18    19    1
     3    12    18    1
     4    12    13    1
     5    13    14    1
     6    14    15    1
     7    15     1    1
     8     1     2   ar
     9     2     3   ar
    10     3     4   ar
    11     4     5   ar
    12     5     6   ar
    13     6     7    1
    14     7     8    1
    15     8    20    1
    16    20    21    1
    17    21    22    1
    18    23    21    1
    19    23    24    1
    20    24    25    1
    21    25    26    1
    22    26    27    1
    23    27    28   ar
    24    28    29   ar
    25    29    30   ar
    26    30    31   ar
    27    31    32   ar
    28     8     9    1
    29     9    10    1
    30    15    16    1
    31    16    12    1
    32     6     1   ar
    33    32    23    1
    34    10     5    1
    35    32    27   ar
    36     9    11    1
@<TRIPOS>MOLECULE
*****
 32 36 0 0 0
SMALL
GASTEIGER

@<TRIPOS>ATOM
      1 C          -0.9964    2.4509   26.4307 C.ar    1  UNL1        0.0436
      2 C          -2.0834    3.4412   26.7267 C.ar    1  UNL1        0.0142
      3 C          -2.6542    4.2806   25.6224 C.ar    1  UNL1        0.0010
      4 C          -2.1380    4.1298   24.2221 C.ar    1  UNL1       -0.0032
      5 C          -1.0510    3.1395   23.9261 C.ar    1  UNL1       -0.0091
      6 C          -0.4802    2.3000   25.0304 C.ar    1  UNL1       -0.0101
      7 C           0.6069    1.3097   24.7344 C.3     1  UNL1        0.0444
      8 C           1.1231    1.1588   23.3341 C.3     1  UNL1        0.0749
      9 N           0.5522    1.9984   22.2298 N.3     1  UNL1       -0.2934
     10 C          -0.5348    2.9886   22.5258 C.3     1  UNL1        0.0954
     11 H           0.1812    1.3539   21.5317 H       1  UNL1        0.1236
     12 C           0.9885    0.8322   29.3471 C.3     1  UNL1        0.0791
     13 C          -0.0827   -0.1932   29.1213 C.3     1  UNL1        0.0391
     14 C          -0.9566    0.2883   28.0013 C.3     1  UNL1        0.0923
     15 N          -0.4255    1.6114   27.5349 N.pl3   1  UNL1       -0.3063
     16 C           0.7766    1.9475   28.3667 C.3     1  UNL1        0.1067
     17 C           2.7289   -0.5610   30.6812 C.3     1  UNL1        0.0897
     18 N           2.0800    0.7558   30.3732 N.3     1  UNL1       -0.2699
     19 C           2.5225    1.9961   31.0913 C.3     1  UNL1        0.0897
     20 C           2.2101    0.1686   23.0381 C.3     1  UNL1        0.0886
     21 N           3.3725    0.5658   22.1773 N.3     1  UNL1       -0.2667
     22 C           4.4510    1.4476   22.7337 C.3     1  UNL1        0.0899
     23 C           3.4566    0.0813   20.7603 C.3     1  UNL1        0.0978
     24 C           3.1395    1.0137   19.6288 C.3     1  UNL1        0.0224
     25 C           3.2236    0.5292   18.2117 C.3     1  UNL1        0.0065
     26 C           3.6247   -0.8876   17.9260 C.3     1  UNL1        0.0277
     27 C           3.9418   -1.8200   19.0574 C.ar    1  UNL1       -0.0073
     28 C           4.3429   -3.2369   18.7717 C.ar    1  UNL1       -0.0015
     29 C           4.6600   -4.1693   19.9032 C.ar    1  UNL1        0.0203
     30 C           4.5759   -3.6848   21.3203 C.ar    1  UNL1        0.0985
     31 N           4.1748   -2.2679   21.6060 N.ar    1  UNL1       -0.2471
     32 C           3.8577   -1.3355   20.4746 C.ar    1  UNL1        0.0695
@<TRIPOS>BOND
     1    17    18    1
     2    18    19    1
     3    12    18    1
     4    12    13    1
     5    13    14    1
     6    14    15    1
     7    15     1    1
     8     1     2   ar
     9     2     3   ar
    10     3     4   ar
    11     4     5   ar
    12     5     6   ar
    13     6     7    1
    14     7     8    1
    15     8    20    1
    16    20    21    1
    17    21    22    1
    18    23    21    1
    19    23    24    1
    20    24    25    1
    21    25    26    1
    22    26    27    1
    23    27    28   ar
    24    28    29   ar
    25    29    30   ar
    26    30    31   ar
    27    31    32   ar
    28     8     9    1
    29     9    10    1
    30    15    16    1
    31    16    12    1
    32     6     1   ar
    33    32    23    1
    34    10     5    1
    35    32    27   ar
    36     9    11    1
@<TRIPOS>MOLECULE
*****
 32 36 0 0 0
SMALL
GASTEIGER

@<TRIPOS>ATOM
      1 C           4.3282   -1.2484   19.2752 C.ar    1  UNL1        0.0436
      2 C           4.7155   -2.0980   18.1012 C.ar    1  UNL1        0.0142
      3 C           5.0837   -3.5375   18.3063 C.ar    1  UNL1        0.0010
      4 C           5.0647   -4.1275   19.6853 C.ar    1  UNL1       -0.0032
      5 C           4.6775   -3.2779   20.8592 C.ar    1  UNL1       -0.0091
      6 C           4.3092   -1.8384   20.6542 C.ar    1  UNL1       -0.0101
      7 C           3.9219   -0.9887   21.8282 C.3     1  UNL1        0.0444
      8 C           3.9029   -1.5787   23.2071 C.3     1  UNL1        0.0749
      9 N           4.2712   -3.0183   23.4121 N.3     1  UNL1       -0.2934
     10 C           4.6585   -3.8679   22.2382 C.3     1  UNL1        0.0954
     11 H           3.4670   -3.4686   23.8490 H       1  UNL1        0.1236
     12 C           2.6797    2.2073   18.6382 C.3     1  UNL1        0.0791
     13 C           4.1069    2.6057   18.8714 C.3     1  UNL1        0.0391
     14 C           4.8982    1.3596   19.1384 C.3     1  UNL1        0.0923
     15 N           3.9599    0.1912   19.0702 N.pl3   1  UNL1       -0.3063
     16 C           2.5889    0.7151   18.7611 C.3     1  UNL1        0.1067
     17 C           0.1352    2.6202   18.3140 C.3     1  UNL1        0.0897
     18 N           1.5428    3.1379   18.3353 N.3     1  UNL1       -0.2699
     19 C           1.8137    4.5861   18.0537 C.3     1  UNL1        0.0897
     20 C           3.5157   -0.7291   24.3811 C.3     1  UNL1        0.0886
     21 N           3.4758    0.7642   24.2455 N.3     1  UNL1       -0.2667
     22 C           4.7141    1.5733   24.4951 C.3     1  UNL1        0.0899
     23 C           2.1978    1.4485   23.8604 C.3     1  UNL1        0.0978
     24 C           1.9879    1.9052   22.4471 C.3     1  UNL1        0.0224
     25 C           0.7099    2.5895   22.0619 C.3     1  UNL1        0.0065
     26 C          -0.3583    2.8171   23.0901 C.3     1  UNL1        0.0277
     27 C          -0.1486    2.3604   24.5033 C.ar    1  UNL1       -0.0073
     28 C          -1.2168    2.5879   25.5315 C.ar    1  UNL1       -0.0015
     29 C          -1.0070    2.1312   26.9448 C.ar    1  UNL1        0.0203
     30 C           0.2711    1.4469   27.3299 C.ar    1  UNL1        0.0985
     31 N           1.3393    1.2193   26.3018 N.ar    1  UNL1       -0.2471
     32 C           1.1295    1.6760   24.8885 C.ar    1  UNL1        0.0695
@<TRIPOS>BOND
     1    17    18    1
     2    18    19    1
     3    12    18    1
     4    12    13    1
     5    13    14    1
     6    14    15    1
     7    15     1    1
     8     1     2   ar
     9     2     3   ar
    10     3     4   ar
    11     4     5   ar
    12     5     6   ar
    13     6     7    1
    14     7     8    1
    15     8    20    1
    16    20    21    1
    17    21    22    1
    18    23    21    1
    19    23    24    1
    20    24    25    1
    21    25    26    1
    22    26    27    1
    23    27    28   ar
    24    28    29   ar
    25    29    30   ar
    26    30    31   ar
    27    31    32   ar
    28     8     9    1
    29     9    10    1
    30    15    16    1
    31    16    12    1
    32     6     1   ar
    33    32    23    1
    34    10     5    1
    35    32    27   ar
    36     9    11    1
