@<TRIPOS>MOLECULE
*****
 36 39 0 0 0
SMALL
GASTEIGER

@<TRIPOS>ATOM
      1 C         -10.0169  -19.4951   22.6032 C.3     1  UNL1        0.0743
      2 C          -9.9801  -20.2242   23.9136 C.3     1  UNL1        0.0197
      3 C         -10.9811  -19.8978   24.9818 C.3     1  UNL1        0.0017
      4 C         -12.0191  -18.8423   24.7398 C.3     1  UNL1        0.0002
      5 C         -12.0559  -18.1132   23.4294 C.3     1  UNL1        0.0030
      6 C         -11.0549  -18.4396   22.3612 C.3     1  UNL1        0.0340
      7 N          -6.6024  -19.6574   20.5872 N.am    1  UNL1       -0.2485
      8 C          -7.6034  -19.3310   21.6555 C.2     1  UNL1        0.3058
      9 O          -7.1922  -18.5141   22.8444 O.2     1  UNL1       -0.2524
     10 N          -9.0158  -19.8215   21.5349 N.am    1  UNL1       -0.2902
     11 H          -6.8723  -20.1935   19.8069 H       1  UNL1        0.1583
     12 H          -9.2858  -20.3577   20.7545 H       1  UNL1        0.1509
     13 C          -2.9013  -18.5656   20.1684 C.ar    1  UNL1        0.0803
     14 S          -4.1733  -19.1269   19.6056 S.2     1  UNL1       -0.0488
     15 C          -5.1900  -19.1669   20.7078 C.ar    1  UNL1        0.1664
     16 N          -4.5462  -18.6301   21.9518 N.ar    1  UNL1       -0.2282
     17 C          -3.1317  -18.2585   21.6184 C.ar    1  UNL1        0.0701
     18 C          -2.1245  -17.6812   22.5683 C.3     1  UNL1        0.0528
     19 C          -1.6330  -17.5765   18.1280 C.3     1  UNL1        0.0779
     20 C          -1.6232  -18.3492   19.4136 C.2     1  UNL1        0.1807
     21 O          -0.3353  -18.9056   19.9444 O.2     1  UNL1       -0.2908
     22 C         -11.0917  -17.7105   21.0508 C.3     1  UNL1        0.0737
     23 N         -10.2791  -16.4637   20.8631 N.3     1  UNL1       -0.2726
     24 C         -10.6514  -15.4796   19.7939 C.3     1  UNL1        0.0721
     25 C          -9.8389  -14.2328   19.6063 C.3     1  UNL1        0.0174
     26 C          -8.6540  -13.9701   20.4879 C.3     1  UNL1        0.0031
     27 C          -8.2817  -14.9541   21.5570 C.3     1  UNL1        0.0204
     28 C          -9.0943  -16.2009   21.7446 C.3     1  UNL1        0.0724
     29 C          -7.0968  -14.6914   22.4386 C.3     1  UNL1        0.0277
     30 C          -7.1425  -15.0707   23.8891 C.ar    1  UNL1       -0.0220
     31 C          -8.4632  -15.2888   24.5661 C.ar    1  UNL1       -0.0020
     32 C          -8.5088  -15.6681   26.0166 C.ar    1  UNL1        0.0293
     33 C          -7.2337  -15.8293   26.7901 C.ar    1  UNL1        0.1401
     34 F          -7.2794  -16.2087   28.2407 F       1  UNL1       -0.2042
     35 C          -5.9131  -15.6112   26.1131 C.ar    1  UNL1        0.0293
     36 C          -5.8675  -15.2319   24.6626 C.ar    1  UNL1       -0.0020
@<TRIPOS>BOND
     1    19    20    1
     2    20    21    2
     3    20    13    1
     4    13    14   ar
     5    14    15   ar
     6    15     7    1
     7     7     8   am
     8     8     9    2
     9     8    10   am
    10     1    10    1
    11     1     2    1
    12     2     3    1
    13     3     4    1
    14     4     5    1
    15     5     6    1
    16     6    22    1
    17    22    23    1
    18    23    24    1
    19    24    25    1
    20    25    26    1
    21    26    27    1
    22    27    29    1
    23    29    30    1
    24    30    31   ar
    25    31    32   ar
    26    32    33   ar
    27    33    34    1
    28    33    35   ar
    29    35    36   ar
    30    27    28    1
    31    15    16   ar
    32    16    17   ar
    33    17    18    1
    34    17    13   ar
    35     6     1    1
    36    28    23    1
    37    36    30   ar
    38     7    11    1
    39    10    12    1
@<TRIPOS>MOLECULE
*****
 36 39 0 0 0
SMALL
GASTEIGER

@<TRIPOS>ATOM
      1 C           8.5629   -5.4819   26.9330 C.3     1  UNL1        0.0743
      2 C           8.6359   -6.8285   27.5896 C.3     1  UNL1        0.0197
      3 C           8.5208   -8.0739   26.7615 C.3     1  UNL1        0.0017
      4 C           8.3327   -7.9725   25.2767 C.3     1  UNL1        0.0002
      5 C           8.2598   -6.6259   24.6202 C.3     1  UNL1        0.0030
      6 C           8.3749   -5.3806   25.4483 C.3     1  UNL1        0.0340
      7 N           7.6500   -2.5613   29.4602 N.am    1  UNL1       -0.2485
      8 C           7.5350   -3.8066   28.6321 C.2     1  UNL1        0.3058
      9 O           6.2767   -4.6222   28.6749 O.2     1  UNL1       -0.2524
     10 N           8.6781   -4.2364   27.7611 N.am    1  UNL1       -0.2902
     11 H           8.4758   -2.0260   29.4321 H       1  UNL1        0.1583
     12 H           9.5038   -3.7012   27.7330 H       1  UNL1        0.1509
     13 C           5.0470   -1.8441   32.2487 C.ar    1  UNL1        0.0803
     14 S           6.3190   -2.4840   31.7770 S.2     1  UNL1       -0.0488
     15 C           6.5069   -2.1315   30.3312 C.ar    1  UNL1        0.1664
     16 N           5.3510   -1.2736   29.9093 N.ar    1  UNL1       -0.2282
     17 C           4.4487   -1.0960   31.0943 C.ar    1  UNL1        0.0701
     18 C           3.1723   -0.3086   31.1204 C.3     1  UNL1        0.0528
     19 C           4.7909   -0.8782   34.6469 C.3     1  UNL1        0.0779
     20 C           4.4739   -1.9361   33.6318 C.2     1  UNL1        0.1807
     21 O           3.5838   -3.0859   33.9998 O.2     1  UNL1       -0.2908
     22 C           8.3019   -4.0338   24.7917 C.3     1  UNL1        0.0737
     23 N           6.9727   -3.4660   24.3907 N.3     1  UNL1       -0.2726
     24 C           6.3271   -2.4034   25.2299 C.3     1  UNL1        0.0721
     25 C           4.9979   -1.8356   24.8289 C.3     1  UNL1        0.0174
     26 C           4.3144   -2.3303   23.5887 C.3     1  UNL1        0.0031
     27 C           4.9600   -3.3927   22.7495 C.3     1  UNL1        0.0204
     28 C           6.2892   -3.9606   23.1505 C.3     1  UNL1        0.0724
     29 C           4.2765   -3.8874   21.5092 C.3     1  UNL1        0.0277
     30 C           4.2832   -3.0503   20.2646 C.ar    1  UNL1       -0.0220
     31 C           3.2511   -1.9782   20.0762 C.ar    1  UNL1       -0.0020
     32 C           3.2578   -1.1411   18.8315 C.ar    1  UNL1        0.0293
     33 C           4.2967   -1.3761   17.7752 C.ar    1  UNL1        0.1401
     34 F           4.3034   -0.5390   16.5306 F       1  UNL1       -0.2042
     35 C           5.3287   -2.4481   17.9637 C.ar    1  UNL1        0.0293
     36 C           5.3220   -3.2852   19.2083 C.ar    1  UNL1       -0.0020
@<TRIPOS>BOND
     1    19    20    1
     2    20    21    2
     3    20    13    1
     4    13    14   ar
     5    14    15   ar
     6    15     7    1
     7     7     8   am
     8     8     9    2
     9     8    10   am
    10     1    10    1
    11     1     2    1
    12     2     3    1
    13     3     4    1
    14     4     5    1
    15     5     6    1
    16     6    22    1
    17    22    23    1
    18    23    24    1
    19    24    25    1
    20    25    26    1
    21    26    27    1
    22    27    29    1
    23    29    30    1
    24    30    31   ar
    25    31    32   ar
    26    32    33   ar
    27    33    34    1
    28    33    35   ar
    29    35    36   ar
    30    27    28    1
    31    15    16   ar
    32    16    17   ar
    33    17    18    1
    34    17    13   ar
    35     6     1    1
    36    28    23    1
    37    36    30   ar
    38     7    11    1
    39    10    12    1
@<TRIPOS>MOLECULE
*****
 36 39 0 0 0
SMALL
GASTEIGER

@<TRIPOS>ATOM
      1 C          -5.0844  -16.0057   24.4149 C.3     1  UNL1        0.0743
      2 C          -5.4388  -15.9225   25.8700 C.3     1  UNL1        0.0197
      3 C          -4.6565  -16.7103   26.8786 C.3     1  UNL1        0.0017
      4 C          -3.5198  -17.5812   26.4322 C.3     1  UNL1        0.0002
      5 C          -3.1654  -17.6643   24.9771 C.3     1  UNL1        0.0030
      6 C          -3.9477  -16.8766   23.9684 C.3     1  UNL1        0.0340
      7 N          -8.0145  -14.8911   21.9813 N.am    1  UNL1       -0.2485
      8 C          -7.2322  -15.6787   22.9900 C.2     1  UNL1        0.3058
      9 O          -7.8154  -16.9273   23.5827 O.2     1  UNL1       -0.2524
     10 N          -5.8667  -15.2180   23.4061 N.am    1  UNL1       -0.2902
     11 H          -7.6318  -14.0716   21.5924 H       1  UNL1        0.1583
     12 H          -5.4840  -14.3985   23.0171 H       1  UNL1        0.1509
     13 C         -11.5657  -16.4068   21.5851 C.ar    1  UNL1        0.0803
     14 S         -10.3192  -16.1824   22.3887 S.2     1  UNL1       -0.0488
     15 C          -9.3800  -15.3518   21.5653 C.ar    1  UNL1        0.1664
     16 N         -10.0461  -15.0629   20.2527 N.ar    1  UNL1       -0.2282
     17 C         -11.3970  -15.7149   20.2649 C.ar    1  UNL1        0.0701
     18 C         -12.4024  -15.6810   19.1523 C.3     1  UNL1        0.0528
     19 C         -13.1580  -17.2131   23.4730 C.3     1  UNL1        0.0779
     20 C         -12.7696  -17.1863   22.0244 C.2     1  UNL1        0.1807
     21 O         -13.5851  -17.9389   21.0153 O.2     1  UNL1       -0.2908
     22 C          -3.5932  -16.9598   22.5132 C.3     1  UNL1        0.0737
     23 N          -3.9926  -18.1631   21.7116 N.3     1  UNL1       -0.2726
     24 C          -2.9656  -19.1914   21.3402 C.3     1  UNL1        0.0721
     25 C          -3.3650  -20.3947   20.5386 C.3     1  UNL1        0.0174
     26 C          -4.7914  -20.5697   20.1084 C.3     1  UNL1        0.0031
     27 C          -5.8182  -19.5414   20.4798 C.3     1  UNL1        0.0204
     28 C          -5.4189  -18.3381   21.2814 C.3     1  UNL1        0.0724
     29 C          -7.2446  -19.7163   20.0496 C.3     1  UNL1        0.0277
     30 C          -8.3294  -19.8335   21.0789 C.ar    1  UNL1       -0.0220
     31 C          -7.9751  -20.0410   22.5217 C.ar    1  UNL1       -0.0020
     32 C          -9.0599  -20.1581   23.5510 C.ar    1  UNL1        0.0293
     33 C         -10.4990  -20.0679   23.1376 C.ar    1  UNL1        0.1401
     34 F         -11.5838  -20.1850   24.1669 F       1  UNL1       -0.2042
     35 C         -10.8532  -19.8604   21.6949 C.ar    1  UNL1        0.0293
     36 C          -9.7685  -19.7432   20.6656 C.ar    1  UNL1       -0.0020
@<TRIPOS>BOND
     1    19    20    1
     2    20    21    2
     3    20    13    1
     4    13    14   ar
     5    14    15   ar
     6    15     7    1
     7     7     8   am
     8     8     9    2
     9     8    10   am
    10     1    10    1
    11     1     2    1
    12     2     3    1
    13     3     4    1
    14     4     5    1
    15     5     6    1
    16     6    22    1
    17    22    23    1
    18    23    24    1
    19    24    25    1
    20    25    26    1
    21    26    27    1
    22    27    29    1
    23    29    30    1
    24    30    31   ar
    25    31    32   ar
    26    32    33   ar
    27    33    34    1
    28    33    35   ar
    29    35    36   ar
    30    27    28    1
    31    15    16   ar
    32    16    17   ar
    33    17    18    1
    34    17    13   ar
    35     6     1    1
    36    28    23    1
    37    36    30   ar
    38     7    11    1
    39    10    12    1
@<TRIPOS>MOLECULE
*****
 36 39 0 0 0
SMALL
GASTEIGER

@<TRIPOS>ATOM
      1 C           8.4692   -5.1724   26.4685 C.3     1  UNL1        0.0743
      2 C           9.0184   -6.4584   27.0111 C.3     1  UNL1        0.0197
      3 C           8.9753   -7.7038   26.1763 C.3     1  UNL1        0.0017
      4 C           8.3829   -7.6633   24.7989 C.3     1  UNL1        0.0002
      5 C           7.8336   -6.3773   24.2562 C.3     1  UNL1        0.0030
      6 C           7.8768   -5.1319   25.0910 C.3     1  UNL1        0.0340
      7 N           7.4566   -2.3975   29.1189 N.am    1  UNL1       -0.2485
      8 C           7.4135   -3.6430   28.2841 C.2     1  UNL1        0.3058
      9 O           6.2716   -4.6047   28.4301 O.2     1  UNL1       -0.2524
     10 N           8.5123   -3.9269   27.3033 N.am    1  UNL1       -0.2902
     11 H           8.2061   -1.7664   29.0230 H       1  UNL1        0.1583
     12 H           9.2618   -3.2957   27.2074 H       1  UNL1        0.1509
     13 C           4.3801   -1.1665   31.1402 C.ar    1  UNL1        0.0803
     14 S           5.2479   -1.1212   29.9175 S.2     1  UNL1       -0.0488
     15 C           6.3578   -2.1137   30.0997 C.ar    1  UNL1        0.1664
     16 N           6.1759   -2.7724   31.4350 N.ar    1  UNL1       -0.2282
     17 C           4.9536   -2.1871   32.0780 C.ar    1  UNL1        0.0701
     18 C           4.4018   -2.5573   33.4228 C.3     1  UNL1        0.0528
     19 C           3.1587    0.7133   32.4533 C.3     1  UNL1        0.0779
     20 C           3.1541   -0.3370   31.3824 C.2     1  UNL1        0.1807
     21 O           1.9235   -0.5578   30.5538 O.2     1  UNL1       -0.2908
     22 C           7.3275   -3.8458   24.5483 C.3     1  UNL1        0.0737
     23 N           7.2047   -3.6488   23.0664 N.3     1  UNL1       -0.2726
     24 C           8.4295   -3.3891   22.2402 C.3     1  UNL1        0.0721
     25 C           8.3066   -3.1921   20.7583 C.3     1  UNL1        0.0174
     26 C           6.9589   -3.2548   20.1026 C.3     1  UNL1        0.0031
     27 C           5.7342   -3.5146   20.9287 C.3     1  UNL1        0.0204
     28 C           5.8571   -3.7116   22.4106 C.3     1  UNL1        0.0724
     29 C           4.3866   -3.5773   20.2730 C.3     1  UNL1        0.0277
     30 C           3.7679   -2.3324   19.7096 C.ar    1  UNL1       -0.0220
     31 C           2.8170   -1.5245   20.5423 C.ar    1  UNL1       -0.0020
     32 C           2.1983   -0.2795   19.9789 C.ar    1  UNL1        0.0293
     33 C           2.5306    0.1576   18.5830 C.ar    1  UNL1        0.1401
     34 F           1.9120    1.4025   18.0197 F       1  UNL1       -0.2042
     35 C           3.4815   -0.6503   17.7504 C.ar    1  UNL1        0.0293
     36 C           4.1001   -1.8953   18.3138 C.ar    1  UNL1       -0.0020
@<TRIPOS>BOND
     1    19    20    1
     2    20    21    2
     3    20    13    1
     4    13    14   ar
     5    14    15   ar
     6    15     7    1
     7     7     8   am
     8     8     9    2
     9     8    10   am
    10     1    10    1
    11     1     2    1
    12     2     3    1
    13     3     4    1
    14     4     5    1
    15     5     6    1
    16     6    22    1
    17    22    23    1
    18    23    24    1
    19    24    25    1
    20    25    26    1
    21    26    27    1
    22    27    29    1
    23    29    30    1
    24    30    31   ar
    25    31    32   ar
    26    32    33   ar
    27    33    34    1
    28    33    35   ar
    29    35    36   ar
    30    27    28    1
    31    15    16   ar
    32    16    17   ar
    33    17    18    1
    34    17    13   ar
    35     6     1    1
    36    28    23    1
    37    36    30   ar
    38     7    11    1
    39    10    12    1
@<TRIPOS>MOLECULE
*****
 36 39 0 0 0
SMALL
GASTEIGER

@<TRIPOS>ATOM
      1 C          -5.0705    5.2140   24.0826 C.3     1  UNL1        0.0743
      2 C          -5.8055    6.3140   24.7895 C.3     1  UNL1        0.0197
      3 C          -7.2977    6.4136   24.6741 C.3     1  UNL1        0.0017
      4 C          -8.0549    5.4133   23.8519 C.3     1  UNL1        0.0002
      5 C          -7.3199    4.3133   23.1451 C.3     1  UNL1        0.0030
      6 C          -5.8277    4.2136   23.2605 C.3     1  UNL1        0.0340
      7 N          -1.4712    4.2336   25.4368 N.am    1  UNL1       -0.2485
      8 C          -2.9634    4.3334   25.3214 C.2     1  UNL1        0.3058
      9 O          -3.8408    3.6522   26.3296 O.2     1  UNL1       -0.2524
     10 N          -3.5782    5.1142   24.1980 N.am    1  UNL1       -0.2902
     11 H          -0.8953    4.6807   24.7751 H       1  UNL1        0.1583
     12 H          -3.0024    5.5613   23.5363 H       1  UNL1        0.1509
     13 C          -0.1714    1.6149   27.9899 C.ar    1  UNL1        0.0803
     14 S          -0.9176    1.9644   26.7365 S.2     1  UNL1       -0.0488
     15 C          -0.8563    3.4528   26.5602 C.ar    1  UNL1        0.1664
     16 N          -0.0721    4.0231   27.7047 N.ar    1  UNL1       -0.2282
     17 C           0.3512    2.8873   28.5883 C.ar    1  UNL1        0.0701
     18 C           1.1558    3.0034   29.8489 C.3     1  UNL1        0.0528
     19 C          -1.1722   -0.5777   28.9598 C.3     1  UNL1        0.0779
     20 C           0.0189    0.2353   28.5471 C.2     1  UNL1        0.1807
     21 O           1.4002   -0.3313   28.6915 O.2     1  UNL1       -0.2908
     22 C          -5.0926    3.1135   22.5536 C.3     1  UNL1        0.0737
     23 N          -4.4014    3.3895   21.2513 N.3     1  UNL1       -0.2726
     24 C          -5.2087    3.6639   20.0171 C.3     1  UNL1        0.0721
     25 C          -4.5175    3.9399   18.7148 C.3     1  UNL1        0.0174
     26 C          -3.0190    3.9416   18.6466 C.3     1  UNL1        0.0031
     27 C          -2.2118    3.6672   19.8807 C.3     1  UNL1        0.0204
     28 C          -2.9030    3.3912   21.1831 C.3     1  UNL1        0.0724
     29 C          -0.7133    3.6689   19.8125 C.3     1  UNL1        0.0277
     30 C           0.0373    2.3706   19.7787 C.ar    1  UNL1       -0.0220
     31 C           0.1611    1.5432   21.0237 C.ar    1  UNL1       -0.0020
     32 C           0.9117    0.2449   20.9898 C.ar    1  UNL1        0.0293
     33 C           1.5386   -0.2258   19.7109 C.ar    1  UNL1        0.1401
     34 F           2.2892   -1.5241   19.6770 F       1  UNL1       -0.2042
     35 C           1.4148    0.6016   18.4660 C.ar    1  UNL1        0.0293
     36 C           0.6641    1.8999   18.4998 C.ar    1  UNL1       -0.0020
@<TRIPOS>BOND
     1    19    20    1
     2    20    21    2
     3    20    13    1
     4    13    14   ar
     5    14    15   ar
     6    15     7    1
     7     7     8   am
     8     8     9    2
     9     8    10   am
    10     1    10    1
    11     1     2    1
    12     2     3    1
    13     3     4    1
    14     4     5    1
    15     5     6    1
    16     6    22    1
    17    22    23    1
    18    23    24    1
    19    24    25    1
    20    25    26    1
    21    26    27    1
    22    27    29    1
    23    29    30    1
    24    30    31   ar
    25    31    32   ar
    26    32    33   ar
    27    33    34    1
    28    33    35   ar
    29    35    36   ar
    30    27    28    1
    31    15    16   ar
    32    16    17   ar
    33    17    18    1
    34    17    13   ar
    35     6     1    1
    36    28    23    1
    37    36    30   ar
    38     7    11    1
    39    10    12    1
@<TRIPOS>MOLECULE
*****
 36 39 0 0 0
SMALL
GASTEIGER

@<TRIPOS>ATOM
      1 C          -3.6819    3.5691   20.3507 C.3     1  UNL1        0.0743
      2 C          -4.9781    3.3158   19.6397 C.3     1  UNL1        0.0197
      3 C          -5.1374    3.7199   18.2040 C.3     1  UNL1        0.0017
      4 C          -4.0005    4.3774   17.4793 C.3     1  UNL1        0.0002
      5 C          -2.7043    4.6307   18.1904 C.3     1  UNL1        0.0030
      6 C          -2.5450    4.2266   19.6261 C.3     1  UNL1        0.0340
      7 N          -3.8032    3.6885   24.3157 N.am    1  UNL1       -0.2485
      8 C          -3.9626    4.0926   22.8800 C.2     1  UNL1        0.3058
      9 O          -4.5619    5.4245   22.5378 O.2     1  UNL1       -0.2524
     10 N          -3.5226    3.1649   21.7865 N.am    1  UNL1       -0.2902
     11 H          -3.4099    2.8144   24.5403 H       1  UNL1        0.1583
     12 H          -3.1292    2.2908   22.0110 H       1  UNL1        0.1509
     13 C          -5.6371    5.8888   26.9351 C.ar    1  UNL1        0.0803
     14 S          -5.6617    4.9107   25.7981 S.2     1  UNL1       -0.0488
     15 C          -4.2432    4.6162   25.4092 C.ar    1  UNL1        0.1664
     16 N          -3.3420    5.4122   26.3059 N.ar    1  UNL1       -0.2282
     17 C          -4.2035    6.1987   27.2490 C.ar    1  UNL1        0.0701
     18 C          -3.7167    7.1314   28.3181 C.3     1  UNL1        0.0528
     19 C          -7.6303    7.5543   26.9912 C.3     1  UNL1        0.0779
     20 C          -6.8358    6.4571   27.6353 C.2     1  UNL1        0.1807
     21 O          -7.2399    5.9282   28.9794 O.2     1  UNL1       -0.2908
     22 C          -1.2487    4.4799   20.3372 C.3     1  UNL1        0.0737
     23 N          -0.5517    3.3580   21.0483 N.3     1  UNL1       -0.2726
     24 C          -0.1062    3.5331   22.4699 C.3     1  UNL1        0.0721
     25 C           0.5908    2.4112   23.1810 C.3     1  UNL1        0.0174
     26 C           0.8423    1.1143   22.4704 C.3     1  UNL1        0.0031
     27 C           0.3968    0.9393   21.0489 C.3     1  UNL1        0.0204
     28 C          -0.3002    2.0611   20.3378 C.3     1  UNL1        0.0724
     29 C           0.6483   -0.3576   20.3383 C.3     1  UNL1        0.0277
     30 C           1.9558   -0.5892   19.6406 C.ar    1  UNL1       -0.0220
     31 C           2.2916    0.1850   18.4004 C.ar    1  UNL1       -0.0020
     32 C           3.5991   -0.0466   17.7027 C.ar    1  UNL1        0.0293
     33 C           4.5708   -1.0525   18.2452 C.ar    1  UNL1        0.1401
     34 F           5.8783   -1.2841   17.5475 F       1  UNL1       -0.2042
     35 C           4.2350   -1.8266   19.4852 C.ar    1  UNL1        0.0293
     36 C           2.9275   -1.5950   20.1830 C.ar    1  UNL1       -0.0020
@<TRIPOS>BOND
     1    19    20    1
     2    20    21    2
     3    20    13    1
     4    13    14   ar
     5    14    15   ar
     6    15     7    1
     7     7     8   am
     8     8     9    2
     9     8    10   am
    10     1    10    1
    11     1     2    1
    12     2     3    1
    13     3     4    1
    14     4     5    1
    15     5     6    1
    16     6    22    1
    17    22    23    1
    18    23    24    1
    19    24    25    1
    20    25    26    1
    21    26    27    1
    22    27    29    1
    23    29    30    1
    24    30    31   ar
    25    31    32   ar
    26    32    33   ar
    27    33    34    1
    28    33    35   ar
    29    35    36   ar
    30    27    28    1
    31    15    16   ar
    32    16    17   ar
    33    17    18    1
    34    17    13   ar
    35     6     1    1
    36    28    23    1
    37    36    30   ar
    38     7    11    1
    39    10    12    1
@<TRIPOS>MOLECULE
*****
 36 39 0 0 0
SMALL
GASTEIGER

@<TRIPOS>ATOM
      1 C           4.8388    1.0436   33.8039 C.3     1  UNL1        0.0743
      2 C           4.9091    2.3620   34.5158 C.3     1  UNL1        0.0197
      3 C           4.9525    2.4036   36.0146 C.3     1  UNL1        0.0017
      4 C           4.9257    1.1268   36.8014 C.3     1  UNL1        0.0002
      5 C           4.8554   -0.1916   36.0895 C.3     1  UNL1        0.0030
      6 C           4.8120   -0.2332   34.5907 C.3     1  UNL1        0.0340
      7 N           3.4334    0.8721   30.0964 N.am    1  UNL1       -0.2485
      8 C           3.4769    0.9138   31.5951 C.2     1  UNL1        0.3058
      9 O           2.2020    0.8673   32.3841 O.2     1  UNL1       -0.2524
     10 N           4.7954    1.0019   32.3050 N.am    1  UNL1       -0.2902
     11 H           4.2702    0.9026   29.5786 H       1  UNL1        0.1583
     12 H           5.6322    1.0325   31.7873 H       1  UNL1        0.1509
     13 C           0.2978    1.2002   27.8323 C.ar    1  UNL1        0.0803
     14 S           1.6826    1.6251   28.2222 S.2     1  UNL1       -0.0488
     15 C           2.1150    0.7840   29.3865 C.ar    1  UNL1        0.1664
     16 N           0.9975   -0.1607   29.7161 N.ar    1  UNL1       -0.2282
     17 C          -0.1256    0.0965   28.7557 C.ar    1  UNL1        0.0701
     18 C          -1.4410   -0.6236   28.7241 C.3     1  UNL1        0.0528
     19 C          -0.1683    1.4675   25.2905 C.3     1  UNL1        0.0779
     20 C          -0.5199    1.7777   26.7153 C.2     1  UNL1        0.1807
     21 O          -1.6892    2.6652   27.0230 O.2     1  UNL1       -0.2908
     22 C           4.7417   -1.5516   33.8787 C.3     1  UNL1        0.0737
     23 N           5.9668   -2.1157   33.2223 N.3     1  UNL1       -0.2726
     24 C           7.2645   -1.3660   33.2862 C.3     1  UNL1        0.0721
     25 C           8.4896   -1.9301   32.6298 C.3     1  UNL1        0.0174
     26 C           8.4171   -3.2439   31.9095 C.3     1  UNL1        0.0031
     27 C           7.1194   -3.9936   31.8457 C.3     1  UNL1        0.0204
     28 C           5.8943   -3.4295   32.5021 C.3     1  UNL1        0.0724
     29 C           7.0468   -5.3074   31.1255 C.3     1  UNL1        0.0277
     30 C           7.1184   -5.3466   29.6277 C.ar    1  UNL1       -0.0220
     31 C           6.5044   -4.2428   28.8184 C.ar    1  UNL1       -0.0020
     32 C           6.5760   -4.2820   27.3206 C.ar    1  UNL1        0.0293
     33 C           7.2614   -5.4249   26.6322 C.ar    1  UNL1        0.1401
     34 F           7.3330   -5.4641   25.1344 F       1  UNL1       -0.2042
     35 C           7.8753   -6.5286   27.4414 C.ar    1  UNL1        0.0293
     36 C           7.8038   -6.4894   28.9392 C.ar    1  UNL1       -0.0020
@<TRIPOS>BOND
     1    19    20    1
     2    20    21    2
     3    20    13    1
     4    13    14   ar
     5    14    15   ar
     6    15     7    1
     7     7     8   am
     8     8     9    2
     9     8    10   am
    10     1    10    1
    11     1     2    1
    12     2     3    1
    13     3     4    1
    14     4     5    1
    15     5     6    1
    16     6    22    1
    17    22    23    1
    18    23    24    1
    19    24    25    1
    20    25    26    1
    21    26    27    1
    22    27    29    1
    23    29    30    1
    24    30    31   ar
    25    31    32   ar
    26    32    33   ar
    27    33    34    1
    28    33    35   ar
    29    35    36   ar
    30    27    28    1
    31    15    16   ar
    32    16    17   ar
    33    17    18    1
    34    17    13   ar
    35     6     1    1
    36    28    23    1
    37    36    30   ar
    38     7    11    1
    39    10    12    1
@<TRIPOS>MOLECULE
*****
 36 39 0 0 0
SMALL
GASTEIGER

@<TRIPOS>ATOM
      1 C          -3.8708    3.3793   19.5559 C.3     1  UNL1        0.0743
      2 C          -4.8481    3.5916   18.4380 C.3     1  UNL1        0.0197
      3 C          -4.3693    4.0951   17.1087 C.3     1  UNL1        0.0017
      4 C          -2.9131    4.3863   16.8972 C.3     1  UNL1        0.0002
      5 C          -1.9358    4.1740   18.0151 C.3     1  UNL1        0.0030
      6 C          -2.4146    3.6705   19.3444 C.3     1  UNL1        0.0340
      7 N          -5.4208    3.3264   23.2089 N.am    1  UNL1       -0.2485
      8 C          -4.9420    3.8299   21.8796 C.2     1  UNL1        0.3058
      9 O          -5.0557    5.2876   21.5444 O.2     1  UNL1       -0.2524
     10 N          -4.3496    2.8757   20.8853 N.am    1  UNL1       -0.2902
     11 H          -5.3462    2.3697   23.4288 H       1  UNL1        0.1583
     12 H          -4.2750    1.9190   21.1052 H       1  UNL1        0.1509
     13 C          -6.3489    5.6235   26.1968 C.ar    1  UNL1        0.0803
     14 S          -5.4294    4.6386   25.5376 S.2     1  UNL1       -0.0488
     15 C          -6.0133    4.2805   24.2032 C.ar    1  UNL1        0.1664
     16 N          -7.2937    5.0441   24.0376 N.ar    1  UNL1       -0.2282
     17 C          -7.5011    5.8741   25.2697 C.ar    1  UNL1        0.0701
     18 C          -8.6577    6.7933   25.5291 C.3     1  UNL1        0.0528
     19 C          -4.9952    7.1751   27.7811 C.3     1  UNL1        0.0779
     20 C          -6.1509    6.2481   27.5461 C.2     1  UNL1        0.1807
     21 O          -7.1085    5.9459   28.6603 O.2     1  UNL1       -0.2908
     22 C          -1.4372    3.4581   20.4623 C.3     1  UNL1        0.0737
     23 N          -0.1256    2.7818   20.1935 N.3     1  UNL1       -0.2726
     24 C           1.0702    3.5956   19.7957 C.3     1  UNL1        0.0721
     25 C           2.3818    2.9193   19.5268 C.3     1  UNL1        0.0174
     26 C           2.4977    1.4293   19.6557 C.3     1  UNL1        0.0031
     27 C           1.3020    0.6157   20.0534 C.3     1  UNL1        0.0204
     28 C          -0.0096    1.2919   20.3223 C.3     1  UNL1        0.0724
     29 C           1.4179   -0.8743   20.1823 C.3     1  UNL1        0.0277
     30 C           2.7449   -1.4990   20.4967 C.ar    1  UNL1       -0.0220
     31 C           3.4895   -2.2526   19.4347 C.ar    1  UNL1       -0.0020
     32 C           4.8166   -2.8772   19.7491 C.ar    1  UNL1        0.0293
     33 C           5.3990   -2.7482   21.1254 C.ar    1  UNL1        0.1401
     34 F           6.7260   -3.3728   21.4398 F       1  UNL1       -0.2042
     35 C           4.6544   -1.9946   22.1873 C.ar    1  UNL1        0.0293
     36 C           3.3274   -1.3699   21.8729 C.ar    1  UNL1       -0.0020
@<TRIPOS>BOND
     1    19    20    1
     2    20    21    2
     3    20    13    1
     4    13    14   ar
     5    14    15   ar
     6    15     7    1
     7     7     8   am
     8     8     9    2
     9     8    10   am
    10     1    10    1
    11     1     2    1
    12     2     3    1
    13     3     4    1
    14     4     5    1
    15     5     6    1
    16     6    22    1
    17    22    23    1
    18    23    24    1
    19    24    25    1
    20    25    26    1
    21    26    27    1
    22    27    29    1
    23    29    30    1
    24    30    31   ar
    25    31    32   ar
    26    32    33   ar
    27    33    34    1
    28    33    35   ar
    29    35    36   ar
    30    27    28    1
    31    15    16   ar
    32    16    17   ar
    33    17    18    1
    34    17    13   ar
    35     6     1    1
    36    28    23    1
    37    36    30   ar
    38     7    11    1
    39    10    12    1
@<TRIPOS>MOLECULE
*****
 36 39 0 0 0
SMALL
GASTEIGER

@<TRIPOS>ATOM
      1 C          -6.3904  -15.3528   25.1490 C.3     1  UNL1        0.0743
      2 C          -6.1026  -15.6269   26.5954 C.3     1  UNL1        0.0197
      3 C          -7.1616  -16.2305   27.4695 C.3     1  UNL1        0.0017
      4 C          -8.5085  -16.5600   26.8973 C.3     1  UNL1        0.0002
      5 C          -8.7963  -16.2859   25.4509 C.3     1  UNL1        0.0030
      6 C          -7.7372  -15.6823   24.5768 C.3     1  UNL1        0.0340
      7 N          -3.5109  -15.0097   22.4396 N.am    1  UNL1       -0.2485
      8 C          -4.5699  -15.6132   23.3138 C.2     1  UNL1        0.3058
      9 O          -4.8675  -17.0809   23.2269 O.2     1  UNL1       -0.2524
     10 N          -5.3314  -14.7492   24.2749 N.am    1  UNL1       -0.2902
     11 H          -3.3156  -14.0465   22.4967 H       1  UNL1        0.1583
     12 H          -5.1361  -13.7860   24.3319 H       1  UNL1        0.1509
     13 C          -0.9913  -17.2066   20.4672 C.ar    1  UNL1        0.0803
     14 S          -1.3530  -16.3868   21.6701 S.2     1  UNL1       -0.0488
     15 C          -2.7495  -15.8738   21.4786 C.ar    1  UNL1        0.1664
     16 N          -3.2508  -16.3765   20.1572 N.ar    1  UNL1       -0.2282
     17 C          -2.1642  -17.2002   19.5321 C.ar    1  UNL1        0.0701
     18 C          -2.2376  -17.8955   18.2050 C.3     1  UNL1        0.0528
     19 C           1.6020  -17.2416   20.6206 C.3     1  UNL1        0.0779
     20 C           0.3141  -17.9094   20.2393 C.2     1  UNL1        0.1807
     21 O           0.3317  -19.2800   19.6301 O.2     1  UNL1       -0.2908
     22 C          -8.0250  -15.4082   23.1304 C.3     1  UNL1        0.0737
     23 N          -8.6740  -16.4614   22.2821 N.3     1  UNL1       -0.2726
     24 C         -10.0605  -16.2476   21.7511 C.3     1  UNL1        0.0721
     25 C         -10.7095  -17.3009   20.9028 C.3     1  UNL1        0.0174
     26 C          -9.9719  -18.5679   20.5856 C.3     1  UNL1        0.0031
     27 C          -8.5854  -18.7817   21.1166 C.3     1  UNL1        0.0204
     28 C          -7.9365  -17.7284   21.9648 C.3     1  UNL1        0.0724
     29 C          -7.8478  -20.0488   20.7993 C.3     1  UNL1        0.0277
     30 C          -6.3534  -20.0966   20.9188 C.ar    1  UNL1       -0.0220
     31 C          -5.5122  -20.3650   19.7061 C.ar    1  UNL1       -0.0020
     32 C          -4.0177  -20.4129   19.8256 C.ar    1  UNL1        0.0293
     33 C          -3.3644  -20.1923   21.1578 C.ar    1  UNL1        0.1401
     34 F          -1.8700  -20.2401   21.2773 F       1  UNL1       -0.2042
     35 C          -4.2056  -19.9238   22.3704 C.ar    1  UNL1        0.0293
     36 C          -5.7000  -19.8760   22.2509 C.ar    1  UNL1       -0.0020
@<TRIPOS>BOND
     1    19    20    1
     2    20    21    2
     3    20    13    1
     4    13    14   ar
     5    14    15   ar
     6    15     7    1
     7     7     8   am
     8     8     9    2
     9     8    10   am
    10     1    10    1
    11     1     2    1
    12     2     3    1
    13     3     4    1
    14     4     5    1
    15     5     6    1
    16     6    22    1
    17    22    23    1
    18    23    24    1
    19    24    25    1
    20    25    26    1
    21    26    27    1
    22    27    29    1
    23    29    30    1
    24    30    31   ar
    25    31    32   ar
    26    32    33   ar
    27    33    34    1
    28    33    35   ar
    29    35    36   ar
    30    27    28    1
    31    15    16   ar
    32    16    17   ar
    33    17    18    1
    34    17    13   ar
    35     6     1    1
    36    28    23    1
    37    36    30   ar
    38     7    11    1
    39    10    12    1
