@<TRIPOS>MOLECULE
*****
 23 25 0 0 0
SMALL
GASTEIGER

@<TRIPOS>ATOM
      1 C          -6.3853  -16.2759   23.6510 C.3     1  UNL1        0.1753
      2 O          -4.9516  -16.6663   23.8565 O.3     1  UNL1       -0.3460
      3 C          -4.3783  -17.8349   23.1112 C.3     1  UNL1        0.1685
      4 C          -5.2387  -18.6132   22.1603 C.ar    1  UNL1        0.0067
      5 C          -4.6653  -19.7819   21.4150 C.ar    1  UNL1       -0.0021
      6 C          -5.5257  -20.5601   20.4642 C.ar    1  UNL1       -0.0003
      7 C          -6.9593  -20.1697   20.2586 C.ar    1  UNL1       -0.0002
      8 C          -7.5326  -19.0011   21.0039 C.ar    1  UNL1       -0.0010
      9 C          -6.6723  -18.2228   21.9548 C.ar    1  UNL1        0.0181
     10 C          -7.2456  -17.0541   22.7001 C.3     1  UNL1        0.2161
     11 C          -6.9586  -15.1071   24.3963 C.3     1  UNL1        0.1027
     12 C          -6.4047  -15.3951   26.9182 C.3     1  UNL1        0.0859
     13 N          -6.2893  -14.6120   25.6441 N.3     1  UNL1       -0.2942
     14 H          -5.2941  -14.5362   25.4342 H       1  UNL1        0.1234
     15 O          -8.6792  -16.6637   22.4946 O.3     1  UNL1       -0.4724
     16 C          -9.7704  -17.4231   23.1893 C.ar    1  UNL1        0.1371
     17 C          -9.4258  -18.4519   24.2252 C.ar    1  UNL1        0.0367
     18 C         -10.5170  -19.2112   24.9200 C.ar    1  UNL1        0.0054
     19 C         -11.9526  -18.9419   24.5789 C.ar    1  UNL1        0.0295
     20 C         -12.2972  -17.9132   23.5431 C.ar    1  UNL1        0.1390
     21 F         -13.7328  -17.6439   23.2020 F       1  UNL1       -0.2044
     22 C         -11.2060  -17.1538   22.8483 C.ar    1  UNL1        0.0395
     23 C         -11.5506  -16.1250   21.8124 C.3     1  UNL1        0.0366
@<TRIPOS>BOND
     1    12    13    1
     2    13    11    1
     3     1    11    1
     4     1     2    1
     5     2     3    1
     6     3     4    1
     7     4     5   ar
     8     5     6   ar
     9     6     7   ar
    10     7     8   ar
    11     8     9   ar
    12     9    10    1
    13    10    15    1
    14    15    16    1
    15    16    17   ar
    16    17    18   ar
    17    18    19   ar
    18    19    20   ar
    19    20    21    1
    20    20    22   ar
    21    22    23    1
    22    10     1    1
    23    22    16   ar
    24     9     4   ar
    25    13    14    1
@<TRIPOS>MOLECULE
*****
 23 25 0 0 0
SMALL
GASTEIGER

@<TRIPOS>ATOM
      1 C          -7.7786  -18.4808   22.0681 C.3     1  UNL1        0.1753
      2 O          -8.4611  -19.7352   21.6091 O.3     1  UNL1       -0.3460
      3 C          -9.9536  -19.7663   21.4625 C.3     1  UNL1        0.1685
      4 C         -10.7636  -18.5431   21.7750 C.ar    1  UNL1        0.0067
      5 C         -12.2561  -18.5743   21.6285 C.ar    1  UNL1       -0.0021
      6 C         -13.0660  -17.3511   21.9409 C.ar    1  UNL1       -0.0003
      7 C         -12.3835  -16.0967   22.4000 C.ar    1  UNL1       -0.0002
      8 C         -10.8910  -16.0655   22.5465 C.ar    1  UNL1       -0.0010
      9 C         -10.0811  -17.2887   22.2340 C.ar    1  UNL1        0.0181
     10 C          -8.5885  -17.2576   22.3806 C.3     1  UNL1        0.2161
     11 C          -6.2860  -18.4497   22.2147 C.3     1  UNL1        0.1027
     12 C          -5.1287  -19.9628   20.4481 C.3     1  UNL1        0.0859
     13 N          -5.4105  -18.5992   21.0060 N.3     1  UNL1       -0.2942
     14 H          -5.8461  -18.0594   20.2582 H       1  UNL1        0.1234
     15 O          -7.9060  -16.0032   22.8396 O.3     1  UNL1       -0.4724
     16 C          -7.5703  -15.8198   24.2900 C.ar    1  UNL1        0.1371
     17 C          -8.6353  -15.9859   25.3332 C.ar    1  UNL1        0.0367
     18 C          -8.2996  -15.8025   26.7836 C.ar    1  UNL1        0.0054
     19 C          -6.8989  -15.4529   27.1908 C.ar    1  UNL1        0.0295
     20 C          -5.8339  -15.2868   26.1477 C.ar    1  UNL1        0.1390
     21 F          -4.4332  -14.9372   26.5549 F       1  UNL1       -0.2044
     22 C          -6.1696  -15.4702   24.6972 C.ar    1  UNL1        0.0395
     23 C          -5.1046  -15.3040   23.6541 C.3     1  UNL1        0.0366
@<TRIPOS>BOND
     1    12    13    1
     2    13    11    1
     3     1    11    1
     4     1     2    1
     5     2     3    1
     6     3     4    1
     7     4     5   ar
     8     5     6   ar
     9     6     7   ar
    10     7     8   ar
    11     8     9   ar
    12     9    10    1
    13    10    15    1
    14    15    16    1
    15    16    17   ar
    16    17    18   ar
    17    18    19   ar
    18    19    20   ar
    19    20    21    1
    20    20    22   ar
    21    22    23    1
    22    10     1    1
    23    22    16   ar
    24     9     4   ar
    25    13    14    1
@<TRIPOS>MOLECULE
*****
 23 25 0 0 0
SMALL
GASTEIGER

@<TRIPOS>ATOM
      1 C          -5.8930  -16.4568   23.6664 C.3     1  UNL1        0.1753
      2 O          -4.4575  -16.5827   24.0831 O.3     1  UNL1       -0.3460
      3 C          -3.5825  -17.6257   23.4536 C.3     1  UNL1        0.1685
      4 C          -4.1429  -18.5429   22.4072 C.ar    1  UNL1        0.0067
      5 C          -3.2679  -19.5859   21.7776 C.ar    1  UNL1       -0.0021
      6 C          -3.8283  -20.5030   20.7313 C.ar    1  UNL1       -0.0003
      7 C          -5.2637  -20.3771   20.3145 C.ar    1  UNL1       -0.0002
      8 C          -6.1387  -19.3341   20.9441 C.ar    1  UNL1       -0.0010
      9 C          -5.5783  -18.4170   21.9904 C.ar    1  UNL1        0.0181
     10 C          -6.4534  -17.3739   22.6200 C.3     1  UNL1        0.2161
     11 C          -6.7680  -15.4137   24.2960 C.3     1  UNL1        0.1027
     12 C          -6.4504  -15.3506   26.8737 C.3     1  UNL1        0.0859
     13 N          -6.3100  -14.6965   25.5312 N.3     1  UNL1       -0.2942
     14 H          -5.3182  -14.4951   25.4041 H       1  UNL1        0.1234
     15 O          -7.8888  -17.2479   22.2032 O.3     1  UNL1       -0.4724
     16 C          -8.9305  -18.1296   22.8255 C.ar    1  UNL1        0.1371
     17 C          -9.1959  -18.0516   24.2998 C.ar    1  UNL1        0.0367
     18 C         -10.2377  -18.9332   24.9221 C.ar    1  UNL1        0.0054
     19 C         -11.0141  -19.8931   24.0701 C.ar    1  UNL1        0.0295
     20 C         -10.7488  -19.9712   22.5959 C.ar    1  UNL1        0.1390
     21 F         -11.5253  -20.9310   21.7439 F       1  UNL1       -0.2044
     22 C          -9.7070  -19.0894   21.9735 C.ar    1  UNL1        0.0395
     23 C          -9.4417  -19.1675   20.4993 C.3     1  UNL1        0.0366
@<TRIPOS>BOND
     1    12    13    1
     2    13    11    1
     3     1    11    1
     4     1     2    1
     5     2     3    1
     6     3     4    1
     7     4     5   ar
     8     5     6   ar
     9     6     7   ar
    10     7     8   ar
    11     8     9   ar
    12     9    10    1
    13    10    15    1
    14    15    16    1
    15    16    17   ar
    16    17    18   ar
    17    18    19   ar
    18    19    20   ar
    19    20    21    1
    20    20    22   ar
    21    22    23    1
    22    10     1    1
    23    22    16   ar
    24     9     4   ar
    25    13    14    1
@<TRIPOS>MOLECULE
*****
 23 25 0 0 0
SMALL
GASTEIGER

@<TRIPOS>ATOM
      1 C          -6.4866  -17.5000   22.7508 C.3     1  UNL1        0.1753
      2 O          -5.2337  -16.6967   22.9377 O.3     1  UNL1       -0.3460
      3 C          -5.0706  -15.8335   24.1536 C.3     1  UNL1        0.1685
      4 C          -6.1604  -15.7738   25.1826 C.ar    1  UNL1        0.0067
      5 C          -5.9974  -14.9106   26.3985 C.ar    1  UNL1       -0.0021
      6 C          -7.0871  -14.8509   27.4274 C.ar    1  UNL1       -0.0003
      7 C          -8.3400  -15.6542   27.2405 C.ar    1  UNL1       -0.0002
      8 C          -8.5031  -16.5174   26.0246 C.ar    1  UNL1       -0.0010
      9 C          -7.4133  -16.5771   24.9957 C.ar    1  UNL1        0.0181
     10 C          -7.5764  -17.4403   23.7797 C.3     1  UNL1        0.2161
     11 C          -6.6496  -18.3631   21.5348 C.3     1  UNL1        0.1027
     12 C          -5.9618  -20.7000   20.6318 C.3     1  UNL1        0.0859
     13 N          -6.6425  -19.8571   21.6691 N.3     1  UNL1       -0.2942
     14 H          -6.1962  -20.0704   22.5611 H       1  UNL1        0.1234
     15 O          -8.8292  -18.2436   23.5928 O.3     1  UNL1       -0.4724
     16 C         -10.0529  -17.6002   23.0109 C.ar    1  UNL1        0.1371
     17 C          -9.9189  -16.6026   21.8987 C.ar    1  UNL1        0.0367
     18 C         -11.1426  -15.9593   21.3168 C.ar    1  UNL1        0.0054
     19 C         -12.5003  -16.3133   21.8471 C.ar    1  UNL1        0.0295
     20 C         -12.6343  -17.3108   22.9593 C.ar    1  UNL1        0.1390
     21 F         -13.9920  -17.6649   23.4896 F       1  UNL1       -0.2044
     22 C         -11.4106  -17.9543   23.5412 C.ar    1  UNL1        0.0395
     23 C         -11.5446  -18.9518   24.6534 C.3     1  UNL1        0.0366
@<TRIPOS>BOND
     1    12    13    1
     2    13    11    1
     3     1    11    1
     4     1     2    1
     5     2     3    1
     6     3     4    1
     7     4     5   ar
     8     5     6   ar
     9     6     7   ar
    10     7     8   ar
    11     8     9   ar
    12     9    10    1
    13    10    15    1
    14    15    16    1
    15    16    17   ar
    16    17    18   ar
    17    18    19   ar
    18    19    20   ar
    19    20    21    1
    20    20    22   ar
    21    22    23    1
    22    10     1    1
    23    22    16   ar
    24     9     4   ar
    25    13    14    1
@<TRIPOS>MOLECULE
*****
 23 25 0 0 0
SMALL
GASTEIGER

@<TRIPOS>ATOM
      1 C          -6.8613  -18.3307   22.1426 C.3     1  UNL1        0.1753
      2 O          -7.3232  -19.6595   21.6222 O.3     1  UNL1       -0.3460
      3 C          -8.7201  -19.8155   21.0986 C.3     1  UNL1        0.1685
      4 C          -9.6553  -18.6427   21.0954 C.ar    1  UNL1        0.0067
      5 C         -11.0522  -18.7987   20.5718 C.ar    1  UNL1       -0.0021
      6 C         -11.9873  -17.6259   20.5686 C.ar    1  UNL1       -0.0003
      7 C         -11.5254  -16.2970   21.0890 C.ar    1  UNL1       -0.0002
      8 C         -10.1285  -16.1410   21.6126 C.ar    1  UNL1       -0.0010
      9 C          -9.1934  -17.3138   21.6158 C.ar    1  UNL1        0.0181
     10 C          -7.7964  -17.1578   22.1394 C.3     1  UNL1        0.2161
     11 C          -5.4643  -18.1747   22.6662 C.3     1  UNL1        0.1027
     12 C          -2.9534  -17.8079   22.1090 C.3     1  UNL1        0.0859
     13 N          -4.2933  -18.3796   21.7516 N.3     1  UNL1       -0.2942
     14 H          -4.1674  -19.3873   21.6557 H       1  UNL1        0.1234
     15 O          -7.3345  -15.8290   22.6598 O.3     1  UNL1       -0.4724
     16 C          -6.9566  -15.6791   24.1036 C.ar    1  UNL1        0.1371
     17 C          -5.5291  -15.4156   24.4818 C.ar    1  UNL1        0.0367
     18 C          -5.1512  -15.2658   25.9256 C.ar    1  UNL1        0.0054
     19 C          -6.2006  -15.3795   26.9913 C.ar    1  UNL1        0.0295
     20 C          -7.6280  -15.6430   26.6132 C.ar    1  UNL1        0.1390
     21 F          -8.6775  -15.7566   27.6789 F       1  UNL1       -0.2044
     22 C          -8.0060  -15.7928   25.1693 C.ar    1  UNL1        0.0395
     23 C          -9.4334  -16.0563   24.7912 C.3     1  UNL1        0.0366
@<TRIPOS>BOND
     1    12    13    1
     2    13    11    1
     3     1    11    1
     4     1     2    1
     5     2     3    1
     6     3     4    1
     7     4     5   ar
     8     5     6   ar
     9     6     7   ar
    10     7     8   ar
    11     8     9   ar
    12     9    10    1
    13    10    15    1
    14    15    16    1
    15    16    17   ar
    16    17    18   ar
    17    18    19   ar
    18    19    20   ar
    19    20    21    1
    20    20    22   ar
    21    22    23    1
    22    10     1    1
    23    22    16   ar
    24     9     4   ar
    25    13    14    1
@<TRIPOS>MOLECULE
*****
 23 25 0 0 0
SMALL
GASTEIGER

@<TRIPOS>ATOM
      1 C          -7.5682  -16.0291   22.6481 C.3     1  UNL1        0.1753
      2 O          -8.5699  -15.0547   22.1029 O.3     1  UNL1       -0.3460
      3 C          -9.8442  -15.5536   21.4890 C.3     1  UNL1        0.1685
      4 C         -10.1170  -17.0270   21.4202 C.ar    1  UNL1        0.0067
      5 C         -11.3914  -17.5260   20.8063 C.ar    1  UNL1       -0.0021
      6 C         -11.6641  -18.9994   20.7375 C.ar    1  UNL1       -0.0003
      7 C         -10.6625  -19.9738   21.2826 C.ar    1  UNL1       -0.0002
      8 C          -9.3881  -19.4748   21.8965 C.ar    1  UNL1       -0.0010
      9 C          -9.1154  -18.0015   21.9653 C.ar    1  UNL1        0.0181
     10 C          -7.8409  -17.5024   22.5793 C.3     1  UNL1        0.2161
     11 C          -6.2938  -15.5301   23.2620 C.3     1  UNL1        0.1027
     12 C          -5.6700  -15.1975   25.7620 C.3     1  UNL1        0.0859
     13 N          -6.3373  -14.7033   24.5128 N.3     1  UNL1       -0.2942
     14 H          -5.9108  -13.8048   24.2868 H       1  UNL1        0.1234
     15 O          -6.8393  -18.4769   23.1244 O.3     1  UNL1       -0.4724
     16 C          -5.7971  -19.0658   22.2206 C.ar    1  UNL1        0.1371
     17 C          -6.2073  -19.9375   21.0708 C.ar    1  UNL1        0.0367
     18 C          -5.1651  -20.5264   20.1669 C.ar    1  UNL1        0.0054
     19 C          -3.7127  -20.2436   20.4128 C.ar    1  UNL1        0.0295
     20 C          -3.3024  -19.3719   21.5624 C.ar    1  UNL1        0.1390
     21 F          -1.8500  -19.0891   21.8083 F       1  UNL1       -0.2044
     22 C          -4.3446  -18.7830   22.4664 C.ar    1  UNL1        0.0395
     23 C          -3.9344  -17.9113   23.6161 C.3     1  UNL1        0.0366
@<TRIPOS>BOND
     1    12    13    1
     2    13    11    1
     3     1    11    1
     4     1     2    1
     5     2     3    1
     6     3     4    1
     7     4     5   ar
     8     5     6   ar
     9     6     7   ar
    10     7     8   ar
    11     8     9   ar
    12     9    10    1
    13    10    15    1
    14    15    16    1
    15    16    17   ar
    16    17    18   ar
    17    18    19   ar
    18    19    20   ar
    19    20    21    1
    20    20    22   ar
    21    22    23    1
    22    10     1    1
    23    22    16   ar
    24     9     4   ar
    25    13    14    1
@<TRIPOS>MOLECULE
*****
 23 25 0 0 0
SMALL
GASTEIGER

@<TRIPOS>ATOM
      1 C          -7.3986  -17.3162   23.4372 C.3     1  UNL1        0.1753
      2 O          -6.0552  -16.6495   23.4108 O.3     1  UNL1       -0.3460
      3 C          -4.9322  -17.2560   22.6228 C.3     1  UNL1        0.1685
      4 C          -5.1526  -18.5294   21.8610 C.ar    1  UNL1        0.0067
      5 C          -4.0297  -19.1359   21.0730 C.ar    1  UNL1       -0.0021
      6 C          -4.2501  -20.4091   20.3113 C.ar    1  UNL1       -0.0003
      7 C          -5.5936  -21.0759   20.3377 C.ar    1  UNL1       -0.0002
      8 C          -6.7165  -20.4693   21.1257 C.ar    1  UNL1       -0.0010
      9 C          -6.4961  -19.1961   21.8874 C.ar    1  UNL1        0.0181
     10 C          -7.6191  -18.5895   22.6755 C.3     1  UNL1        0.2161
     11 C          -8.5216  -16.7097   24.2252 C.3     1  UNL1        0.1027
     12 C          -7.8763  -15.5883   26.4782 C.3     1  UNL1        0.0859
     13 N          -8.2838  -15.4725   25.0393 N.3     1  UNL1       -0.2942
     14 H          -7.5493  -14.9457   24.5668 H       1  UNL1        0.1234
     15 O          -8.9625  -19.2562   22.7019 O.3     1  UNL1       -0.4724
     16 C         -10.1708  -18.5291   22.1908 C.ar    1  UNL1        0.1371
     17 C         -10.1635  -17.9391   20.8116 C.ar    1  UNL1        0.0367
     18 C         -11.3718  -17.2120   20.3006 C.ar    1  UNL1        0.0054
     19 C         -12.5874  -17.0748   21.1685 C.ar    1  UNL1        0.0295
     20 C         -12.5948  -17.6648   22.5476 C.ar    1  UNL1        0.1390
     21 F         -13.8104  -17.5276   23.4156 F       1  UNL1       -0.2044
     22 C         -11.3864  -18.3920   23.0588 C.ar    1  UNL1        0.0395
     23 C         -11.3938  -18.9819   24.4378 C.3     1  UNL1        0.0366
@<TRIPOS>BOND
     1    12    13    1
     2    13    11    1
     3     1    11    1
     4     1     2    1
     5     2     3    1
     6     3     4    1
     7     4     5   ar
     8     5     6   ar
     9     6     7   ar
    10     7     8   ar
    11     8     9   ar
    12     9    10    1
    13    10    15    1
    14    15    16    1
    15    16    17   ar
    16    17    18   ar
    17    18    19   ar
    18    19    20   ar
    19    20    21    1
    20    20    22   ar
    21    22    23    1
    22    10     1    1
    23    22    16   ar
    24     9     4   ar
    25    13    14    1
@<TRIPOS>MOLECULE
*****
 23 25 0 0 0
SMALL
GASTEIGER

@<TRIPOS>ATOM
      1 C          -6.0834  -16.9466   23.2931 C.3     1  UNL1        0.1753
      2 O          -4.6527  -16.5810   23.0299 O.3     1  UNL1       -0.3460
      3 C          -3.8033  -17.4564   22.1568 C.3     1  UNL1        0.1685
      4 C          -4.3847  -18.6975   21.5470 C.ar    1  UNL1        0.0067
      5 C          -3.5353  -19.5729   20.6740 C.ar    1  UNL1       -0.0021
      6 C          -4.1167  -20.8139   20.0642 C.ar    1  UNL1       -0.0003
      7 C          -5.5474  -21.1795   20.3275 C.ar    1  UNL1       -0.0002
      8 C          -6.3968  -20.3041   21.2005 C.ar    1  UNL1       -0.0010
      9 C          -5.8154  -19.0631   21.8103 C.ar    1  UNL1        0.0181
     10 C          -6.6648  -18.1876   22.6834 C.3     1  UNL1        0.2161
     11 C          -6.9328  -16.0712   24.1662 C.3     1  UNL1        0.1027
     12 C          -5.8309  -15.1547   26.3331 C.3     1  UNL1        0.0859
     13 N          -6.3084  -14.9396   24.9276 N.3     1  UNL1       -0.2942
     14 H          -5.5010  -14.6306   24.3863 H       1  UNL1        0.1234
     15 O          -8.0955  -18.5532   22.9466 O.3     1  UNL1       -0.4724
     16 C          -9.1505  -18.2348   21.9290 C.ar    1  UNL1        0.1371
     17 C          -9.1567  -18.9448   20.6076 C.ar    1  UNL1        0.0367
     18 C         -10.2116  -18.6263   19.5900 C.ar    1  UNL1        0.0054
     19 C         -11.2604  -17.5978   19.8937 C.ar    1  UNL1        0.0295
     20 C         -11.2543  -16.8878   21.2149 C.ar    1  UNL1        0.1390
     21 F         -12.3031  -15.8593   21.5186 F       1  UNL1       -0.2044
     22 C         -10.1993  -17.2063   22.2326 C.ar    1  UNL1        0.0395
     23 C         -10.1932  -16.4963   23.5539 C.3     1  UNL1        0.0366
@<TRIPOS>BOND
     1    12    13    1
     2    13    11    1
     3     1    11    1
     4     1     2    1
     5     2     3    1
     6     3     4    1
     7     4     5   ar
     8     5     6   ar
     9     6     7   ar
    10     7     8   ar
    11     8     9   ar
    12     9    10    1
    13    10    15    1
    14    15    16    1
    15    16    17   ar
    16    17    18   ar
    17    18    19   ar
    18    19    20   ar
    19    20    21    1
    20    20    22   ar
    21    22    23    1
    22    10     1    1
    23    22    16   ar
    24     9     4   ar
    25    13    14    1
@<TRIPOS>MOLECULE
*****
 23 25 0 0 0
SMALL
GASTEIGER

@<TRIPOS>ATOM
      1 C          -7.6102  -16.1770   24.1587 C.3     1  UNL1        0.1753
      2 O          -8.4463  -16.1378   25.4034 O.3     1  UNL1       -0.3460
      3 C          -9.5438  -17.1408   25.6016 C.3     1  UNL1        0.1685
      4 C          -9.8052  -18.1832   24.5550 C.ar    1  UNL1        0.0067
      5 C         -10.9027  -19.1862   24.7532 C.ar    1  UNL1       -0.0021
      6 C         -11.1641  -20.2285   23.7067 C.ar    1  UNL1       -0.0003
      7 C         -10.3280  -20.2678   22.4619 C.ar    1  UNL1       -0.0002
      8 C          -9.2305  -19.2647   22.2637 C.ar    1  UNL1       -0.0010
      9 C          -8.9691  -18.2224   23.3103 C.ar    1  UNL1        0.0181
     10 C          -7.8715  -17.2193   23.1121 C.3     1  UNL1        0.2161
     11 C          -6.5126  -15.1739   23.9605 C.3     1  UNL1        0.1027
     12 C          -5.1988  -15.6081   26.1594 C.3     1  UNL1        0.0859
     13 N          -5.7502  -14.6531   25.1426 N.3     1  UNL1       -0.2942
     14 H          -4.9584  -14.1264   24.7735 H       1  UNL1        0.1234
     15 O          -7.0354  -17.2586   21.8674 O.3     1  UNL1       -0.4724
     16 C          -5.8058  -18.1161   21.8166 C.ar    1  UNL1        0.1371
     17 C          -4.7192  -17.9302   22.8340 C.ar    1  UNL1        0.0367
     18 C          -3.4896  -18.7877   22.7832 C.ar    1  UNL1        0.0054
     19 C          -3.3464  -19.8312   21.7151 C.ar    1  UNL1        0.0295
     20 C          -4.4329  -20.0171   20.6978 C.ar    1  UNL1        0.1390
     21 F          -4.2898  -21.0605   19.6297 F       1  UNL1       -0.2044
     22 C          -5.6626  -19.1595   20.7486 C.ar    1  UNL1        0.0395
     23 C          -6.7491  -19.3454   19.7313 C.3     1  UNL1        0.0366
@<TRIPOS>BOND
     1    12    13    1
     2    13    11    1
     3     1    11    1
     4     1     2    1
     5     2     3    1
     6     3     4    1
     7     4     5   ar
     8     5     6   ar
     9     6     7   ar
    10     7     8   ar
    11     8     9   ar
    12     9    10    1
    13    10    15    1
    14    15    16    1
    15    16    17   ar
    16    17    18   ar
    17    18    19   ar
    18    19    20   ar
    19    20    21    1
    20    20    22   ar
    21    22    23    1
    22    10     1    1
    23    22    16   ar
    24     9     4   ar
    25    13    14    1
