@<TRIPOS>MOLECULE
*****
 41 45 0 0 0
SMALL
GASTEIGER

@<TRIPOS>ATOM
      1 C           3.9805   -1.6077   26.2961 C.3     1  UNL1        0.0191
      2 C           5.1676   -1.6412   27.2123 C.3     1  UNL1        0.0774
      3 C           5.0167   -1.2419   28.6503 C.3     1  UNL1        0.1081
      4 N           6.2039   -1.2754   29.5665 N.pl3   1  UNL1       -0.2898
      5 C           7.5420   -1.7082   29.0449 C.3     1  UNL1        0.1095
      6 C           7.6929   -2.1075   27.6069 C.3     1  UNL1        0.0938
      7 N           6.5057   -2.0740   26.6907 N.3     1  UNL1       -0.2721
      8 C           6.0529   -0.8760   31.0046 C.ar    1  UNL1        0.1424
      9 N           5.9219    0.5727   31.3708 N.ar    1  UNL1       -0.2281
     10 C           5.7710    0.9720   32.8087 C.ar    1  UNL1        0.1048
     11 C           5.7510   -0.0773   33.8805 C.ar    1  UNL1        0.0734
     12 C           5.8820   -1.5260   33.5142 C.ar    1  UNL1        0.0203
     13 C           6.0329   -1.9253   32.0762 C.ar    1  UNL1        0.0893
     14 CL          6.1639   -3.3740   31.7100 Cl      1  UNL1       -0.0793
     15 C           5.6000    0.3221   35.3184 C.2     1  UNL1        0.2476
     16 O           5.7617   -0.7022   36.4022 O.2     1  UNL1       -0.2701
     17 N           5.2874    1.7458   35.6726 N.am    1  UNL1       -0.2969
     18 H           5.1813    2.4180   34.9612 H       1  UNL1        0.1501
     19 C           5.1365    2.1451   37.1105 C.3     1  UNL1        0.1167
     20 C           3.7735    2.2000   37.7345 C.ar    1  UNL1       -0.0002
     21 C           2.9601    3.4574   37.6503 C.ar    1  UNL1       -0.0002
     22 C           1.5972    3.5122   38.2744 C.ar    1  UNL1        0.0317
     23 C           1.0477    2.3096   38.9827 C.ar    1  UNL1        0.1674
     24 F          -0.3152    2.3644   39.6068 F       1  UNL1       -0.2018
     25 C           1.8611    1.0521   39.0669 C.ar    1  UNL1        0.1671
     26 F           1.3116   -0.1506   39.7752 F       1  UNL1       -0.2018
     27 C           3.2241    0.9972   38.4429 C.ar    1  UNL1        0.0293
     28 C           6.6567   -2.4734   25.2526 C.3     1  UNL1        0.0603
     29 C           6.9021   -1.4276   24.2057 C.3     1  UNL1        0.0333
     30 C           7.0531   -1.8269   22.7677 C.3     1  UNL1        0.0738
     31 N           6.9586   -3.2720   22.3767 N.3     1  UNL1       -0.2689
     32 C           6.7131   -4.3177   23.4237 C.3     1  UNL1        0.0738
     33 C           6.5622   -3.9184   24.8617 C.3     1  UNL1        0.0333
     34 C           7.1096   -3.6713   20.9387 C.3     1  UNL1        0.0991
     35 C           6.2947   -2.9877   19.8810 C.ar    1  UNL1       -0.0061
     36 C           6.9573   -2.0592   18.9070 C.ar    1  UNL1       -0.0021
     37 C           6.1424   -1.3757   17.8493 C.ar    1  UNL1        0.0111
     38 C           4.6649   -1.6207   17.7656 C.ar    1  UNL1        0.0577
     39 CL          3.8501   -0.9371   16.7079 Cl      1  UNL1       -0.0822
     40 C           4.0023   -2.5491   18.7397 C.ar    1  UNL1        0.0111
     41 C           4.8172   -3.2327   19.7974 C.ar    1  UNL1       -0.0021
@<TRIPOS>BOND
     1     2     1    1
     2     2     3    1
     3     3     4    1
     4     4     8    1
     5     8     9   ar
     6     9    10   ar
     7    10    11   ar
     8    11    15    1
     9    15    16    2
    10    15    17   am
    11    17    19    1
    12    19    20    1
    13    20    21   ar
    14    21    22   ar
    15    22    23   ar
    16    23    24    1
    17    23    25   ar
    18    25    26    1
    19    25    27   ar
    20    11    12   ar
    21    12    13   ar
    22    13    14    1
    23     4     5    1
    24     5     6    1
    25     6     7    1
    26     7    28    1
    27    28    29    1
    28    29    30    1
    29    30    31    1
    30    31    34    1
    31    34    35    1
    32    35    36   ar
    33    36    37   ar
    34    37    38   ar
    35    38    39    1
    36    38    40   ar
    37    40    41   ar
    38    31    32    1
    39    32    33    1
    40     7     2    1
    41    33    28    1
    42    13     8   ar
    43    41    35   ar
    44    27    20   ar
    45    17    18    1
@<TRIPOS>MOLECULE
*****
 41 45 0 0 0
SMALL
GASTEIGER

@<TRIPOS>ATOM
      1 C           4.2305   -1.4375   26.2264 C.3     1  UNL1        0.0191
      2 C           5.4099   -1.6120   27.1367 C.3     1  UNL1        0.0774
      3 C           5.2974   -1.2493   28.5878 C.3     1  UNL1        0.1081
      4 N           6.4768   -1.4238   29.4981 N.pl3   1  UNL1       -0.2898
      5 C           7.7686   -1.9609   28.9572 C.3     1  UNL1        0.1095
      6 C           7.8811   -2.3236   27.5061 C.3     1  UNL1        0.0938
      7 N           6.7017   -2.1491   26.5958 N.3     1  UNL1       -0.2721
      8 C           6.3642   -1.0611   30.9492 C.ar    1  UNL1        0.1424
      9 N           6.4096    0.3785   31.3682 N.ar    1  UNL1       -0.2281
     10 C           6.2971    0.7412   32.8193 C.ar    1  UNL1        0.1048
     11 C           6.1392   -0.3357   33.8515 C.ar    1  UNL1        0.0734
     12 C           6.0938   -1.7753   33.4326 C.ar    1  UNL1        0.0203
     13 C           6.2063   -2.1380   31.9814 C.ar    1  UNL1        0.0893
     14 CL          6.1609   -3.5776   31.5624 Cl      1  UNL1       -0.0793
     15 C           6.0266    0.0270   35.3026 C.2     1  UNL1        0.2476
     16 O           7.2611    0.1257   36.1489 O.2     1  UNL1       -0.2701
     17 N           4.6796    0.2909   35.9075 N.am    1  UNL1       -0.2969
     18 H           3.8694    0.2261   35.3520 H       1  UNL1        0.1501
     19 C           4.5671    0.6536   37.3586 C.3     1  UNL1        0.1167
     20 C           3.2781    1.1996   37.8974 C.ar    1  UNL1       -0.0002
     21 C           2.5112    0.4294   38.9311 C.ar    1  UNL1       -0.0002
     22 C           1.2222    0.9754   39.4700 C.ar    1  UNL1        0.0317
     23 C           0.7000    2.2916   38.9751 C.ar    1  UNL1        0.1674
     24 F          -0.5890    2.8375   39.5140 F       1  UNL1       -0.2018
     25 C           1.4669    3.0619   37.9414 C.ar    1  UNL1        0.1671
     26 F           0.9448    4.3781   37.4465 F       1  UNL1       -0.2018
     27 C           2.7559    2.5159   37.4025 C.ar    1  UNL1        0.0293
     28 C           6.8143   -2.5118   25.1446 C.3     1  UNL1        0.0603
     29 C           6.5021   -3.9081   24.6942 C.3     1  UNL1        0.0333
     30 C           6.6146   -4.2708   23.2431 C.3     1  UNL1        0.0738
     31 N           7.0393   -3.2372   22.2423 N.3     1  UNL1       -0.2689
     32 C           7.3515   -1.8409   22.6928 C.3     1  UNL1        0.0738
     33 C           7.2389   -1.4782   24.1440 C.3     1  UNL1        0.0333
     34 C           7.1518   -3.5999   20.7912 C.3     1  UNL1        0.0991
     35 C           6.2709   -2.9283   19.7798 C.ar    1  UNL1       -0.0061
     36 C           6.8758   -2.0571   18.7192 C.ar    1  UNL1       -0.0021
     37 C           5.9949   -1.3855   17.7077 C.ar    1  UNL1        0.0111
     38 C           4.5091   -1.5852   17.7569 C.ar    1  UNL1        0.0577
     39 CL          3.6282   -0.9136   16.7455 Cl      1  UNL1       -0.0822
     40 C           3.9042   -2.4564   18.8176 C.ar    1  UNL1        0.0111
     41 C           4.7851   -3.1280   19.8290 C.ar    1  UNL1       -0.0021
@<TRIPOS>BOND
     1     2     1    1
     2     2     3    1
     3     3     4    1
     4     4     8    1
     5     8     9   ar
     6     9    10   ar
     7    10    11   ar
     8    11    15    1
     9    15    16    2
    10    15    17   am
    11    17    19    1
    12    19    20    1
    13    20    21   ar
    14    21    22   ar
    15    22    23   ar
    16    23    24    1
    17    23    25   ar
    18    25    26    1
    19    25    27   ar
    20    11    12   ar
    21    12    13   ar
    22    13    14    1
    23     4     5    1
    24     5     6    1
    25     6     7    1
    26     7    28    1
    27    28    29    1
    28    29    30    1
    29    30    31    1
    30    31    34    1
    31    34    35    1
    32    35    36   ar
    33    36    37   ar
    34    37    38   ar
    35    38    39    1
    36    38    40   ar
    37    40    41   ar
    38    31    32    1
    39    32    33    1
    40     7     2    1
    41    33    28    1
    42    13     8   ar
    43    41    35   ar
    44    27    20   ar
    45    17    18    1
@<TRIPOS>MOLECULE
*****
 41 45 0 0 0
SMALL
GASTEIGER

@<TRIPOS>ATOM
      1 C          -6.5837    4.0886   20.0631 C.3     1  UNL1        0.0191
      2 C          -5.2728    4.1910   20.7851 C.3     1  UNL1        0.0774
      3 C          -4.0294    3.6246   20.1661 C.3     1  UNL1        0.1081
      4 N          -2.7186    3.7270   20.8881 N.pl3   1  UNL1       -0.2898
      5 C          -2.6512    4.3958   22.2290 C.3     1  UNL1        0.1095
      6 C          -3.8945    4.9622   22.8480 C.3     1  UNL1        0.0938
      7 N          -5.2054    4.8598   22.1260 N.3     1  UNL1       -0.2721
      8 C          -1.4752    3.1606   20.2690 C.ar    1  UNL1        0.1424
      9 N          -0.8980    1.8763   20.7862 N.ar    1  UNL1       -0.2281
     10 C           0.3454    1.3099   20.1672 C.ar    1  UNL1        0.1048
     11 C           1.0116    2.0277   19.0310 C.ar    1  UNL1        0.0734
     12 C           0.4344    3.3120   18.5138 C.ar    1  UNL1        0.0203
     13 C          -0.8091    3.8784   19.1328 C.ar    1  UNL1        0.0893
     14 CL         -1.3863    5.1627   18.6156 Cl      1  UNL1       -0.0793
     15 C           2.2550    1.4613   18.4120 C.2     1  UNL1        0.2476
     16 O           3.4653    2.3288   18.2320 O.2     1  UNL1       -0.2701
     17 N           2.2880    0.0274   17.9731 N.am    1  UNL1       -0.2969
     18 H           1.4936   -0.5420   18.0912 H       1  UNL1        0.1501
     19 C           3.5313   -0.5391   17.3541 C.3     1  UNL1        0.1167
     20 C           4.3993   -1.4776   18.1389 C.ar    1  UNL1       -0.0002
     21 C           5.8849   -1.4754   17.9320 C.ar    1  UNL1       -0.0002
     22 C           6.7528   -2.4139   18.7168 C.ar    1  UNL1        0.0317
     23 C           6.1351   -3.3547   19.7084 C.ar    1  UNL1        0.1674
     24 F           7.0030   -4.2932   20.4932 F       1  UNL1       -0.2018
     25 C           4.6494   -3.3569   19.9153 C.ar    1  UNL1        0.1671
     26 F           4.0317   -4.2977   20.9069 F       1  UNL1       -0.2018
     27 C           3.7815   -2.4184   19.1305 C.ar    1  UNL1        0.0293
     28 C          -6.4488    5.4262   22.7450 C.3     1  UNL1        0.0603
     29 C          -7.2859    4.5786   23.6565 C.3     1  UNL1        0.0333
     30 C          -8.5293    5.1449   24.2756 C.3     1  UNL1        0.0738
     31 N          -8.9356    6.5589   23.9831 N.3     1  UNL1       -0.2689
     32 C          -8.0985    7.4066   23.0716 C.3     1  UNL1        0.0738
     33 C          -6.8551    6.8401   22.4526 C.3     1  UNL1        0.0333
     34 C         -10.1790    7.1253   24.6021 C.3     1  UNL1        0.0991
     35 C         -11.5217    6.5684   24.2321 C.ar    1  UNL1       -0.0061
     36 C         -11.9824    5.2679   24.8207 C.ar    1  UNL1       -0.0021
     37 C         -13.3251    4.7110   24.4506 C.ar    1  UNL1        0.0111
     38 C         -14.2071    5.4546   23.4919 C.ar    1  UNL1        0.0577
     39 CL        -15.5498    4.8977   23.1218 Cl      1  UNL1       -0.0822
     40 C         -13.7464    6.7550   22.9033 C.ar    1  UNL1        0.0111
     41 C         -12.4037    7.3119   23.2734 C.ar    1  UNL1       -0.0021
@<TRIPOS>BOND
     1     2     1    1
     2     2     3    1
     3     3     4    1
     4     4     8    1
     5     8     9   ar
     6     9    10   ar
     7    10    11   ar
     8    11    15    1
     9    15    16    2
    10    15    17   am
    11    17    19    1
    12    19    20    1
    13    20    21   ar
    14    21    22   ar
    15    22    23   ar
    16    23    24    1
    17    23    25   ar
    18    25    26    1
    19    25    27   ar
    20    11    12   ar
    21    12    13   ar
    22    13    14    1
    23     4     5    1
    24     5     6    1
    25     6     7    1
    26     7    28    1
    27    28    29    1
    28    29    30    1
    29    30    31    1
    30    31    34    1
    31    34    35    1
    32    35    36   ar
    33    36    37   ar
    34    37    38   ar
    35    38    39    1
    36    38    40   ar
    37    40    41   ar
    38    31    32    1
    39    32    33    1
    40     7     2    1
    41    33    28    1
    42    13     8   ar
    43    41    35   ar
    44    27    20   ar
    45    17    18    1
@<TRIPOS>MOLECULE
*****
 41 45 0 0 0
SMALL
GASTEIGER

@<TRIPOS>ATOM
      1 C           3.3784   -0.4666   31.3938 C.3     1  UNL1        0.0191
      2 C           4.7484   -0.7625   30.8594 C.3     1  UNL1        0.0774
      3 C           4.9133   -1.2664   29.4563 C.3     1  UNL1        0.1081
      4 N           6.2833   -1.5623   28.9218 N.pl3   1  UNL1       -0.2898
      5 C           7.4883   -1.3542   29.7904 C.3     1  UNL1        0.1095
      6 C           7.3234   -0.8502   31.1935 C.3     1  UNL1        0.0938
      7 N           5.9534   -0.5543   31.7280 N.3     1  UNL1       -0.2721
      8 C           6.4482   -2.0663   27.5186 C.ar    1  UNL1        0.1424
      9 N           6.5409   -1.0954   26.3790 N.ar    1  UNL1       -0.2281
     10 C           6.7058   -1.5993   24.9759 C.ar    1  UNL1        0.1048
     11 C           6.7781   -3.0743   24.7123 C.ar    1  UNL1        0.0734
     12 C           6.6853   -4.0452   25.8519 C.ar    1  UNL1        0.0203
     13 C           6.5204   -3.5412   27.2551 C.ar    1  UNL1        0.0893
     14 CL          6.4277   -4.5121   28.3947 Cl      1  UNL1       -0.0793
     15 C           6.9430   -3.5782   23.3092 C.2     1  UNL1        0.2476
     16 O           7.0749   -5.0500   23.0516 O.2     1  UNL1       -0.2701
     17 N           6.9759   -2.6104   22.1637 N.am    1  UNL1       -0.2969
     18 H           6.8893   -1.6444   22.3328 H       1  UNL1        0.1501
     19 C           7.1408   -3.1143   20.7606 C.3     1  UNL1        0.1167
     20 C           6.3152   -2.5311   19.6523 C.ar    1  UNL1       -0.0002
     21 C           4.8830   -2.9446   19.4866 C.ar    1  UNL1       -0.0002
     22 C           4.0573   -2.3615   18.3783 C.ar    1  UNL1        0.0317
     23 C           4.6640   -1.3648   17.4357 C.ar    1  UNL1        0.1674
     24 F           3.8384   -0.7816   16.3275 F       1  UNL1       -0.2018
     25 C           6.0964   -0.9512   17.6014 C.ar    1  UNL1        0.1671
     26 F           6.7031    0.0455   16.6588 F       1  UNL1       -0.2018
     27 C           6.9220   -1.5344   18.7097 C.ar    1  UNL1        0.0293
     28 C           5.7885   -0.0503   33.1312 C.3     1  UNL1        0.0603
     29 C           5.4593   -1.0076   34.2381 C.3     1  UNL1        0.0333
     30 C           5.2944   -0.5037   35.6412 C.3     1  UNL1        0.0738
     31 N           5.4586    0.9576   35.9375 N.3     1  UNL1       -0.2689
     32 C           5.7878    1.9149   34.8306 C.3     1  UNL1        0.0738
     33 C           5.9527    1.4109   33.4274 C.3     1  UNL1        0.0333
     34 C           5.2937    1.4616   37.3406 C.3     1  UNL1        0.0991
     35 C           3.9219    1.7305   37.8846 C.ar    1  UNL1       -0.0061
     36 C           3.2045    0.6710   38.6673 C.ar    1  UNL1       -0.0021
     37 C           1.8327    0.9400   39.2112 C.ar    1  UNL1        0.0111
     38 C           1.1784    2.2684   38.9725 C.ar    1  UNL1        0.0577
     39 CL         -0.1934    2.5374   39.5164 Cl      1  UNL1       -0.0822
     40 C           1.8958    3.3279   38.1898 C.ar    1  UNL1        0.0111
     41 C           3.2676    3.0590   37.6458 C.ar    1  UNL1       -0.0021
@<TRIPOS>BOND
     1     2     1    1
     2     2     3    1
     3     3     4    1
     4     4     8    1
     5     8     9   ar
     6     9    10   ar
     7    10    11   ar
     8    11    15    1
     9    15    16    2
    10    15    17   am
    11    17    19    1
    12    19    20    1
    13    20    21   ar
    14    21    22   ar
    15    22    23   ar
    16    23    24    1
    17    23    25   ar
    18    25    26    1
    19    25    27   ar
    20    11    12   ar
    21    12    13   ar
    22    13    14    1
    23     4     5    1
    24     5     6    1
    25     6     7    1
    26     7    28    1
    27    28    29    1
    28    29    30    1
    29    30    31    1
    30    31    34    1
    31    34    35    1
    32    35    36   ar
    33    36    37   ar
    34    37    38   ar
    35    38    39    1
    36    38    40   ar
    37    40    41   ar
    38    31    32    1
    39    32    33    1
    40     7     2    1
    41    33    28    1
    42    13     8   ar
    43    41    35   ar
    44    27    20   ar
    45    17    18    1
@<TRIPOS>MOLECULE
*****
 41 45 0 0 0
SMALL
GASTEIGER

@<TRIPOS>ATOM
      1 C           3.2050    3.0996   24.7745 C.3     1  UNL1        0.0191
      2 C           2.2927    2.3574   25.7055 C.3     1  UNL1        0.0774
      3 C           2.7980    1.8940   27.0396 C.3     1  UNL1        0.1081
      4 N           1.8858    1.1517   27.9706 N.pl3   1  UNL1       -0.2898
      5 C           0.4681    0.8729   27.5676 C.3     1  UNL1        0.1095
      6 C          -0.0372    1.3362   26.2335 C.3     1  UNL1        0.0938
      7 N           0.8751    2.0785   25.3024 N.3     1  UNL1       -0.2721
      8 C           2.3912    0.6883   29.3048 C.ar    1  UNL1        0.1424
      9 N           2.0183    1.4377   30.5495 N.ar    1  UNL1       -0.2281
     10 C           2.5236    0.9743   31.8836 C.ar    1  UNL1        0.1048
     11 C           3.4020   -0.2384   31.9730 C.ar    1  UNL1        0.0734
     12 C           3.7749   -0.9877   30.7283 C.ar    1  UNL1        0.0203
     13 C           3.2695   -0.5243   29.3941 C.ar    1  UNL1        0.0893
     14 CL          3.6424   -1.2736   28.1494 Cl      1  UNL1       -0.0793
     15 C           3.9073   -0.7017   33.3071 C.2     1  UNL1        0.2476
     16 O           3.9112   -2.1640   33.6410 O.2     1  UNL1       -0.2701
     17 N           4.4089    0.2973   34.3074 N.am    1  UNL1       -0.2969
     18 H           4.4064    1.2571   34.0882 H       1  UNL1        0.1501
     19 C           4.9143   -0.1660   35.6415 C.3     1  UNL1        0.1167
     20 C           4.8678    0.7571   36.8229 C.ar    1  UNL1       -0.0002
     21 C           6.1296    1.3897   37.3305 C.ar    1  UNL1       -0.0002
     22 C           6.0832    2.3127   38.5119 C.ar    1  UNL1        0.0317
     23 C           4.7750    2.6032   39.1858 C.ar    1  UNL1        0.1674
     24 F           4.7285    3.5263   40.3672 F       1  UNL1       -0.2018
     25 C           3.5131    1.9706   38.6782 C.ar    1  UNL1        0.1671
     26 F           2.2049    2.2611   39.3521 F       1  UNL1       -0.2018
     27 C           3.5595    1.0475   37.4968 C.ar    1  UNL1        0.0293
     28 C           0.3696    2.5419   23.9683 C.3     1  UNL1        0.0603
     29 C          -0.2917    3.8822   23.8411 C.3     1  UNL1        0.0333
     30 C          -0.7972    4.3456   22.5071 C.3     1  UNL1        0.0738
     31 N          -0.6412    3.4687   21.3001 N.3     1  UNL1       -0.2689
     32 C           0.0202    2.1284   21.4272 C.3     1  UNL1        0.0738
     33 C           0.5256    1.6650   22.7614 C.3     1  UNL1        0.0333
     34 C          -1.1466    3.9321   19.9660 C.3     1  UNL1        0.0991
     35 C          -2.6012    3.7953   19.6263 C.ar    1  UNL1       -0.0061
     36 C          -3.5785    3.3563   20.6761 C.ar    1  UNL1       -0.0021
     37 C          -5.0331    3.2195   20.3363 C.ar    1  UNL1        0.0111
     38 C          -5.5104    3.5217   18.9468 C.ar    1  UNL1        0.0577
     39 CL         -6.9650    3.3849   18.6071 Cl      1  UNL1       -0.0822
     40 C          -4.5331    3.9607   17.8970 C.ar    1  UNL1        0.0111
     41 C          -3.0785    4.0975   18.2368 C.ar    1  UNL1       -0.0021
@<TRIPOS>BOND
     1     2     1    1
     2     2     3    1
     3     3     4    1
     4     4     8    1
     5     8     9   ar
     6     9    10   ar
     7    10    11   ar
     8    11    15    1
     9    15    16    2
    10    15    17   am
    11    17    19    1
    12    19    20    1
    13    20    21   ar
    14    21    22   ar
    15    22    23   ar
    16    23    24    1
    17    23    25   ar
    18    25    26    1
    19    25    27   ar
    20    11    12   ar
    21    12    13   ar
    22    13    14    1
    23     4     5    1
    24     5     6    1
    25     6     7    1
    26     7    28    1
    27    28    29    1
    28    29    30    1
    29    30    31    1
    30    31    34    1
    31    34    35    1
    32    35    36   ar
    33    36    37   ar
    34    37    38   ar
    35    38    39    1
    36    38    40   ar
    37    40    41   ar
    38    31    32    1
    39    32    33    1
    40     7     2    1
    41    33    28    1
    42    13     8   ar
    43    41    35   ar
    44    27    20   ar
    45    17    18    1
@<TRIPOS>MOLECULE
*****
 41 45 0 0 0
SMALL
GASTEIGER

@<TRIPOS>ATOM
      1 C           3.3921    4.6387   30.9321 C.3     1  UNL1        0.0191
      2 C           2.3451    3.6842   30.4394 C.3     1  UNL1        0.0774
      3 C           2.1971    3.4269   28.9691 C.3     1  UNL1        0.1081
      4 N           1.1501    2.4724   28.4764 N.pl3   1  UNL1       -0.2898
      5 C           0.2511    1.7752   29.4540 C.3     1  UNL1        0.1095
      6 C           0.3991    2.0326   30.9243 C.3     1  UNL1        0.0938
      7 N           1.4461    2.9871   31.4170 N.3     1  UNL1       -0.2721
      8 C           1.0021    2.2151   27.0060 C.ar    1  UNL1        0.1424
      9 N           0.0397    3.0311   26.1950 N.ar    1  UNL1       -0.2281
     10 C          -0.1083    2.7739   24.7247 C.ar    1  UNL1        0.1048
     11 C           0.7061    1.7005   24.0653 C.ar    1  UNL1        0.0734
     12 C           1.6685    0.8845   24.8764 C.ar    1  UNL1        0.0203
     13 C           1.8165    1.1418   26.3468 C.ar    1  UNL1        0.0893
     14 CL          2.7789    0.3257   27.1578 Cl      1  UNL1       -0.0793
     15 C           0.5581    1.4433   22.5950 C.2     1  UNL1        0.2476
     16 O          -0.5294    2.1263   21.8199 O.2     1  UNL1       -0.2701
     17 N           1.4976    0.5030   21.8998 N.am    1  UNL1       -0.2969
     18 H           2.2113    0.0547   22.4086 H       1  UNL1        0.1501
     19 C           1.3495    0.2457   20.4295 C.3     1  UNL1        0.1167
     20 C           2.3766   -0.5722   19.7041 C.ar    1  UNL1       -0.0002
     21 C           2.9219   -1.8202   20.3325 C.ar    1  UNL1       -0.0002
     22 C           3.9489   -2.6381   19.6071 C.ar    1  UNL1        0.0317
     23 C           4.4306   -2.2080   18.2533 C.ar    1  UNL1        0.1674
     24 F           5.4577   -3.0259   17.5278 F       1  UNL1       -0.2018
     25 C           3.8853   -0.9599   17.6248 C.ar    1  UNL1        0.1671
     26 F           4.3670   -0.5298   16.2709 F       1  UNL1       -0.2018
     27 C           2.8583   -0.1420   18.3502 C.ar    1  UNL1        0.0293
     28 C           1.5941    3.2444   32.8874 C.3     1  UNL1        0.0603
     29 C           2.3192    2.2565   33.7524 C.3     1  UNL1        0.0333
     30 C           2.4672    2.5137   35.2227 C.3     1  UNL1        0.0738
     31 N           1.8900    3.7589   35.8281 N.3     1  UNL1       -0.2689
     32 C           1.1649    4.7469   34.9631 C.3     1  UNL1        0.0738
     33 C           1.0170    4.4895   33.4927 C.3     1  UNL1        0.0333
     34 C           2.0380    4.0162   37.2984 C.3     1  UNL1        0.0991
     35 C           3.3756    3.8533   37.9574 C.ar    1  UNL1       -0.0061
     36 C           4.3981    4.9464   37.8595 C.ar    1  UNL1       -0.0021
     37 C           5.7357    4.7835   38.5185 C.ar    1  UNL1        0.0111
     38 C           6.0508    3.5275   39.2754 C.ar    1  UNL1        0.0577
     39 CL          7.3884    3.3646   39.9345 Cl      1  UNL1       -0.0822
     40 C           5.0284    2.4343   39.3733 C.ar    1  UNL1        0.0111
     41 C           3.6908    2.5972   38.7143 C.ar    1  UNL1       -0.0021
@<TRIPOS>BOND
     1     2     1    1
     2     2     3    1
     3     3     4    1
     4     4     8    1
     5     8     9   ar
     6     9    10   ar
     7    10    11   ar
     8    11    15    1
     9    15    16    2
    10    15    17   am
    11    17    19    1
    12    19    20    1
    13    20    21   ar
    14    21    22   ar
    15    22    23   ar
    16    23    24    1
    17    23    25   ar
    18    25    26    1
    19    25    27   ar
    20    11    12   ar
    21    12    13   ar
    22    13    14    1
    23     4     5    1
    24     5     6    1
    25     6     7    1
    26     7    28    1
    27    28    29    1
    28    29    30    1
    29    30    31    1
    30    31    34    1
    31    34    35    1
    32    35    36   ar
    33    36    37   ar
    34    37    38   ar
    35    38    39    1
    36    38    40   ar
    37    40    41   ar
    38    31    32    1
    39    32    33    1
    40     7     2    1
    41    33    28    1
    42    13     8   ar
    43    41    35   ar
    44    27    20   ar
    45    17    18    1
@<TRIPOS>MOLECULE
*****
 41 45 0 0 0
SMALL
GASTEIGER

@<TRIPOS>ATOM
      1 C           3.2042    3.1467   24.8036 C.3     1  UNL1        0.0191
      2 C           2.2964    2.3996   25.7353 C.3     1  UNL1        0.0774
      3 C           2.8011    1.9506   27.0745 C.3     1  UNL1        0.1081
      4 N           1.8934    1.2035   28.0061 N.pl3   1  UNL1       -0.2898
      5 C           0.4809    0.9056   27.5985 C.3     1  UNL1        0.1095
      6 C          -0.0238    1.3547   26.2593 C.3     1  UNL1        0.0938
      7 N           0.8840    2.1017   25.3277 N.3     1  UNL1       -0.2721
      8 C           2.3981    0.7545   29.3454 C.ar    1  UNL1        0.1424
      9 N           3.1441   -0.5410   29.4699 N.ar    1  UNL1       -0.2281
     10 C           3.6488   -0.9901   30.8091 C.ar    1  UNL1        0.1048
     11 C           3.4077   -0.1437   32.0239 C.ar    1  UNL1        0.0734
     12 C           2.6617    1.1517   31.8994 C.ar    1  UNL1        0.0203
     13 C           2.1570    1.6008   30.5601 C.ar    1  UNL1        0.0893
     14 CL          1.4110    2.8962   30.4356 Cl      1  UNL1       -0.0793
     15 C           3.9124   -0.5928   33.3631 C.2     1  UNL1        0.2476
     16 O           3.9025   -2.0501   33.7181 O.2     1  UNL1       -0.2701
     17 N           4.4271    0.4154   34.3473 N.am    1  UNL1       -0.2969
     18 H           4.4336    1.3719   34.1142 H       1  UNL1        0.1501
     19 C           4.9319   -0.0337   35.6864 C.3     1  UNL1        0.1167
     20 C           4.8635    0.8938   36.8633 C.ar    1  UNL1       -0.0002
     21 C           6.1252    1.4466   37.4569 C.ar    1  UNL1       -0.0002
     22 C           6.0568    2.3741   38.6338 C.ar    1  UNL1        0.0317
     23 C           4.7267    2.7488   39.2171 C.ar    1  UNL1        0.1674
     24 F           4.6583    3.6764   40.3940 F       1  UNL1       -0.2018
     25 C           3.4649    2.1961   38.6235 C.ar    1  UNL1        0.1671
     26 F           2.1347    2.5708   39.2068 F       1  UNL1       -0.2018
     27 C           3.5333    1.2686   37.4466 C.ar    1  UNL1        0.0293
     28 C           0.3792    2.5508   23.9884 C.3     1  UNL1        0.0603
     29 C           0.5326    1.6594   22.7917 C.3     1  UNL1        0.0333
     30 C           0.0278    2.1084   21.4525 C.3     1  UNL1        0.0738
     31 N          -0.6303    3.4489   21.3099 N.3     1  UNL1       -0.2689
     32 C          -0.7836    4.3402   22.5065 C.3     1  UNL1        0.0738
     33 C          -0.2789    3.8911   23.8458 C.3     1  UNL1        0.0333
     34 C          -1.1350    3.8979   19.9706 C.3     1  UNL1        0.0991
     35 C          -2.5923    3.7732   19.6380 C.ar    1  UNL1       -0.0061
     36 C          -3.0743    4.0820   18.2516 C.ar    1  UNL1       -0.0021
     37 C          -4.5316    3.9573   17.9190 C.ar    1  UNL1        0.0111
     38 C          -5.5070    3.5239   18.9729 C.ar    1  UNL1        0.0577
     39 CL         -6.9644    3.3992   18.6403 Cl      1  UNL1       -0.0822
     40 C          -5.0251    3.2151   20.3593 C.ar    1  UNL1        0.0111
     41 C          -3.5677    3.3398   20.6919 C.ar    1  UNL1       -0.0021
@<TRIPOS>BOND
     1     2     1    1
     2     2     3    1
     3     3     4    1
     4     4     8    1
     5     8     9   ar
     6     9    10   ar
     7    10    11   ar
     8    11    15    1
     9    15    16    2
    10    15    17   am
    11    17    19    1
    12    19    20    1
    13    20    21   ar
    14    21    22   ar
    15    22    23   ar
    16    23    24    1
    17    23    25   ar
    18    25    26    1
    19    25    27   ar
    20    11    12   ar
    21    12    13   ar
    22    13    14    1
    23     4     5    1
    24     5     6    1
    25     6     7    1
    26     7    28    1
    27    28    29    1
    28    29    30    1
    29    30    31    1
    30    31    34    1
    31    34    35    1
    32    35    36   ar
    33    36    37   ar
    34    37    38   ar
    35    38    39    1
    36    38    40   ar
    37    40    41   ar
    38    31    32    1
    39    32    33    1
    40     7     2    1
    41    33    28    1
    42    13     8   ar
    43    41    35   ar
    44    27    20   ar
    45    17    18    1
@<TRIPOS>MOLECULE
*****
 41 45 0 0 0
SMALL
GASTEIGER

@<TRIPOS>ATOM
      1 C           4.4724    2.6611   30.0550 C.3     1  UNL1        0.0191
      2 C           3.3764    1.8107   29.4844 C.3     1  UNL1        0.0774
      3 C           2.8935    2.0495   28.0845 C.3     1  UNL1        0.1081
      4 N           1.7974    1.1991   27.5139 N.pl3   1  UNL1       -0.2898
      5 C           1.1843    0.1100   28.3432 C.3     1  UNL1        0.1095
      6 C           1.6671   -0.1287   29.7431 C.3     1  UNL1        0.0938
      7 N           2.7632    0.7216   30.3137 N.3     1  UNL1       -0.2721
      8 C           1.3146    1.4379   26.1139 C.ar    1  UNL1        0.1424
      9 N           0.1440    2.3431   25.8685 N.ar    1  UNL1       -0.2281
     10 C          -0.3389    2.5819   24.4686 C.ar    1  UNL1        0.1048
     11 C           0.3489    1.9156   23.3140 C.ar    1  UNL1        0.0734
     12 C           1.5195    1.0104   23.5594 C.ar    1  UNL1        0.0203
     13 C           2.0024    0.7716   24.9594 C.ar    1  UNL1        0.0893
     14 CL          3.1730   -0.1336   25.2048 Cl      1  UNL1       -0.0793
     15 C          -0.1340    2.1544   21.9141 C.2     1  UNL1        0.2476
     16 O          -0.0643    1.0527   20.8985 O.2     1  UNL1       -0.2701
     17 N          -0.6865    3.4949   21.5297 N.am    1  UNL1       -0.2969
     18 H          -0.7323    4.2180   22.1963 H       1  UNL1        0.1501
     19 C          -1.1694    3.7337   20.1298 C.3     1  UNL1        0.1167
     20 C          -2.6360    3.6713   19.8214 C.ar    1  UNL1       -0.0002
     21 C          -3.6079    3.2453   20.8816 C.ar    1  UNL1       -0.0002
     22 C          -5.0745    3.1829   20.5732 C.ar    1  UNL1        0.0317
     23 C          -5.5693    3.5466   19.2046 C.ar    1  UNL1        0.1674
     24 F          -7.0359    3.4842   18.8962 F       1  UNL1       -0.2018
     25 C          -4.5974    3.9726   18.1444 C.ar    1  UNL1        0.1671
     26 F          -5.0921    4.3363   16.7759 F       1  UNL1       -0.2018
     27 C          -3.1308    4.0350   18.4528 C.ar    1  UNL1        0.0293
     28 C           3.2460    0.4828   31.7137 C.3     1  UNL1        0.0603
     29 C           4.0044   -0.7689   32.0422 C.3     1  UNL1        0.0333
     30 C           4.4872   -1.0078   33.4421 C.3     1  UNL1        0.0738
     31 N           4.2117    0.0052   34.5136 N.3     1  UNL1       -0.2689
     32 C           3.4533    1.2570   34.1851 C.3     1  UNL1        0.0738
     33 C           2.9705    1.4958   32.7851 C.3     1  UNL1        0.0333
     34 C           4.6945   -0.2336   35.9135 C.3     1  UNL1        0.0991
     35 C           4.5932    0.8571   36.9382 C.ar    1  UNL1       -0.0061
     36 C           5.7221    1.8291   37.1131 C.ar    1  UNL1       -0.0021
     37 C           5.6207    2.9199   38.1378 C.ar    1  UNL1        0.0111
     38 C           4.3904    3.0387   38.9876 C.ar    1  UNL1        0.0577
     39 CL          4.2890    4.1294   40.0122 Cl      1  UNL1       -0.0822
     40 C           3.2614    2.0667   38.8126 C.ar    1  UNL1        0.0111
     41 C           3.3628    0.9759   37.7879 C.ar    1  UNL1       -0.0021
@<TRIPOS>BOND
     1     2     1    1
     2     2     3    1
     3     3     4    1
     4     4     8    1
     5     8     9   ar
     6     9    10   ar
     7    10    11   ar
     8    11    15    1
     9    15    16    2
    10    15    17   am
    11    17    19    1
    12    19    20    1
    13    20    21   ar
    14    21    22   ar
    15    22    23   ar
    16    23    24    1
    17    23    25   ar
    18    25    26    1
    19    25    27   ar
    20    11    12   ar
    21    12    13   ar
    22    13    14    1
    23     4     5    1
    24     5     6    1
    25     6     7    1
    26     7    28    1
    27    28    29    1
    28    29    30    1
    29    30    31    1
    30    31    34    1
    31    34    35    1
    32    35    36   ar
    33    36    37   ar
    34    37    38   ar
    35    38    39    1
    36    38    40   ar
    37    40    41   ar
    38    31    32    1
    39    32    33    1
    40     7     2    1
    41    33    28    1
    42    13     8   ar
    43    41    35   ar
    44    27    20   ar
    45    17    18    1
@<TRIPOS>MOLECULE
*****
 41 45 0 0 0
SMALL
GASTEIGER

@<TRIPOS>ATOM
      1 C           6.8423   -0.0124   25.8761 C.3     1  UNL1        0.0191
      2 C           5.6848   -0.2568   26.7984 C.3     1  UNL1        0.0774
      3 C           5.7472    0.2142   28.2211 C.3     1  UNL1        0.1081
      4 N           4.5897   -0.0301   29.1435 N.pl3   1  UNL1       -0.2898
      5 C           3.3700   -0.7454   28.6430 C.3     1  UNL1        0.1095
      6 C           3.3077   -1.2164   27.2203 C.3     1  UNL1        0.0938
      7 N           4.4651   -0.9721   26.2980 N.3     1  UNL1       -0.2721
      8 C           4.6521    0.4409   30.5663 C.ar    1  UNL1        0.1424
      9 N           4.2765    1.8528   30.9060 N.ar    1  UNL1       -0.2281
     10 C           4.3388    2.3239   32.3287 C.ar    1  UNL1        0.1048
     11 C           4.7768    1.3830   33.4118 C.ar    1  UNL1        0.0734
     12 C           5.1524   -0.0289   33.0721 C.ar    1  UNL1        0.0203
     13 C           5.0901   -0.4999   31.6493 C.ar    1  UNL1        0.0893
     14 CL          5.4657   -1.9118   31.3095 Cl      1  UNL1       -0.0793
     15 C           4.8391    1.8541   34.8345 C.2     1  UNL1        0.2476
     16 O           4.4352    3.2571   35.1783 O.2     1  UNL1       -0.2701
     17 N           5.3054    0.9221   35.9134 N.am    1  UNL1       -0.2969
     18 H           5.5705    0.0012   35.6877 H       1  UNL1        0.1501
     19 C           5.3677    1.3932   37.3361 C.3     1  UNL1        0.1167
     20 C           4.1021    1.6973   38.0816 C.ar    1  UNL1       -0.0002
     21 C           3.8648    3.0749   38.6257 C.ar    1  UNL1       -0.0002
     22 C           2.5992    3.3791   39.3711 C.ar    1  UNL1        0.0317
     23 C           1.5709    2.3057   39.5726 C.ar    1  UNL1        0.1674
     24 F           0.3053    2.6099   40.3180 F       1  UNL1       -0.2018
     25 C           1.8083    0.9281   39.0285 C.ar    1  UNL1        0.1671
     26 F           0.7800   -0.1452   39.2299 F       1  UNL1       -0.2018
     27 C           3.0738    0.6239   38.2830 C.ar    1  UNL1        0.0293
     28 C           4.4027   -1.4431   24.8752 C.3     1  UNL1        0.0603
     29 C           5.2254   -2.6186   24.4376 C.3     1  UNL1        0.0333
     30 C           5.1631   -3.0897   23.0149 C.3     1  UNL1        0.0738
     31 N           4.2781   -2.3852   22.0296 N.3     1  UNL1       -0.2689
     32 C           3.4554   -1.2097   22.4672 C.3     1  UNL1        0.0738
     33 C           3.5178   -0.7387   23.8900 C.3     1  UNL1        0.0333
     34 C           4.2157   -2.8563   20.6069 C.3     1  UNL1        0.0991
     35 C           4.7218   -1.9762   19.5026 C.ar    1  UNL1       -0.0061
     36 C           6.1644   -1.5666   19.4715 C.ar    1  UNL1       -0.0021
     37 C           6.6705   -0.6865   18.3672 C.ar    1  UNL1        0.0111
     38 C           5.7340   -0.2162   17.2941 C.ar    1  UNL1        0.0577
     39 CL          6.2401    0.6638   16.1898 Cl      1  UNL1       -0.0822
     40 C           4.2914   -0.6259   17.3252 C.ar    1  UNL1        0.0111
     41 C           3.7853   -1.5059   18.4295 C.ar    1  UNL1       -0.0021
@<TRIPOS>BOND
     1     2     1    1
     2     2     3    1
     3     3     4    1
     4     4     8    1
     5     8     9   ar
     6     9    10   ar
     7    10    11   ar
     8    11    15    1
     9    15    16    2
    10    15    17   am
    11    17    19    1
    12    19    20    1
    13    20    21   ar
    14    21    22   ar
    15    22    23   ar
    16    23    24    1
    17    23    25   ar
    18    25    26    1
    19    25    27   ar
    20    11    12   ar
    21    12    13   ar
    22    13    14    1
    23     4     5    1
    24     5     6    1
    25     6     7    1
    26     7    28    1
    27    28    29    1
    28    29    30    1
    29    30    31    1
    30    31    34    1
    31    34    35    1
    32    35    36   ar
    33    36    37   ar
    34    37    38   ar
    35    38    39    1
    36    38    40   ar
    37    40    41   ar
    38    31    32    1
    39    32    33    1
    40     7     2    1
    41    33    28    1
    42    13     8   ar
    43    41    35   ar
    44    27    20   ar
    45    17    18    1
