@<TRIPOS>MOLECULE
*****
 42 46 0 0 0
SMALL
GASTEIGER

@<TRIPOS>ATOM
      1 C           4.7059   -1.1447   32.2606 C.ar    1  UNL1        0.2443
      2 N           3.5543   -0.1997   32.0853 N.ar    1  UNL1       -0.1953
      3 C           3.1682    0.2656   30.7125 C.ar    1  UNL1        0.1354
      4 C           3.9337   -0.2141   29.5151 C.ar    1  UNL1        0.0359
      5 C           5.0853   -1.1591   29.6904 C.ar    1  UNL1        0.0221
      6 C           5.4714   -1.6244   31.0631 C.ar    1  UNL1        0.1023
      7 N           6.6231   -2.5695   31.2384 N.pl3   1  UNL1       -0.3039
      8 C           6.7292   -3.9475   30.6556 C.3     1  UNL1        0.0910
      9 C           8.0425   -4.5322   31.0842 C.3     1  UNL1        0.0232
     10 C           8.7479   -3.5153   31.9320 C.3     1  UNL1        0.0232
     11 C           7.8706   -2.3024   32.0273 C.3     1  UNL1        0.0910
     12 N           2.0166    1.2106   30.5372 N.pl3   1  UNL1       -0.2955
     13 H           1.5877    1.6156   31.3254 H       1  UNL1        0.1537
     14 C           1.5184    1.5386   29.1609 C.ar    1  UNL1        0.0839
     15 C           2.1635    2.6395   28.3723 C.ar    1  UNL1        0.0190
     16 C           1.6652    2.9674   26.9960 C.ar    1  UNL1        0.0160
     17 C           0.5220    2.1944   26.4083 C.ar    1  UNL1        0.0510
     18 C          -0.1231    1.0935   27.1968 C.ar    1  UNL1        0.0527
     19 C           0.3751    0.7656   28.5731 C.ar    1  UNL1        0.1532
     20 N           0.0237    2.5224   25.0319 N.pl3   1  UNL1       -0.3046
     21 C           0.7778    2.0426   23.8272 C.3     1  UNL1        0.1081
     22 C           0.2797    2.3705   22.4509 C.3     1  UNL1        0.0938
     23 N          -0.9726    3.1782   22.2793 N.3     1  UNL1       -0.2686
     24 C          -1.4708    3.5061   20.9029 C.3     1  UNL1        0.0897
     25 C          -1.7267    3.6579   23.4839 C.3     1  UNL1        0.0938
     26 C          -1.2285    3.3300   24.8602 C.3     1  UNL1        0.1081
     27 O          -0.2700   -0.3353   29.3617 O.3     1  UNL1       -0.4701
     28 C          -1.6353   -0.8282   28.9835 C.3     1  UNL1        0.2525
     29 O           5.0920   -1.6100   33.6333 O.3     1  UNL1       -0.4350
     30 C           4.6649    0.4881   36.9748 C.ar    1  UNL1        0.0496
     31 C           4.4098   -0.5134   35.8877 C.ar    1  UNL1        0.0519
     32 C           5.3472   -0.6085   34.7205 C.ar    1  UNL1        0.1485
     33 C           6.5397    0.2979   34.6406 C.ar    1  UNL1        0.0373
     34 C           6.7948    1.2993   35.7277 C.ar    1  UNL1        0.0001
     35 C           5.8574    1.3944   36.8949 C.ar    1  UNL1       -0.0082
     36 C           6.1125    2.3959   37.9821 C.3     1  UNL1        0.0323
     37 C           2.4974    1.4364   38.0484 C.2     1  UNL1        0.2496
     38 O           2.2046    2.1946   36.7876 O.2     1  UNL1       -0.2698
     39 N           3.7274    0.5832   38.1420 N.am    1  UNL1       -0.2805
     40 H           3.9196    0.0856   38.9695 H       1  UNL1        0.1552
     41 C           1.0151    0.2830   39.8435 C.2     1  UNL1        0.0048
     42 C           1.5600    1.5315   39.2155 C.2     1  UNL1        0.0580
@<TRIPOS>BOND
     1    41    42    2
     2    42    37    1
     3    37    38    2
     4    37    39   am
     5    39    30    1
     6    30    31   ar
     7    31    32   ar
     8    32    29    1
     9    29     1    1
    10     1     2   ar
    11     2     3   ar
    12     3    12    1
    13    12    14    1
    14    14    15   ar
    15    15    16   ar
    16    16    17   ar
    17    17    20    1
    18    20    21    1
    19    21    22    1
    20    22    23    1
    21    23    24    1
    22    23    25    1
    23    25    26    1
    24    17    18   ar
    25    18    19   ar
    26    19    27    1
    27    27    28    1
    28     3     4   ar
    29     4     5   ar
    30     5     6   ar
    31     6     7    1
    32     7     8    1
    33     8     9    1
    34     9    10    1
    35    10    11    1
    36    32    33   ar
    37    33    34   ar
    38    34    35   ar
    39    35    36    1
    40    35    30   ar
    41     6     1   ar
    42    11     7    1
    43    19    14   ar
    44    26    20    1
    45    39    40    1
    46    12    13    1
@<TRIPOS>MOLECULE
*****
 42 46 0 0 0
SMALL
GASTEIGER

@<TRIPOS>ATOM
      1 C           3.6982    0.0099   22.9920 C.ar    1  UNL1        0.2443
      2 N           4.2797   -0.4737   24.2875 N.ar    1  UNL1       -0.1953
      3 C           4.7276   -1.8988   24.4229 C.ar    1  UNL1        0.1354
      4 C           4.5940   -2.8404   23.2629 C.ar    1  UNL1        0.0359
      5 C           4.0125   -2.3568   21.9675 C.ar    1  UNL1        0.0221
      6 C           3.5646   -0.9317   21.8321 C.ar    1  UNL1        0.1023
      7 N           2.9831   -0.4481   20.5366 N.pl3   1  UNL1       -0.3039
      8 C           3.7600   -0.0148   19.3289 C.3     1  UNL1        0.0910
      9 C           2.7797    0.3881   18.2673 C.3     1  UNL1        0.0232
     10 C           1.3971    0.2038   18.8191 C.3     1  UNL1        0.0232
     11 C           1.5228   -0.3131   20.2216 C.3     1  UNL1        0.0910
     12 N           5.3091   -2.3824   25.7183 N.pl3   1  UNL1       -0.2955
     13 H           5.9483   -3.1311   25.7218 H       1  UNL1        0.1537
     14 C           4.9165   -1.7252   27.0082 C.ar    1  UNL1        0.0839
     15 C           3.4750   -1.4152   27.2837 C.ar    1  UNL1        0.0190
     16 C           3.0825   -0.7580   28.5738 C.ar    1  UNL1        0.0160
     17 C           4.1315   -0.4108   29.5882 C.ar    1  UNL1        0.0510
     18 C           5.5730   -0.7208   29.3126 C.ar    1  UNL1        0.0527
     19 C           5.9656   -1.3780   28.0227 C.ar    1  UNL1        0.1532
     20 N           3.7390    0.2464   30.8782 N.pl3   1  UNL1       -0.3046
     21 C           4.5972    0.0784   32.0969 C.3     1  UNL1        0.1081
     22 C           4.2047    0.7356   33.3869 C.3     1  UNL1        0.0938
     23 N           2.9541    1.5607   33.4581 N.3     1  UNL1       -0.2686
     24 C           2.5616    2.2179   34.7482 C.3     1  UNL1        0.0897
     25 C           2.0959    1.7286   32.2394 C.3     1  UNL1        0.0938
     26 C           2.4884    1.0715   30.9494 C.3     1  UNL1        0.1081
     27 O           7.4071   -1.6880   27.7471 O.3     1  UNL1       -0.4701
     28 C           8.1884   -2.5364   28.7061 C.3     1  UNL1        0.2525
     29 O           3.2503    1.4350   22.8566 O.3     1  UNL1       -0.4350
     30 C           0.0746    1.5972   25.2312 C.ar    1  UNL1        0.0496
     31 C           1.3861    1.1644   24.6460 C.ar    1  UNL1        0.0519
     32 C           1.9387    1.8678   23.4418 C.ar    1  UNL1        0.1485
     33 C           1.1797    3.0039   22.8229 C.ar    1  UNL1        0.0373
     34 C          -0.1319    3.4366   23.4081 C.ar    1  UNL1        0.0001
     35 C          -0.6844    2.7333   24.6123 C.ar    1  UNL1       -0.0082
     36 C          -1.9961    3.1660   25.1975 C.3     1  UNL1        0.0323
     37 C          -0.0357    1.3001   27.8098 C.2     1  UNL1        0.2496
     38 O           0.9591    2.4098   27.9803 O.2     1  UNL1       -0.2698
     39 N          -0.4779    0.8938   26.4353 N.am    1  UNL1       -0.2805
     40 H          -1.1308    0.1655   26.3235 H       1  UNL1        0.1552
     41 C          -1.4015   -0.6525   28.8454 C.2     1  UNL1        0.0048
     42 C          -0.5883    0.5967   29.0140 C.2     1  UNL1        0.0580
@<TRIPOS>BOND
     1    41    42    2
     2    42    37    1
     3    37    38    2
     4    37    39   am
     5    39    30    1
     6    30    31   ar
     7    31    32   ar
     8    32    29    1
     9    29     1    1
    10     1     2   ar
    11     2     3   ar
    12     3    12    1
    13    12    14    1
    14    14    15   ar
    15    15    16   ar
    16    16    17   ar
    17    17    20    1
    18    20    21    1
    19    21    22    1
    20    22    23    1
    21    23    24    1
    22    23    25    1
    23    25    26    1
    24    17    18   ar
    25    18    19   ar
    26    19    27    1
    27    27    28    1
    28     3     4   ar
    29     4     5   ar
    30     5     6   ar
    31     6     7    1
    32     7     8    1
    33     8     9    1
    34     9    10    1
    35    10    11    1
    36    32    33   ar
    37    33    34   ar
    38    34    35   ar
    39    35    36    1
    40    35    30   ar
    41     6     1   ar
    42    11     7    1
    43    19    14   ar
    44    26    20    1
    45    39    40    1
    46    12    13    1
@<TRIPOS>MOLECULE
*****
 42 46 0 0 0
SMALL
GASTEIGER

@<TRIPOS>ATOM
      1 C           7.8776   -4.0730   26.6546 C.ar    1  UNL1        0.2443
      2 N           7.8751   -3.8761   25.1675 N.ar    1  UNL1       -0.1953
      3 C           7.8573   -5.0654   24.2536 C.ar    1  UNL1        0.1354
      4 C           7.8419   -6.4516   24.8267 C.ar    1  UNL1        0.0359
      5 C           7.8444   -6.6484   26.3137 C.ar    1  UNL1        0.0221
      6 C           7.8622   -5.4591   27.2277 C.ar    1  UNL1        0.1023
      7 N           7.8646   -5.6560   28.7147 N.pl3   1  UNL1       -0.3039
      8 C           6.6902   -5.4743   29.6300 C.3     1  UNL1        0.0910
      9 C           7.1416   -5.7751   31.0286 C.3     1  UNL1        0.0232
     10 C           8.5950   -6.1428   30.9775 C.3     1  UNL1        0.0232
     11 C           9.0418   -6.0692   29.5475 C.3     1  UNL1        0.0910
     12 N           7.8549   -4.8686   22.7666 N.pl3   1  UNL1       -0.2955
     13 H           8.5187   -5.3333   22.2074 H       1  UNL1        0.1537
     14 C           6.8411   -3.9637   22.1315 C.ar    1  UNL1        0.0839
     15 C           5.4984   -3.7746   22.7730 C.ar    1  UNL1        0.0190
     16 C           4.4845   -2.8697   22.1378 C.ar    1  UNL1        0.0160
     17 C           4.8134   -2.1539   20.8614 C.ar    1  UNL1        0.0510
     18 C           6.1561   -2.3430   20.2200 C.ar    1  UNL1        0.0527
     19 C           7.1699   -3.2478   20.8550 C.ar    1  UNL1        0.1532
     20 N           3.7996   -1.2489   20.2263 N.pl3   1  UNL1       -0.3046
     21 C           2.4633   -1.0461   20.8769 C.3     1  UNL1        0.1081
     22 C           1.4495   -0.1413   20.2419 C.3     1  UNL1        0.0938
     23 N           1.7720    0.5608   18.9562 N.3     1  UNL1       -0.2686
     24 C           0.7581    1.4658   18.3210 C.3     1  UNL1        0.0897
     25 C           3.1082    0.3580   18.3055 C.3     1  UNL1        0.0938
     26 C           4.1220   -0.5468   18.9406 C.3     1  UNL1        0.1081
     27 O           8.5126   -3.4369   20.2136 O.3     1  UNL1       -0.4701
     28 C           9.0681   -2.3765   19.3098 C.3     1  UNL1        0.2525
     29 O           7.8954   -2.8838   27.5686 O.3     1  UNL1       -0.4350
     30 C           4.2635   -1.3091   27.2858 C.ar    1  UNL1        0.0496
     31 C           5.5486   -1.9849   26.9093 C.ar    1  UNL1        0.0519
     32 C           6.6102   -2.2080   27.9452 C.ar    1  UNL1        0.1485
     33 C           6.3867   -1.7554   29.3577 C.ar    1  UNL1        0.0373
     34 C           5.1016   -1.0796   29.7342 C.ar    1  UNL1        0.0001
     35 C           4.0400   -0.8565   28.6983 C.ar    1  UNL1       -0.0082
     36 C           2.7548   -0.1807   29.0749 C.3     1  UNL1        0.0323
     37 C           3.2857    0.0982   25.3330 C.2     1  UNL1        0.2496
     38 O           4.4312    1.0593   25.4521 O.2     1  UNL1       -0.2698
     39 N           3.2018   -1.0860   26.2499 N.am    1  UNL1       -0.2805
     40 H           2.4500   -1.7168   26.1717 H       1  UNL1        0.1552
     41 C           0.9732    1.0686   24.6539 C.2     1  UNL1        0.0048
     42 C           2.2240    0.3213   24.2971 C.2     1  UNL1        0.0580
@<TRIPOS>BOND
     1    41    42    2
     2    42    37    1
     3    37    38    2
     4    37    39   am
     5    39    30    1
     6    30    31   ar
     7    31    32   ar
     8    32    29    1
     9    29     1    1
    10     1     2   ar
    11     2     3   ar
    12     3    12    1
    13    12    14    1
    14    14    15   ar
    15    15    16   ar
    16    16    17   ar
    17    17    20    1
    18    20    21    1
    19    21    22    1
    20    22    23    1
    21    23    24    1
    22    23    25    1
    23    25    26    1
    24    17    18   ar
    25    18    19   ar
    26    19    27    1
    27    27    28    1
    28     3     4   ar
    29     4     5   ar
    30     5     6   ar
    31     6     7    1
    32     7     8    1
    33     8     9    1
    34     9    10    1
    35    10    11    1
    36    32    33   ar
    37    33    34   ar
    38    34    35   ar
    39    35    36    1
    40    35    30   ar
    41     6     1   ar
    42    11     7    1
    43    19    14   ar
    44    26    20    1
    45    39    40    1
    46    12    13    1
@<TRIPOS>MOLECULE
*****
 42 46 0 0 0
SMALL
GASTEIGER

@<TRIPOS>ATOM
      1 C          -2.1588    4.4624   22.2385 C.ar    1  UNL1        0.2443
      2 N          -1.1121    4.1791   21.2020 N.ar    1  UNL1       -0.1953
      3 C          -1.5185    3.7476   19.8241 C.ar    1  UNL1        0.1354
      4 C          -2.9716    3.5993   19.4827 C.ar    1  UNL1        0.0359
      5 C          -4.0182    3.8826   20.5191 C.ar    1  UNL1        0.0221
      6 C          -3.6118    4.3142   21.8970 C.ar    1  UNL1        0.1023
      7 N          -4.6586    4.5975   22.9335 N.pl3   1  UNL1       -0.3039
      8 C          -5.0801    3.6725   24.0365 C.3     1  UNL1        0.0910
      9 C          -6.1496    4.3588   24.8336 C.3     1  UNL1        0.0232
     10 C          -6.3889    5.7079   24.2231 C.3     1  UNL1        0.0232
     11 C          -5.4674    5.8554   23.0488 C.3     1  UNL1        0.0910
     12 N          -0.4718    3.4643   18.7877 N.pl3   1  UNL1       -0.2955
     13 H          -0.4652    3.9708   17.9435 H       1  UNL1        0.1537
     14 C           0.5647    2.4092   19.0375 C.ar    1  UNL1        0.0839
     15 C           0.1822    1.1280   19.7173 C.ar    1  UNL1        0.0190
     16 C           1.2188    0.0730   19.9671 C.ar    1  UNL1        0.0160
     17 C           2.6379    0.2991   19.5370 C.ar    1  UNL1        0.0510
     18 C           3.0204    1.5803   18.8571 C.ar    1  UNL1        0.0527
     19 C           1.9839    2.6354   18.6074 C.ar    1  UNL1        0.1532
     20 N           3.6745   -0.7559   19.7868 N.pl3   1  UNL1       -0.3046
     21 C           3.2779   -2.2019   19.8289 C.3     1  UNL1        0.1081
     22 C           4.3145   -3.2570   20.0786 C.3     1  UNL1        0.0938
     23 N           5.7476   -2.8660   20.2863 N.3     1  UNL1       -0.2686
     24 C           6.7842   -3.9211   20.5360 C.3     1  UNL1        0.0897
     25 C           6.1442   -1.4200   20.2441 C.3     1  UNL1        0.0938
     26 C           5.1077   -0.3650   19.9944 C.3     1  UNL1        0.1081
     27 O           2.3664    3.9166   17.9275 O.3     1  UNL1       -0.4701
     28 C           3.8082    4.3230   17.8500 C.3     1  UNL1        0.2525
     29 O          -1.7524    4.8940   23.6164 O.3     1  UNL1       -0.4350
     30 C          -0.1396    1.7032   25.3391 C.ar    1  UNL1        0.0496
     31 C          -0.4878    2.7310   24.3036 C.ar    1  UNL1        0.0519
     32 C          -1.4042    3.8662   24.6520 C.ar    1  UNL1        0.1485
     33 C          -1.9724    3.9737   26.0361 C.ar    1  UNL1        0.0373
     34 C          -1.6242    2.9460   27.0716 C.ar    1  UNL1        0.0001
     35 C          -0.7078    1.8107   26.7232 C.ar    1  UNL1       -0.0082
     36 C          -0.3596    0.7829   27.7588 C.3     1  UNL1        0.0323
     37 C           2.2628    0.7452   25.0927 C.2     1  UNL1        0.2496
     38 O           2.8324    2.0577   25.5431 O.2     1  UNL1       -0.2698
     39 N           0.7768    0.5679   24.9907 N.am    1  UNL1       -0.2805
     40 H           0.4029   -0.2935   24.6950 H       1  UNL1        0.1552
     41 C           3.2990   -0.8473   23.3206 C.2     1  UNL1        0.0048
     42 C           3.1792   -0.3901   24.7442 C.2     1  UNL1        0.0580
@<TRIPOS>BOND
     1    41    42    2
     2    42    37    1
     3    37    38    2
     4    37    39   am
     5    39    30    1
     6    30    31   ar
     7    31    32   ar
     8    32    29    1
     9    29     1    1
    10     1     2   ar
    11     2     3   ar
    12     3    12    1
    13    12    14    1
    14    14    15   ar
    15    15    16   ar
    16    16    17   ar
    17    17    20    1
    18    20    21    1
    19    21    22    1
    20    22    23    1
    21    23    24    1
    22    23    25    1
    23    25    26    1
    24    17    18   ar
    25    18    19   ar
    26    19    27    1
    27    27    28    1
    28     3     4   ar
    29     4     5   ar
    30     5     6   ar
    31     6     7    1
    32     7     8    1
    33     8     9    1
    34     9    10    1
    35    10    11    1
    36    32    33   ar
    37    33    34   ar
    38    34    35   ar
    39    35    36    1
    40    35    30   ar
    41     6     1   ar
    42    11     7    1
    43    19    14   ar
    44    26    20    1
    45    39    40    1
    46    12    13    1
@<TRIPOS>MOLECULE
*****
 42 46 0 0 0
SMALL
GASTEIGER

@<TRIPOS>ATOM
      1 C           2.0677    2.1817   23.4877 C.ar    1  UNL1        0.2443
      2 N           2.4131    1.6037   24.8281 N.ar    1  UNL1       -0.1953
      3 C           1.3251    1.2832   25.8096 C.ar    1  UNL1        0.1354
      4 C          -0.1085    1.5407   25.4507 C.ar    1  UNL1        0.0359
      5 C          -0.4539    2.1187   24.1104 C.ar    1  UNL1        0.0221
      6 C           0.6342    2.4392   23.1288 C.ar    1  UNL1        0.1023
      7 N           0.2887    3.0172   21.7884 N.pl3   1  UNL1       -0.3039
      8 C          -0.2965    2.2667   20.6290 C.3     1  UNL1        0.0910
      9 C          -0.4791    3.2328   19.4961 C.3     1  UNL1        0.0232
     10 C          -0.0068    4.5804   19.9555 C.3     1  UNL1        0.0232
     11 C           0.4677    4.4471   21.3722 C.3     1  UNL1        0.0910
     12 N           1.6705    0.7052   27.1499 N.pl3   1  UNL1       -0.2955
     13 H           2.0341   -0.2075   27.2135 H       1  UNL1        0.1537
     14 C           1.4619    1.5177   28.3934 C.ar    1  UNL1        0.0839
     15 C           2.0995    2.8694   28.5218 C.ar    1  UNL1        0.0190
     16 C           1.8908    3.6819   29.7653 C.ar    1  UNL1        0.0160
     17 C           1.0446    3.1428   30.8803 C.ar    1  UNL1        0.0510
     18 C           0.4070    1.7912   30.7519 C.ar    1  UNL1        0.0527
     19 C           0.6156    0.9786   29.5084 C.ar    1  UNL1        0.1532
     20 N           0.8359    3.9554   32.1238 N.pl3   1  UNL1       -0.3046
     21 C           1.6644    3.6845   33.3446 C.3     1  UNL1        0.1081
     22 C           1.4558    4.4970   34.5881 C.3     1  UNL1        0.0938
     23 N           0.4187    5.5804   34.6108 N.3     1  UNL1       -0.2686
     24 C           0.2100    6.3930   35.8543 C.3     1  UNL1        0.0897
     25 C          -0.4098    5.8513   33.3900 C.3     1  UNL1        0.0938
     26 C          -0.2012    5.0388   32.1466 C.3     1  UNL1        0.1081
     27 O          -0.0220   -0.3730   29.3800 O.3     1  UNL1       -0.4701
     28 C          -1.4035   -0.4995   28.8094 C.3     1  UNL1        0.2525
     29 O           3.1557    2.5022   22.5061 O.3     1  UNL1       -0.4350
     30 C           3.2011   -0.4761   19.8836 C.ar    1  UNL1        0.0496
     31 C           3.1230    0.2652   21.1853 C.ar    1  UNL1        0.0519
     32 C           3.2337    1.7609   21.2044 C.ar    1  UNL1        0.1485
     33 C           3.4224    2.5155   19.9218 C.ar    1  UNL1        0.0373
     34 C           3.5005    1.7742   18.6201 C.ar    1  UNL1        0.0001
     35 C           3.3898    0.2784   18.6011 C.ar    1  UNL1       -0.0082
     36 C           3.4678   -0.4629   17.2993 C.3     1  UNL1        0.0323
     37 C           4.3008   -2.8170   20.1302 C.2     1  UNL1        0.2496
     38 O           5.6221   -2.1663   20.4148 O.2     1  UNL1       -0.2698
     39 N           3.0904   -1.9719   19.8646 N.am    1  UNL1       -0.2805
     40 H           2.2232   -2.3990   19.6777 H       1  UNL1        0.1552
     41 C           4.4419   -5.0673   18.8393 C.2     1  UNL1        0.0048
     42 C           4.1901   -4.3128   20.1111 C.2     1  UNL1        0.0580
@<TRIPOS>BOND
     1    41    42    2
     2    42    37    1
     3    37    38    2
     4    37    39   am
     5    39    30    1
     6    30    31   ar
     7    31    32   ar
     8    32    29    1
     9    29     1    1
    10     1     2   ar
    11     2     3   ar
    12     3    12    1
    13    12    14    1
    14    14    15   ar
    15    15    16   ar
    16    16    17   ar
    17    17    20    1
    18    20    21    1
    19    21    22    1
    20    22    23    1
    21    23    24    1
    22    23    25    1
    23    25    26    1
    24    17    18   ar
    25    18    19   ar
    26    19    27    1
    27    27    28    1
    28     3     4   ar
    29     4     5   ar
    30     5     6   ar
    31     6     7    1
    32     7     8    1
    33     8     9    1
    34     9    10    1
    35    10    11    1
    36    32    33   ar
    37    33    34   ar
    38    34    35   ar
    39    35    36    1
    40    35    30   ar
    41     6     1   ar
    42    11     7    1
    43    19    14   ar
    44    26    20    1
    45    39    40    1
    46    12    13    1
@<TRIPOS>MOLECULE
*****
 42 46 0 0 0
SMALL
GASTEIGER

@<TRIPOS>ATOM
      1 C          -3.8954    4.1084   26.2033 C.ar    1  UNL1        0.2443
      2 N          -2.5800    3.3890   26.2541 N.ar    1  UNL1       -0.1953
      3 C          -1.3872    4.0504   26.8784 C.ar    1  UNL1        0.1354
      4 C          -1.5097    5.4311   27.4519 C.ar    1  UNL1        0.0359
      5 C          -2.8250    6.1503   27.4011 C.ar    1  UNL1        0.0221
      6 C          -4.0178    5.4889   26.7768 C.ar    1  UNL1        0.1023
      7 N          -5.3332    6.2082   26.7260 N.pl3   1  UNL1       -0.3039
      8 C          -5.7192    7.2713   25.7407 C.3     1  UNL1        0.0910
      9 C          -7.1181    7.7108   26.0573 C.3     1  UNL1        0.0232
     10 C          -7.5964    6.9194   27.2384 C.3     1  UNL1        0.0232
     11 C          -6.4933    5.9908   27.6517 C.3     1  UNL1        0.0910
     12 N          -0.0718    3.3312   26.9291 N.pl3   1  UNL1       -0.2955
     13 H           0.3913    3.0926   26.0938 H       1  UNL1        0.1537
     14 C           0.5378    2.9755   28.2527 C.ar    1  UNL1        0.0839
     15 C           1.5417    3.8923   28.8866 C.ar    1  UNL1        0.0190
     16 C           2.1513    3.5365   30.2102 C.ar    1  UNL1        0.0160
     17 C           1.7571    2.2641   30.8998 C.ar    1  UNL1        0.0510
     18 C           0.7533    1.3474   30.2658 C.ar    1  UNL1        0.0527
     19 C           0.1436    1.7031   28.9423 C.ar    1  UNL1        0.1532
     20 N           2.3668    1.9084   32.2234 N.pl3   1  UNL1       -0.3046
     21 C           2.0510    2.7283   33.4392 C.3     1  UNL1        0.1081
     22 C           2.6606    2.3726   34.7627 C.3     1  UNL1        0.0938
     23 N           3.5860    1.1971   34.8705 N.3     1  UNL1       -0.2686
     24 C           4.1957    0.8413   36.1941 C.3     1  UNL1        0.0897
     25 C           3.9018    0.3772   33.6547 C.3     1  UNL1        0.0938
     26 C           3.2922    0.7328   32.3312 C.3     1  UNL1        0.1081
     27 O          -0.8602    0.7863   28.3084 O.3     1  UNL1       -0.4701
     28 C          -1.7073   -0.1063   29.1660 C.3     1  UNL1        0.2525
     29 O          -5.0882    3.4470   25.5791 O.3     1  UNL1       -0.4350
     30 C          -4.5980    3.3488   21.6420 C.ar    1  UNL1        0.0496
     31 C          -4.3297    3.1817   23.1083 C.ar    1  UNL1        0.0519
     32 C          -5.3566    3.6141   24.1127 C.ar    1  UNL1        0.1485
     33 C          -6.6516    4.2134   23.6507 C.ar    1  UNL1        0.0373
     34 C          -6.9199    4.3805   22.1844 C.ar    1  UNL1        0.0001
     35 C          -5.8931    3.9481   21.1801 C.ar    1  UNL1       -0.0082
     36 C          -6.1614    4.1152   19.7137 C.3     1  UNL1        0.0323
     37 C          -2.5560    3.8984   20.1327 C.2     1  UNL1        0.2496
     38 O          -2.5676    5.3128   20.6322 O.2     1  UNL1       -0.2698
     39 N          -3.5712    2.9164   20.6377 N.am    1  UNL1       -0.2805
     40 H          -3.5636    1.9881   20.3099 H       1  UNL1        0.1552
     41 C          -0.1493    3.0902   19.5808 C.2     1  UNL1        0.0048
     42 C          -1.5292    3.4661   19.1284 C.2     1  UNL1        0.0580
@<TRIPOS>BOND
     1    41    42    2
     2    42    37    1
     3    37    38    2
     4    37    39   am
     5    39    30    1
     6    30    31   ar
     7    31    32   ar
     8    32    29    1
     9    29     1    1
    10     1     2   ar
    11     2     3   ar
    12     3    12    1
    13    12    14    1
    14    14    15   ar
    15    15    16   ar
    16    16    17   ar
    17    17    20    1
    18    20    21    1
    19    21    22    1
    20    22    23    1
    21    23    24    1
    22    23    25    1
    23    25    26    1
    24    17    18   ar
    25    18    19   ar
    26    19    27    1
    27    27    28    1
    28     3     4   ar
    29     4     5   ar
    30     5     6   ar
    31     6     7    1
    32     7     8    1
    33     8     9    1
    34     9    10    1
    35    10    11    1
    36    32    33   ar
    37    33    34   ar
    38    34    35   ar
    39    35    36    1
    40    35    30   ar
    41     6     1   ar
    42    11     7    1
    43    19    14   ar
    44    26    20    1
    45    39    40    1
    46    12    13    1
@<TRIPOS>MOLECULE
*****
 42 46 0 0 0
SMALL
GASTEIGER

@<TRIPOS>ATOM
      1 C         -13.3179   -2.6605   16.8522 C.ar    1  UNL1        0.2443
      2 N         -14.3739   -1.5994   16.7577 N.ar    1  UNL1       -0.1953
      3 C         -14.2749   -0.3652   17.6045 C.ar    1  UNL1        0.1354
      4 C         -13.1197   -0.1922   18.5457 C.ar    1  UNL1        0.0359
      5 C         -12.0638   -1.2533   18.6401 C.ar    1  UNL1        0.0221
      6 C         -12.1628   -2.4875   17.7934 C.ar    1  UNL1        0.1023
      7 N         -11.1068   -3.5486   17.8878 N.pl3   1  UNL1       -0.3039
      8 C         -10.9506   -4.5402   19.0024 C.3     1  UNL1        0.0910
      9 C          -9.7688   -5.4089   18.6878 C.3     1  UNL1        0.0232
     10 C          -9.1947   -4.9540   17.3787 C.3     1  UNL1        0.0232
     11 C         -10.0216   -3.8043   16.8843 C.3     1  UNL1        0.0910
     12 N         -15.3308    0.6959   17.5101 N.pl3   1  UNL1       -0.2955
     13 H         -15.6851    0.9609   16.6306 H       1  UNL1        0.1537
     14 C         -15.8470    1.3532   18.7556 C.ar    1  UNL1        0.0839
     15 C         -15.3360    2.7051   19.1571 C.ar    1  UNL1        0.0190
     16 C         -15.8523    3.3624   20.4028 C.ar    1  UNL1        0.0160
     17 C         -16.8794    2.6678   21.2468 C.ar    1  UNL1        0.0510
     18 C         -17.3903    1.3158   20.8453 C.ar    1  UNL1        0.0527
     19 C         -16.8742    0.6585   19.5997 C.ar    1  UNL1        0.1532
     20 N         -17.3956    3.3251   22.4925 N.pl3   1  UNL1       -0.3046
     21 C         -16.4852    4.1830   23.3202 C.3     1  UNL1        0.1081
     22 C         -17.0014    4.8403   24.5658 C.3     1  UNL1        0.0938
     23 N         -18.4279    4.6396   24.9836 N.3     1  UNL1       -0.2686
     24 C         -18.9441    5.2969   26.2293 C.3     1  UNL1        0.0897
     25 C         -19.3383    3.7817   24.1559 C.3     1  UNL1        0.0938
     26 C         -18.8221    3.1244   22.9103 C.3     1  UNL1        0.1081
     27 O         -17.3851   -0.6934   19.1982 O.3     1  UNL1       -0.4701
     28 C         -16.6953   -1.9318   19.6884 C.3     1  UNL1        0.2525
     29 O         -13.4170   -3.8947   16.0054 O.3     1  UNL1       -0.4350
     30 C         -15.2519   -6.6059   18.2487 C.ar    1  UNL1        0.0496
     31 C         -14.8988   -5.2910   17.6193 C.ar    1  UNL1        0.0519
     32 C         -13.7700   -5.2097   16.6348 C.ar    1  UNL1        0.1485
     33 C         -12.9943   -6.4435   16.2797 C.ar    1  UNL1        0.0373
     34 C         -13.3474   -7.7584   16.9091 C.ar    1  UNL1        0.0001
     35 C         -14.4762   -7.8396   17.8936 C.ar    1  UNL1       -0.0082
     36 C         -14.8292   -9.1547   18.5230 C.3     1  UNL1        0.0323
     37 C         -17.7916   -6.8345   18.7460 C.2     1  UNL1        0.2496
     38 O         -18.0739   -6.9007   17.2742 O.2     1  UNL1       -0.2698
     39 N         -16.3807   -6.6872   19.2332 N.am    1  UNL1       -0.2805
     40 H         -16.1955   -6.6437   20.1991 H       1  UNL1        0.1552
     41 C         -19.1610   -8.1852   20.4927 C.2     1  UNL1        0.0048
     42 C         -18.9204   -6.9158   19.7305 C.2     1  UNL1        0.0580
@<TRIPOS>BOND
     1    41    42    2
     2    42    37    1
     3    37    38    2
     4    37    39   am
     5    39    30    1
     6    30    31   ar
     7    31    32   ar
     8    32    29    1
     9    29     1    1
    10     1     2   ar
    11     2     3   ar
    12     3    12    1
    13    12    14    1
    14    14    15   ar
    15    15    16   ar
    16    16    17   ar
    17    17    20    1
    18    20    21    1
    19    21    22    1
    20    22    23    1
    21    23    24    1
    22    23    25    1
    23    25    26    1
    24    17    18   ar
    25    18    19   ar
    26    19    27    1
    27    27    28    1
    28     3     4   ar
    29     4     5   ar
    30     5     6   ar
    31     6     7    1
    32     7     8    1
    33     8     9    1
    34     9    10    1
    35    10    11    1
    36    32    33   ar
    37    33    34   ar
    38    34    35   ar
    39    35    36    1
    40    35    30   ar
    41     6     1   ar
    42    11     7    1
    43    19    14   ar
    44    26    20    1
    45    39    40    1
    46    12    13    1
@<TRIPOS>MOLECULE
*****
 42 46 0 0 0
SMALL
GASTEIGER

@<TRIPOS>ATOM
      1 C           6.5458   -3.5338   25.5026 C.ar    1  UNL1        0.2443
      2 N           6.4344   -3.2587   24.0323 N.ar    1  UNL1       -0.1953
      3 C           7.0861   -4.1811   23.0451 C.ar    1  UNL1        0.1354
      4 C           7.8492   -5.3787   23.5284 C.ar    1  UNL1        0.0359
      5 C           7.9606   -5.6538   24.9987 C.ar    1  UNL1        0.0221
      6 C           7.3089   -4.7314   25.9858 C.ar    1  UNL1        0.1023
      7 N           7.4203   -5.0066   27.4562 N.pl3   1  UNL1       -0.3039
      8 C           6.2808   -5.2951   28.3880 C.3     1  UNL1        0.0910
      9 C           6.8470   -5.5084   29.7606 C.3     1  UNL1        0.0232
     10 C           8.3365   -5.3517   29.6770 C.3     1  UNL1        0.0232
     11 C           8.6908   -5.0415   28.2529 C.3     1  UNL1        0.0910
     12 N           6.9747   -3.9060   21.5748 N.pl3   1  UNL1       -0.2955
     13 H           7.5156   -4.4229   20.9349 H       1  UNL1        0.1537
     14 C           6.0391   -2.8434   21.0795 C.ar    1  UNL1        0.0839
     15 C           6.3724   -1.3954   21.2851 C.ar    1  UNL1        0.0190
     16 C           5.4367   -0.3327   20.7897 C.ar    1  UNL1        0.0160
     17 C           4.1678   -0.7181   20.0887 C.ar    1  UNL1        0.0510
     18 C           3.8346   -2.1660   19.8830 C.ar    1  UNL1        0.0527
     19 C           4.7702   -3.2287   20.3784 C.ar    1  UNL1        0.1532
     20 N           3.2322    0.3446   19.5933 N.pl3   1  UNL1       -0.3046
     21 C           1.8207   -0.0093   19.2293 C.3     1  UNL1        0.1081
     22 C           0.8850    1.0533   18.7339 C.3     1  UNL1        0.0938
     23 N           1.3609    2.4697   18.6025 N.3     1  UNL1       -0.2686
     24 C           0.4252    3.5324   18.1071 C.3     1  UNL1        0.0897
     25 C           2.7723    2.8236   18.9666 C.3     1  UNL1        0.0938
     26 C           3.7080    1.7610   19.4620 C.3     1  UNL1        0.1081
     27 O           4.4369   -4.6767   20.1727 O.3     1  UNL1       -0.4701
     28 C           4.5138   -5.2763   18.8000 C.3     1  UNL1        0.2525
     29 O           5.8941   -2.6114   26.4898 O.3     1  UNL1       -0.4350
     30 C           3.1692    0.1763   25.7458 C.ar    1  UNL1        0.0496
     31 C           3.7970   -1.1024   26.2156 C.ar    1  UNL1        0.0519
     32 C           5.2663   -1.3326   26.0200 C.ar    1  UNL1        0.1485
     33 C           6.1077   -0.2842   25.3546 C.ar    1  UNL1        0.0373
     34 C           5.4798    0.9945   24.8848 C.ar    1  UNL1        0.0001
     35 C           4.0105    1.2247   25.0804 C.ar    1  UNL1       -0.0082
     36 C           3.3827    2.5035   24.6106 C.3     1  UNL1        0.0323
     37 C           1.1991    1.0115   27.2193 C.2     1  UNL1        0.2496
     38 O           2.1677    1.3864   28.3017 O.2     1  UNL1       -0.2698
     39 N           1.6999    0.4065   25.9414 N.am    1  UNL1       -0.2805
     40 H           1.0642    0.1605   25.2310 H       1  UNL1        0.1552
     41 C          -1.0430    0.3829   28.3716 C.2     1  UNL1        0.0048
     42 C          -0.2701    1.2417   27.4149 C.2     1  UNL1        0.0580
@<TRIPOS>BOND
     1    41    42    2
     2    42    37    1
     3    37    38    2
     4    37    39   am
     5    39    30    1
     6    30    31   ar
     7    31    32   ar
     8    32    29    1
     9    29     1    1
    10     1     2   ar
    11     2     3   ar
    12     3    12    1
    13    12    14    1
    14    14    15   ar
    15    15    16   ar
    16    16    17   ar
    17    17    20    1
    18    20    21    1
    19    21    22    1
    20    22    23    1
    21    23    24    1
    22    23    25    1
    23    25    26    1
    24    17    18   ar
    25    18    19   ar
    26    19    27    1
    27    27    28    1
    28     3     4   ar
    29     4     5   ar
    30     5     6   ar
    31     6     7    1
    32     7     8    1
    33     8     9    1
    34     9    10    1
    35    10    11    1
    36    32    33   ar
    37    33    34   ar
    38    34    35   ar
    39    35    36    1
    40    35    30   ar
    41     6     1   ar
    42    11     7    1
    43    19    14   ar
    44    26    20    1
    45    39    40    1
    46    12    13    1
@<TRIPOS>MOLECULE
*****
 42 46 0 0 0
SMALL
GASTEIGER

@<TRIPOS>ATOM
      1 C          -0.1879    2.1733   22.0459 C.ar    1  UNL1        0.2443
      2 N           0.8434    2.0213   23.1246 N.ar    1  UNL1       -0.1953
      3 C           1.0468    3.1179   24.1277 C.ar    1  UNL1        0.1354
      4 C           0.2189    4.3664   24.0521 C.ar    1  UNL1        0.0359
      5 C          -0.8123    4.5184   22.9734 C.ar    1  UNL1        0.0221
      6 C          -1.0157    3.4218   21.9704 C.ar    1  UNL1        0.1023
      7 N          -2.0470    3.5738   20.8917 N.pl3   1  UNL1       -0.3039
      8 C          -1.7804    3.9462   19.4633 C.3     1  UNL1        0.0910
      9 C          -3.0945    3.9827   18.7409 C.3     1  UNL1        0.0232
     10 C          -4.1732    3.6327   19.7228 C.3     1  UNL1        0.0232
     11 C          -3.5257    3.3801   21.0521 C.3     1  UNL1        0.0910
     12 N           2.0780    2.9659   25.2063 N.pl3   1  UNL1       -0.2955
     13 H           2.2114    3.6856   25.8647 H       1  UNL1        0.1537
     14 C           2.9060    1.7175   25.2817 C.ar    1  UNL1        0.0839
     15 C           4.0293    1.5027   24.3110 C.ar    1  UNL1        0.0190
     16 C           4.8573    0.2542   24.3865 C.ar    1  UNL1        0.0160
     17 C           4.5621   -0.7795   25.4326 C.ar    1  UNL1        0.0510
     18 C           3.4388   -0.5647   26.4032 C.ar    1  UNL1        0.0527
     19 C           2.6108    0.6837   26.3278 C.ar    1  UNL1        0.1532
     20 N           5.3901   -2.0280   25.5080 N.pl3   1  UNL1       -0.3046
     21 C           5.6659   -2.8213   24.2652 C.3     1  UNL1        0.1081
     22 C           6.4939   -4.0697   24.3406 C.3     1  UNL1        0.0938
     23 N           7.0461   -4.5249   25.6588 N.3     1  UNL1       -0.2686
     24 C           7.8742   -5.7734   25.7343 C.3     1  UNL1        0.0897
     25 C           6.7703   -3.7317   26.9017 C.3     1  UNL1        0.0938
     26 C           5.9423   -2.4832   26.8263 C.3     1  UNL1        0.1081
     27 O           1.4876    0.8985   27.2985 O.3     1  UNL1       -0.4701
     28 C           1.7521    1.5643   28.6163 C.3     1  UNL1        0.2525
     29 O          -0.3912    1.0767   21.0429 O.3     1  UNL1       -0.4350
     30 C           2.5467   -1.0742   19.4641 C.ar    1  UNL1        0.0496
     31 C           1.4178   -0.6587   20.3602 C.ar    1  UNL1        0.0519
     32 C           0.7377    0.6611   20.1467 C.ar    1  UNL1        0.1485
     33 C           1.1863    1.5653   19.0372 C.ar    1  UNL1        0.0373
     34 C           2.3151    1.1498   18.1411 C.ar    1  UNL1        0.0001
     35 C           2.9953   -0.1700   18.3546 C.ar    1  UNL1       -0.0082
     36 C           4.1242   -0.5855   17.4584 C.3     1  UNL1        0.0323
     37 C           4.4827   -2.4671   20.4944 C.2     1  UNL1        0.2496
     38 O           5.0585   -1.2203   21.0979 O.2     1  UNL1       -0.2698
     39 N           3.2268   -2.3940   19.6775 N.am    1  UNL1       -0.2805
     40 H           2.8490   -3.2123   19.2814 H       1  UNL1        0.1552
     41 C           6.6568   -3.8846   20.6137 C.2     1  UNL1        0.0048
     42 C           5.1629   -3.7868   20.7078 C.2     1  UNL1        0.0580
@<TRIPOS>BOND
     1    41    42    2
     2    42    37    1
     3    37    38    2
     4    37    39   am
     5    39    30    1
     6    30    31   ar
     7    31    32   ar
     8    32    29    1
     9    29     1    1
    10     1     2   ar
    11     2     3   ar
    12     3    12    1
    13    12    14    1
    14    14    15   ar
    15    15    16   ar
    16    16    17   ar
    17    17    20    1
    18    20    21    1
    19    21    22    1
    20    22    23    1
    21    23    24    1
    22    23    25    1
    23    25    26    1
    24    17    18   ar
    25    18    19   ar
    26    19    27    1
    27    27    28    1
    28     3     4   ar
    29     4     5   ar
    30     5     6   ar
    31     6     7    1
    32     7     8    1
    33     8     9    1
    34     9    10    1
    35    10    11    1
    36    32    33   ar
    37    33    34   ar
    38    34    35   ar
    39    35    36    1
    40    35    30   ar
    41     6     1   ar
    42    11     7    1
    43    19    14   ar
    44    26    20    1
    45    39    40    1
    46    12    13    1
