@<TRIPOS>MOLECULE
*****
 20 21 0 0 0
SMALL
GASTEIGER

@<TRIPOS>ATOM
      1 C         -11.4428  -15.7352   19.3846 C.3     1  UNL1        0.0000
      2 B         -11.3975  -16.5831   20.6212 B       1  UNL1        0.0000
      3 C         -12.4848  -16.4701   21.6483 C.3     1  UNL1        0.0000
      4 C         -12.4395  -17.3180   22.8848 C.2     1  UNL1        0.0000
      5 C         -11.3069  -18.2788   23.0943 C.ar    1  UNL1        0.0000
      6 C         -11.2616  -19.1267   24.3309 C.ar    1  UNL1        0.0000
      7 C         -10.1289  -20.0875   24.5403 C.ar    1  UNL1        0.0000
      8 C          -9.0415  -20.2005   23.5132 C.ar    1  UNL1        0.0000
      9 C          -9.0868  -19.3526   22.2767 C.ar    1  UNL1        0.0000
     10 C         -10.2196  -18.3918   22.0672 C.ar    1  UNL1        0.0000
     11 N         -10.2649  -17.5439   20.8307 N.2     1  UNL1        0.0000
     12 O          -7.9995  -19.4656   21.2496 O.3     1  UNL1        0.0000
     13 C          -6.6036  -19.8180   21.6708 C.3     1  UNL1        0.0000
     14 C          -5.4307  -19.1714   20.9955 C.3     1  UNL1        0.0000
     15 O          -5.5944  -18.5498   19.6402 O.3     1  UNL1        0.0000
     16 H          -4.7463  -18.1794   19.3498 H       1  UNL1        0.0000
     17 C          -4.0940  -19.1463   21.6756 C.3     1  UNL1        0.0000
     18 N          -3.5613  -17.8607   22.2355 N.3     1  UNL1        0.0000
     19 C          -2.3777  -17.1975   21.5958 C.3     1  UNL1        0.0000
     20 C          -4.2122  -17.2383   23.4350 C.3     1  UNL1        0.0000
@<TRIPOS>BOND
     1     1     2    1
     2     2     3    1
     3     3     4    1
     4     4     5    2
     5     5     6   ar
     6     6     7   ar
     7     7     8   ar
     8     8     9   ar
     9     9    12    1
    10    12    13    1
    11    13    14    1
    12    14    15    1
    13    14    17    1
    14    17    18    1
    15    18    19    1
    16    18    20    1
    17     9    10   ar
    18    10    11    2
    19    11     2    1
    20    10     5   ar
    21    15    16    1
@<TRIPOS>MOLECULE
*****
 20 21 0 0 0
SMALL
GASTEIGER

@<TRIPOS>ATOM
      1 C          -6.4637  -15.4546   23.8637 C.3     1  UNL1        0.0000
      2 B          -7.6605  -16.2747   23.4827 B       1  UNL1        0.0000
      3 C          -8.9028  -16.2234   24.3217 C.3     1  UNL1        0.0000
      4 C         -10.0996  -17.0434   23.9406 C.2     1  UNL1        0.0000
      5 C         -10.0541  -17.9147   22.7205 C.ar    1  UNL1        0.0000
      6 C         -11.2509  -18.7348   22.3394 C.ar    1  UNL1        0.0000
      7 C         -11.2054  -19.6061   21.1193 C.ar    1  UNL1        0.0000
      8 C          -9.9631  -19.6574   20.2802 C.ar    1  UNL1        0.0000
      9 C          -8.7663  -18.8374   20.6613 C.ar    1  UNL1        0.0000
     10 C          -8.8118  -17.9660   21.8815 C.ar    1  UNL1        0.0000
     11 N          -7.6150  -17.1460   22.2626 N.2     1  UNL1        0.0000
     12 O          -7.5240  -18.8887   19.8223 O.3     1  UNL1        0.0000
     13 C          -6.3968  -19.8010   20.2062 C.3     1  UNL1        0.0000
     14 C          -5.0674  -19.2269   20.5977 C.3     1  UNL1        0.0000
     15 O          -4.9509  -18.3757   21.8273 O.3     1  UNL1        0.0000
     16 H          -4.0309  -18.0878   21.9352 H       1  UNL1        0.0000
     17 C          -3.8547  -19.5042   19.7597 C.3     1  UNL1        0.0000
     18 N          -2.6636  -18.5959   19.8405 N.3     1  UNL1        0.0000
     19 C          -2.4694  -17.5205   18.8131 C.3     1  UNL1        0.0000
     20 C          -1.6667  -18.7632   20.9488 C.3     1  UNL1        0.0000
@<TRIPOS>BOND
     1     1     2    1
     2     2     3    1
     3     3     4    1
     4     4     5    2
     5     5     6   ar
     6     6     7   ar
     7     7     8   ar
     8     8     9   ar
     9     9    12    1
    10    12    13    1
    11    13    14    1
    12    14    15    1
    13    14    17    1
    14    17    18    1
    15    18    19    1
    16    18    20    1
    17     9    10   ar
    18    10    11    2
    19    11     2    1
    20    10     5   ar
    21    15    16    1
@<TRIPOS>MOLECULE
*****
 20 21 0 0 0
SMALL
GASTEIGER

@<TRIPOS>ATOM
      1 C          -8.8434  -15.9756   24.9976 C.3     1  UNL1        0.0000
      2 B          -9.1757  -16.6985   23.7259 B       1  UNL1        0.0000
      3 C         -10.5628  -16.6219   23.1603 C.3     1  UNL1        0.0000
      4 C         -10.8952  -17.3447   21.8886 C.2     1  UNL1        0.0000
      5 C          -9.8405  -18.1442   21.1827 C.ar    1  UNL1        0.0000
      6 C         -10.1728  -18.8670   19.9111 C.ar    1  UNL1        0.0000
      7 C          -9.1181  -19.6664   19.2051 C.ar    1  UNL1        0.0000
      8 C          -7.7309  -19.7430   19.7708 C.ar    1  UNL1        0.0000
      9 C          -7.3985  -19.0202   21.0424 C.ar    1  UNL1        0.0000
     10 C          -8.4534  -18.2207   21.7484 C.ar    1  UNL1        0.0000
     11 N          -8.1210  -17.4979   23.0200 N.2     1  UNL1        0.0000
     12 O          -6.0114  -19.0967   21.6081 O.3     1  UNL1        0.0000
     13 C          -4.9058  -19.7122   20.8025 C.3     1  UNL1        0.0000
     14 C          -3.8262  -18.8454   20.2255 C.3     1  UNL1        0.0000
     15 O          -4.0984  -18.0242   19.0001 O.3     1  UNL1        0.0000
     16 H          -3.3012  -17.5260   18.7611 H       1  UNL1        0.0000
     17 C          -2.4743  -18.7998   20.8738 C.3     1  UNL1        0.0000
     18 N          -1.6947  -17.5184   20.8933 N.3     1  UNL1        0.0000
     19 C          -2.1561  -16.3727   21.7444 C.3     1  UNL1        0.0000
     20 C          -0.4537  -17.3828   20.0618 C.3     1  UNL1        0.0000
@<TRIPOS>BOND
     1     1     2    1
     2     2     3    1
     3     3     4    1
     4     4     5    2
     5     5     6   ar
     6     6     7   ar
     7     7     8   ar
     8     8     9   ar
     9     9    12    1
    10    12    13    1
    11    13    14    1
    12    14    15    1
    13    14    17    1
    14    17    18    1
    15    18    19    1
    16    18    20    1
    17     9    10   ar
    18    10    11    2
    19    11     2    1
    20    10     5   ar
    21    15    16    1
@<TRIPOS>MOLECULE
*****
 20 21 0 0 0
SMALL
GASTEIGER

@<TRIPOS>ATOM
      1 C          -8.7119  -19.3057   21.6774 C.3     1  UNL1        0.0000
      2 B          -7.2255  -19.3817   21.4902 B       1  UNL1        0.0000
      3 C          -6.6493  -20.2419   20.4049 C.3     1  UNL1        0.0000
      4 C          -5.1630  -20.3180   20.2177 C.2     1  UNL1        0.0000
      5 C          -4.2529  -19.5339   21.1159 C.ar    1  UNL1        0.0000
      6 C          -2.7665  -19.6100   20.9288 C.ar    1  UNL1        0.0000
      7 C          -1.8564  -18.8260   21.8270 C.ar    1  UNL1        0.0000
      8 C          -2.4326  -17.9657   22.9124 C.ar    1  UNL1        0.0000
      9 C          -3.9189  -17.8896   23.0996 C.ar    1  UNL1        0.0000
     10 C          -4.8291  -18.6738   22.2013 C.ar    1  UNL1        0.0000
     11 N          -6.3154  -18.5977   22.3884 N.2     1  UNL1        0.0000
     12 O          -4.4951  -17.0294   24.1849 O.3     1  UNL1        0.0000
     13 C          -5.1119  -15.7051   23.8445 C.3     1  UNL1        0.0000
     14 C          -6.0519  -15.0454   24.8093 C.3     1  UNL1        0.0000
     15 O          -5.5100  -14.2807   25.9804 O.3     1  UNL1        0.0000
     16 H          -6.2457  -13.9205   26.4999 H       1  UNL1        0.0000
     17 C          -7.5340  -15.1503   24.6031 C.3     1  UNL1        0.0000
     18 N          -8.3303  -16.1550   25.3819 N.3     1  UNL1        0.0000
     19 C          -8.2675  -16.1628   26.8806 C.3     1  UNL1        0.0000
     20 C          -9.1895  -17.1518   24.6621 C.3     1  UNL1        0.0000
@<TRIPOS>BOND
     1     1     2    1
     2     2     3    1
     3     3     4    1
     4     4     5    2
     5     5     6   ar
     6     6     7   ar
     7     7     8   ar
     8     8     9   ar
     9     9    12    1
    10    12    13    1
    11    13    14    1
    12    14    15    1
    13    14    17    1
    14    17    18    1
    15    18    19    1
    16    18    20    1
    17     9    10   ar
    18    10    11    2
    19    11     2    1
    20    10     5   ar
    21    15    16    1
@<TRIPOS>MOLECULE
*****
 20 21 0 0 0
SMALL
GASTEIGER

@<TRIPOS>ATOM
      1 C          -5.1345  -20.0580   20.5567 C.3     1  UNL1        0.0000
      2 B          -5.1988  -18.9747   21.5922 B       1  UNL1        0.0000
      3 C          -3.9508  -18.5408   22.3021 C.3     1  UNL1        0.0000
      4 C          -4.0151  -17.4575   23.3377 C.2     1  UNL1        0.0000
      5 C          -5.3274  -16.8080   23.6632 C.ar    1  UNL1        0.0000
      6 C          -5.3917  -15.7247   24.6987 C.ar    1  UNL1        0.0000
      7 C          -6.7041  -15.0753   25.0243 C.ar    1  UNL1        0.0000
      8 C          -7.9522  -15.5092   24.3143 C.ar    1  UNL1        0.0000
      9 C          -7.8879  -16.5925   23.2788 C.ar    1  UNL1        0.0000
     10 C          -6.5755  -17.2420   22.9532 C.ar    1  UNL1        0.0000
     11 N          -6.5112  -18.3253   21.9177 N.2     1  UNL1        0.0000
     12 O          -9.1359  -17.0265   22.5688 O.3     1  UNL1        0.0000
     13 C         -10.4745  -16.5406   23.0403 C.3     1  UNL1        0.0000
     14 C         -11.6927  -17.3943   22.8476 C.3     1  UNL1        0.0000
     15 O         -12.1480  -18.3100   23.9449 O.3     1  UNL1        0.0000
     16 H         -12.9435  -18.7861   23.6595 H       1  UNL1        0.0000
     17 C         -12.4556  -17.3322   21.5576 C.3     1  UNL1        0.0000
     18 N         -11.7214  -17.1765   20.2588 N.3     1  UNL1        0.0000
     19 C         -10.9414  -18.3272   19.6955 C.3     1  UNL1        0.0000
     20 C         -11.7673  -15.8700   19.5234 C.3     1  UNL1        0.0000
@<TRIPOS>BOND
     1     1     2    1
     2     2     3    1
     3     3     4    1
     4     4     5    2
     5     5     6   ar
     6     6     7   ar
     7     7     8   ar
     8     8     9   ar
     9     9    12    1
    10    12    13    1
    11    13    14    1
    12    14    15    1
    13    14    17    1
    14    17    18    1
    15    18    19    1
    16    18    20    1
    17     9    10   ar
    18    10    11    2
    19    11     2    1
    20    10     5   ar
    21    15    16    1
@<TRIPOS>MOLECULE
*****
 20 21 0 0 0
SMALL
GASTEIGER

@<TRIPOS>ATOM
      1 C          -4.0684  -20.1420   20.2594 C.3     1  UNL1        0.0000
      2 B          -4.2462  -19.1300   21.3522 B       1  UNL1        0.0000
      3 C          -3.0661  -18.6915   22.1676 C.3     1  UNL1        0.0000
      4 C          -3.2438  -17.6795   23.2604 C.2     1  UNL1        0.0000
      5 C          -4.6018  -17.1058   23.5377 C.ar    1  UNL1        0.0000
      6 C          -4.7795  -16.0938   24.6304 C.ar    1  UNL1        0.0000
      7 C          -6.1375  -15.5201   24.9077 C.ar    1  UNL1        0.0000
      8 C          -7.3177  -15.9585   24.0923 C.ar    1  UNL1        0.0000
      9 C          -7.1399  -16.9706   22.9995 C.ar    1  UNL1        0.0000
     10 C          -5.7819  -17.5443   22.7222 C.ar    1  UNL1        0.0000
     11 N          -5.6041  -18.5563   21.6295 N.2     1  UNL1        0.0000
     12 O          -8.3200  -17.4090   22.1840 O.3     1  UNL1        0.0000
     13 C          -9.4730  -16.4736   21.9700 C.3     1  UNL1        0.0000
     14 C         -10.7236  -16.6260   22.7840 C.3     1  UNL1        0.0000
     15 O         -11.8505  -15.6502   22.6175 O.3     1  UNL1        0.0000
     16 H         -12.5772  -15.8907   23.2133 H       1  UNL1        0.0000
     17 C         -10.8473  -17.7544   23.7646 C.3     1  UNL1        0.0000
     18 N         -10.5968  -19.1650   23.3202 N.3     1  UNL1        0.0000
     19 C         -11.1446  -19.6470   22.0097 C.3     1  UNL1        0.0000
     20 C          -9.7984  -20.0936   24.1865 C.3     1  UNL1        0.0000
@<TRIPOS>BOND
     1     1     2    1
     2     2     3    1
     3     3     4    1
     4     4     5    2
     5     5     6   ar
     6     6     7   ar
     7     7     8   ar
     8     8     9   ar
     9     9    12    1
    10    12    13    1
    11    13    14    1
    12    14    15    1
    13    14    17    1
    14    17    18    1
    15    18    19    1
    16    18    20    1
    17     9    10   ar
    18    10    11    2
    19    11     2    1
    20    10     5   ar
    21    15    16    1
@<TRIPOS>MOLECULE
*****
 20 21 0 0 0
SMALL
GASTEIGER

@<TRIPOS>ATOM
      1 C          -3.1387  -19.7397   21.2910 C.3     1  UNL1        0.0000
      2 B          -4.0263  -18.7687   22.0116 B       1  UNL1        0.0000
      3 C          -3.4240  -17.6321   22.7832 C.3     1  UNL1        0.0000
      4 C          -4.3115  -16.6611   23.5038 C.2     1  UNL1        0.0000
      5 C          -5.8015  -16.8266   23.4529 C.ar    1  UNL1        0.0000
      6 C          -6.6891  -15.8556   24.1736 C.ar    1  UNL1        0.0000
      7 C          -8.1790  -16.0212   24.1226 C.ar    1  UNL1        0.0000
      8 C          -8.7814  -17.1578   23.3511 C.ar    1  UNL1        0.0000
      9 C          -7.8938  -18.1288   22.6304 C.ar    1  UNL1        0.0000
     10 C          -6.4038  -17.9632   22.6814 C.ar    1  UNL1        0.0000
     11 N          -5.5162  -18.9342   21.9607 N.2     1  UNL1        0.0000
     12 O          -8.4962  -19.2654   21.8589 O.3     1  UNL1        0.0000
     13 C          -9.9766  -19.5027   21.9061 C.3     1  UNL1        0.0000
     14 C         -10.8490  -19.0250   20.7833 C.3     1  UNL1        0.0000
     15 O         -10.5238  -19.4019   19.3683 O.3     1  UNL1        0.0000
     16 H         -11.1823  -19.0141   18.7709 H       1  UNL1        0.0000
     17 C         -12.0465  -18.1704   21.0755 C.3     1  UNL1        0.0000
     18 N         -11.9097  -16.6772   21.1195 N.3     1  UNL1        0.0000
     19 C         -11.5266  -15.9224   19.8811 C.3     1  UNL1        0.0000
     20 C         -12.1559  -15.9389   22.4018 C.3     1  UNL1        0.0000
@<TRIPOS>BOND
     1     1     2    1
     2     2     3    1
     3     3     4    1
     4     4     5    2
     5     5     6   ar
     6     6     7   ar
     7     7     8   ar
     8     8     9   ar
     9     9    12    1
    10    12    13    1
    11    13    14    1
    12    14    15    1
    13    14    17    1
    14    17    18    1
    15    18    19    1
    16    18    20    1
    17     9    10   ar
    18    10    11    2
    19    11     2    1
    20    10     5   ar
    21    15    16    1
@<TRIPOS>MOLECULE
*****
 20 21 0 0 0
SMALL
GASTEIGER

@<TRIPOS>ATOM
      1 C          -8.5998  -19.7772   19.1834 C.3     1  UNL1        0.0000
      2 B          -7.4511  -19.5207   20.1133 B       1  UNL1        0.0000
      3 C          -6.2809  -20.4589   20.1365 C.3     1  UNL1        0.0000
      4 C          -5.1322  -20.2023   21.0663 C.2     1  UNL1        0.0000
      5 C          -5.1537  -19.0077   21.9731 C.ar    1  UNL1        0.0000
      6 C          -4.0050  -18.7511   22.9030 C.ar    1  UNL1        0.0000
      7 C          -4.0264  -17.5565   23.8097 C.ar    1  UNL1        0.0000
      8 C          -5.1966  -16.6182   23.7866 C.ar    1  UNL1        0.0000
      9 C          -6.3453  -16.8747   22.8567 C.ar    1  UNL1        0.0000
     10 C          -6.3238  -18.0695   21.9500 C.ar    1  UNL1        0.0000
     11 N          -7.4725  -18.3260   21.0201 N.2     1  UNL1        0.0000
     12 O          -7.5155  -15.9366   22.8336 O.3     1  UNL1        0.0000
     13 C          -8.8885  -16.4417   23.1650 C.3     1  UNL1        0.0000
     14 C         -10.0638  -16.0192   22.3344 C.3     1  UNL1        0.0000
     15 O          -9.8447  -15.3760   20.9972 O.3     1  UNL1        0.0000
     16 H         -10.7021  -15.1663   20.5949 H       1  UNL1        0.0000
     17 C         -11.4583  -16.2400   22.8410 C.3     1  UNL1        0.0000
     18 N         -12.1623  -17.5344   22.5600 N.3     1  UNL1        0.0000
     19 C         -13.3085  -17.9679   23.4250 C.3     1  UNL1        0.0000
     20 C         -11.7200  -18.3953   21.4140 C.3     1  UNL1        0.0000
@<TRIPOS>BOND
     1     1     2    1
     2     2     3    1
     3     3     4    1
     4     4     5    2
     5     5     6   ar
     6     6     7   ar
     7     7     8   ar
     8     8     9   ar
     9     9    12    1
    10    12    13    1
    11    13    14    1
    12    14    15    1
    13    14    17    1
    14    17    18    1
    15    18    19    1
    16    18    20    1
    17     9    10   ar
    18    10    11    2
    19    11     2    1
    20    10     5   ar
    21    15    16    1
@<TRIPOS>MOLECULE
*****
 20 21 0 0 0
SMALL
GASTEIGER

@<TRIPOS>ATOM
      1 C          -8.4836  -15.8036   25.6558 C.3     1  UNL1        0.0000
      2 B          -9.2206  -16.3374   24.4634 B       1  UNL1        0.0000
      3 C         -10.4322  -15.6194   23.9474 C.3     1  UNL1        0.0000
      4 C         -11.1692  -16.1532   22.7549 C.2     1  UNL1        0.0000
      5 C         -10.6945  -17.4049   22.0784 C.ar    1  UNL1        0.0000
      6 C         -11.4314  -17.9387   20.8860 C.ar    1  UNL1        0.0000
      7 C         -10.9567  -19.1904   20.2094 C.ar    1  UNL1        0.0000
      8 C          -9.7450  -19.9085   20.7254 C.ar    1  UNL1        0.0000
      9 C          -9.0080  -19.3747   21.9178 C.ar    1  UNL1        0.0000
     10 C          -9.4828  -18.1229   22.5944 C.ar    1  UNL1        0.0000
     11 N          -8.7458  -17.5891   23.7868 N.2     1  UNL1        0.0000
     12 O          -7.7963  -20.0927   22.4338 O.3     1  UNL1        0.0000
     13 C          -6.4846  -19.9603   21.7182 C.3     1  UNL1        0.0000
     14 C          -5.4667  -18.9674   22.1955 C.3     1  UNL1        0.0000
     15 O          -5.8934  -17.5816   22.5797 O.3     1  UNL1        0.0000
     16 H          -5.1185  -17.0717   22.8634 H       1  UNL1        0.0000
     17 C          -4.0221  -19.3603   22.2887 C.3     1  UNL1        0.0000
     18 N          -3.0641  -18.9578   21.2069 N.3     1  UNL1        0.0000
     19 C          -1.7154  -18.4081   21.5658 C.3     1  UNL1        0.0000
     20 C          -3.4548  -19.1051   19.7662 C.3     1  UNL1        0.0000
@<TRIPOS>BOND
     1     1     2    1
     2     2     3    1
     3     3     4    1
     4     4     5    2
     5     5     6   ar
     6     6     7   ar
     7     7     8   ar
     8     8     9   ar
     9     9    12    1
    10    12    13    1
    11    13    14    1
    12    14    15    1
    13    14    17    1
    14    17    18    1
    15    18    19    1
    16    18    20    1
    17     9    10   ar
    18    10    11    2
    19    11     2    1
    20    10     5   ar
    21    15    16    1
