@<TRIPOS>MOLECULE
*****
 25 27 0 0 0
SMALL
GASTEIGER

@<TRIPOS>ATOM
      1 C          -7.4107  -15.0541   27.9274 C.3     1  UNL1        0.0522
      2 C          -7.5290  -15.4063   26.4742 C.ar    1  UNL1        0.0625
      3 C          -8.8817  -15.6167   25.8611 C.ar    1  UNL1        0.0522
      4 C          -9.0000  -15.9689   24.4079 C.ar    1  UNL1        0.1483
      5 C          -7.7655  -16.1108   23.5677 C.ar    1  UNL1        0.0612
      6 C          -6.4128  -15.9004   24.1807 C.ar    1  UNL1        0.1374
      7 N          -6.2946  -15.5481   25.6340 N.ar    1  UNL1       -0.2449
      8 C          -5.1783  -16.0422   23.3405 C.2     1  UNL1        0.2684
      9 O          -4.4807  -14.8204   22.8203 O.2     1  UNL1       -0.2681
     10 N          -4.6414  -17.4058   23.0205 N.am    1  UNL1       -0.2646
     11 H          -5.0993  -18.2077   23.3619 H       1  UNL1        0.1566
     12 C          -3.4069  -17.5476   22.1803 C.ar    1  UNL1        0.1345
     13 C          -3.0002  -18.8969   21.6667 C.ar    1  UNL1        0.0354
     14 C          -1.7657  -19.0387   20.8265 C.ar    1  UNL1        0.0158
     15 C          -0.9380  -17.8312   20.5000 C.ar    1  UNL1        0.0769
     16 CL          0.2966  -17.9730   19.6597 Cl      1  UNL1       -0.0806
     17 C          -1.3447  -16.4818   21.0136 C.ar    1  UNL1        0.1116
     18 N          -2.5792  -16.3401   21.8537 N.ar    1  UNL1       -0.2281
     19 O         -10.3528  -16.1793   23.7948 O.3     1  UNL1       -0.4502
     20 C         -10.4787  -16.8981   22.4843 C.ar    1  UNL1        0.1835
     21 C         -10.4573  -18.3975   22.4462 C.ar    1  UNL1        0.1396
     22 N         -10.5832  -19.1163   21.1357 N.ar    1  UNL1       -0.2192
     23 C         -10.7306  -18.3357   19.8632 C.ar    1  UNL1        0.1991
     24 N         -10.7520  -16.8363   19.9014 N.ar    1  UNL1       -0.2192
     25 C         -10.6260  -16.1176   21.2119 C.ar    1  UNL1        0.1396
@<TRIPOS>BOND
     1     1     2    1
     2     2     3   ar
     3     3     4   ar
     4     4    19    1
     5    19    20    1
     6    20    21   ar
     7    21    22   ar
     8    22    23   ar
     9    23    24   ar
    10    24    25   ar
    11     4     5   ar
    12     5     6   ar
    13     6     8    1
    14     8     9    2
    15     8    10   am
    16    10    12    1
    17    12    13   ar
    18    13    14   ar
    19    14    15   ar
    20    15    16    1
    21    15    17   ar
    22    17    18   ar
    23     6     7   ar
    24     7     2   ar
    25    25    20   ar
    26    18    12   ar
    27    10    11    1
@<TRIPOS>MOLECULE
*****
 25 27 0 0 0
SMALL
GASTEIGER

@<TRIPOS>ATOM
      1 C           5.1098   -2.7683   32.9046 C.3     1  UNL1        0.0522
      2 C           4.5060   -1.4163   33.1444 C.ar    1  UNL1        0.0625
      3 C           4.8858   -0.6310   34.3646 C.ar    1  UNL1        0.0522
      4 C           4.2820    0.7210   34.6044 C.ar    1  UNL1        0.1483
      5 C           3.2983    1.2876   33.6240 C.ar    1  UNL1        0.0612
      6 C           2.9185    0.5023   32.4038 C.ar    1  UNL1        0.1374
      7 N           3.5223   -0.8497   32.1640 N.ar    1  UNL1       -0.2449
      8 C           1.9347    1.0689   31.4233 C.2     1  UNL1        0.2684
      9 O           0.7339    1.8211   31.9155 O.2     1  UNL1       -0.2681
     10 N           2.1519    0.8834   29.9508 N.am    1  UNL1       -0.2646
     11 H           2.9400    0.3897   29.6278 H       1  UNL1        0.1566
     12 C           1.1681    1.4500   28.9703 C.ar    1  UNL1        0.1345
     13 C          -0.0708    0.6801   28.6210 C.ar    1  UNL1        0.0354
     14 C          -1.0545    1.2467   27.6405 C.ar    1  UNL1        0.0158
     15 C          -0.7991    2.5833   27.0094 C.ar    1  UNL1        0.0769
     16 CL         -1.7829    3.1500   26.0290 Cl      1  UNL1       -0.0806
     17 C           0.4398    3.3533   27.3588 C.ar    1  UNL1        0.1116
     18 N           1.4235    2.7866   28.3392 N.ar    1  UNL1       -0.2281
     19 O           4.6619    1.5063   35.8247 O.3     1  UNL1       -0.4502
     20 C           3.6522    1.7432   36.9085 C.ar    1  UNL1        0.1835
     21 C           2.5872    2.7839   36.7269 C.ar    1  UNL1        0.1396
     22 N           1.5776    3.0208   37.8107 N.ar    1  UNL1       -0.2192
     23 C           1.6330    2.2170   39.0760 C.ar    1  UNL1        0.1991
     24 N           2.6980    1.1764   39.2575 N.ar    1  UNL1       -0.2192
     25 C           3.7076    0.9395   38.1737 C.ar    1  UNL1        0.1396
@<TRIPOS>BOND
     1     1     2    1
     2     2     3   ar
     3     3     4   ar
     4     4    19    1
     5    19    20    1
     6    20    21   ar
     7    21    22   ar
     8    22    23   ar
     9    23    24   ar
    10    24    25   ar
    11     4     5   ar
    12     5     6   ar
    13     6     8    1
    14     8     9    2
    15     8    10   am
    16    10    12    1
    17    12    13   ar
    18    13    14   ar
    19    14    15   ar
    20    15    16    1
    21    15    17   ar
    22    17    18   ar
    23     6     7   ar
    24     7     2   ar
    25    25    20   ar
    26    18    12   ar
    27    10    11    1
@<TRIPOS>MOLECULE
*****
 25 27 0 0 0
SMALL
GASTEIGER

@<TRIPOS>ATOM
      1 C          -5.5938  -21.5756   19.7395 C.3     1  UNL1        0.0522
      2 C          -5.7069  -20.4492   20.7236 C.ar    1  UNL1        0.0625
      3 C          -4.4807  -19.6941   21.1435 C.ar    1  UNL1        0.0522
      4 C          -4.5938  -18.5677   22.1276 C.ar    1  UNL1        0.1483
      5 C          -5.9331  -18.1964   22.6918 C.ar    1  UNL1        0.0612
      6 C          -7.1593  -18.9514   22.2719 C.ar    1  UNL1        0.1374
      7 N          -7.0461  -20.0778   21.2878 N.ar    1  UNL1       -0.2449
      8 C          -8.4986  -18.5801   22.8361 C.2     1  UNL1        0.2684
      9 O          -8.6217  -17.4119   23.7690 O.2     1  UNL1       -0.2681
     10 N          -9.7148  -19.3769   22.4675 N.am    1  UNL1       -0.2646
     11 H          -9.6340  -20.1436   21.8552 H       1  UNL1        0.1566
     12 C         -11.0542  -19.0056   23.0317 C.ar    1  UNL1        0.1345
     13 C         -12.0849  -18.3598   22.1539 C.ar    1  UNL1        0.0354
     14 C         -13.4242  -17.9885   22.7181 C.ar    1  UNL1        0.0158
     15 C         -13.7328  -18.2629   24.1601 C.ar    1  UNL1        0.0769
     16 CL        -15.0721  -17.8916   24.7243 Cl      1  UNL1       -0.0806
     17 C         -12.7021  -18.9087   25.0379 C.ar    1  UNL1        0.1116
     18 N         -11.3628  -19.2800   24.4737 N.ar    1  UNL1       -0.2281
     19 O          -3.3675  -17.8127   22.5475 O.3     1  UNL1       -0.4502
     20 C          -2.1894  -17.7221   21.6234 C.ar    1  UNL1        0.1835
     21 C          -1.5948  -18.9704   21.0417 C.ar    1  UNL1        0.1396
     22 N          -0.4168  -18.8799   20.1176 N.ar    1  UNL1       -0.2192
     23 C           0.1667  -17.5410   19.7752 C.ar    1  UNL1        0.1991
     24 N          -0.4279  -16.2928   20.3570 N.ar    1  UNL1       -0.2192
     25 C          -1.6060  -16.3834   21.2811 C.ar    1  UNL1        0.1396
@<TRIPOS>BOND
     1     1     2    1
     2     2     3   ar
     3     3     4   ar
     4     4    19    1
     5    19    20    1
     6    20    21   ar
     7    21    22   ar
     8    22    23   ar
     9    23    24   ar
    10    24    25   ar
    11     4     5   ar
    12     5     6   ar
    13     6     8    1
    14     8     9    2
    15     8    10   am
    16    10    12    1
    17    12    13   ar
    18    13    14   ar
    19    14    15   ar
    20    15    16    1
    21    15    17   ar
    22    17    18   ar
    23     6     7   ar
    24     7     2   ar
    25    25    20   ar
    26    18    12   ar
    27    10    11    1
@<TRIPOS>MOLECULE
*****
 25 27 0 0 0
SMALL
GASTEIGER

@<TRIPOS>ATOM
      1 C           8.8741   -7.5200   24.2420 C.3     1  UNL1        0.0522
      2 C           8.1722   -6.2123   24.4597 C.ar    1  UNL1        0.0625
      3 C           8.2237   -5.5482   25.8036 C.ar    1  UNL1        0.0522
      4 C           7.5218   -4.2405   26.0214 C.ar    1  UNL1        0.1483
      5 C           6.7685   -3.5970   24.8952 C.ar    1  UNL1        0.0612
      6 C           6.7171   -4.2612   23.5512 C.ar    1  UNL1        0.1374
      7 N           7.4189   -5.5688   23.3335 N.ar    1  UNL1       -0.2449
      8 C           5.9637   -3.6176   22.4249 C.2     1  UNL1        0.2684
      9 O           5.6739   -4.3955   21.1755 O.2     1  UNL1       -0.2681
     10 N           5.5003   -2.1964   22.5481 N.am    1  UNL1       -0.2646
     11 H           5.6905   -1.6859   23.3681 H       1  UNL1        0.1566
     12 C           4.7469   -1.5529   21.4218 C.ar    1  UNL1        0.1345
     13 C           3.2488   -1.4896   21.4611 C.ar    1  UNL1        0.0354
     14 C           2.4955   -0.8461   20.3349 C.ar    1  UNL1        0.0158
     15 C           3.2404   -0.2659   19.1693 C.ar    1  UNL1        0.0769
     16 CL          2.4871    0.3776   18.0430 Cl      1  UNL1       -0.0806
     17 C           4.7385   -0.3292   19.1300 C.ar    1  UNL1        0.1116
     18 N           5.4918   -0.9727   20.2562 N.ar    1  UNL1       -0.2281
     19 O           7.5733   -3.5764   27.3654 O.3     1  UNL1       -0.4502
     20 C           7.7967   -4.3984   28.6001 C.ar    1  UNL1        0.1835
     21 C           9.1560   -4.4476   29.2325 C.ar    1  UNL1        0.1396
     22 N           9.3793   -5.2696   30.4672 N.ar    1  UNL1       -0.2192
     23 C           8.2434   -6.0424   31.0694 C.ar    1  UNL1        0.1991
     24 N           6.8842   -5.9931   30.4369 N.ar    1  UNL1       -0.2192
     25 C           6.6608   -5.1711   29.2023 C.ar    1  UNL1        0.1396
@<TRIPOS>BOND
     1     1     2    1
     2     2     3   ar
     3     3     4   ar
     4     4    19    1
     5    19    20    1
     6    20    21   ar
     7    21    22   ar
     8    22    23   ar
     9    23    24   ar
    10    24    25   ar
    11     4     5   ar
    12     5     6   ar
    13     6     8    1
    14     8     9    2
    15     8    10   am
    16    10    12    1
    17    12    13   ar
    18    13    14   ar
    19    14    15   ar
    20    15    16    1
    21    15    17   ar
    22    17    18   ar
    23     6     7   ar
    24     7     2   ar
    25    25    20   ar
    26    18    12   ar
    27    10    11    1
@<TRIPOS>MOLECULE
*****
 25 27 0 0 0
SMALL
GASTEIGER

@<TRIPOS>ATOM
      1 C           4.5625    3.6156   18.0012 C.3     1  UNL1        0.0522
      2 C           3.7127    2.4238   18.3290 C.ar    1  UNL1        0.0625
      3 C           4.1444    1.0535   17.8980 C.ar    1  UNL1        0.0522
      4 C           3.2946   -0.1383   18.2258 C.ar    1  UNL1        0.1483
      5 C           2.0130    0.0402   18.9845 C.ar    1  UNL1        0.0612
      6 C           1.5813    1.4105   19.4155 C.ar    1  UNL1        0.1374
      7 N           2.4311    2.6023   19.0877 N.ar    1  UNL1       -0.2449
      8 C           0.2997    1.5891   20.1743 C.2     1  UNL1        0.2684
      9 O          -0.3882    0.3993   20.7752 O.2     1  UNL1       -0.2681
     10 N          -0.2940    2.9575   20.3321 N.am    1  UNL1       -0.2646
     11 H           0.1575    3.7385   19.9378 H       1  UNL1        0.1566
     12 C          -1.5756    3.1361   21.0909 C.ar    1  UNL1        0.1345
     13 C          -1.5420    3.5377   22.5357 C.ar    1  UNL1        0.0354
     14 C          -2.8236    3.7163   23.2944 C.ar    1  UNL1        0.0158
     15 C          -4.1387    3.4933   22.6083 C.ar    1  UNL1        0.0769
     16 CL         -5.4203    3.6719   23.3671 Cl      1  UNL1       -0.0806
     17 C          -4.1722    3.0917   21.1635 C.ar    1  UNL1        0.1116
     18 N          -2.8907    2.9131   20.4048 N.ar    1  UNL1       -0.2281
     19 O           3.7263   -1.5087   17.7948 O.3     1  UNL1       -0.4502
     20 C           4.6391   -2.3169   18.6687 C.ar    1  UNL1        0.1835
     21 C           6.1058   -2.0055   18.7122 C.ar    1  UNL1        0.1396
     22 N           7.0185   -2.8137   19.5861 N.ar    1  UNL1       -0.2192
     23 C           6.4645   -3.9334   20.4166 C.ar    1  UNL1        0.1991
     24 N           4.9978   -4.2447   20.3731 N.ar    1  UNL1       -0.2192
     25 C           4.0851   -3.4365   19.4991 C.ar    1  UNL1        0.1396
@<TRIPOS>BOND
     1     1     2    1
     2     2     3   ar
     3     3     4   ar
     4     4    19    1
     5    19    20    1
     6    20    21   ar
     7    21    22   ar
     8    22    23   ar
     9    23    24   ar
    10    24    25   ar
    11     4     5   ar
    12     5     6   ar
    13     6     8    1
    14     8     9    2
    15     8    10   am
    16    10    12    1
    17    12    13   ar
    18    13    14   ar
    19    14    15   ar
    20    15    16    1
    21    15    17   ar
    22    17    18   ar
    23     6     7   ar
    24     7     2   ar
    25    25    20   ar
    26    18    12   ar
    27    10    11    1
@<TRIPOS>MOLECULE
*****
 25 27 0 0 0
SMALL
GASTEIGER

@<TRIPOS>ATOM
      1 C           7.5866    0.8876   17.7297 C.3     1  UNL1        0.0522
      2 C           6.4866    0.0006   18.2330 C.ar    1  UNL1        0.0625
      3 C           5.0672    0.2604   17.8236 C.ar    1  UNL1        0.0522
      4 C           3.9672   -0.6266   18.3269 C.ar    1  UNL1        0.1483
      5 C           4.2867   -1.7733   19.2395 C.ar    1  UNL1        0.0612
      6 C           5.7061   -2.0331   19.6489 C.ar    1  UNL1        0.1374
      7 N           6.8061   -1.1461   19.1456 N.ar    1  UNL1       -0.2449
      8 C           6.0257   -3.1799   20.5615 C.2     1  UNL1        0.2684
      9 O           5.0571   -4.3161   20.7056 O.2     1  UNL1       -0.2681
     10 N           7.3138   -3.1904   21.3300 N.am    1  UNL1       -0.2646
     11 H           7.9495   -2.4446   21.2354 H       1  UNL1        0.1566
     12 C           7.6333   -4.3371   22.2427 C.ar    1  UNL1        0.1345
     13 C           7.1162   -4.3417   23.6506 C.ar    1  UNL1        0.0354
     14 C           7.4357   -5.4885   24.5632 C.ar    1  UNL1        0.0158
     15 C           8.2725   -6.6306   24.0678 C.ar    1  UNL1        0.0769
     16 CL          8.5920   -7.7774   24.9805 Cl      1  UNL1       -0.0806
     17 C           8.7896   -6.6260   22.6598 C.ar    1  UNL1        0.1116
     18 N           8.4701   -5.4793   21.7473 N.ar    1  UNL1       -0.2281
     19 O           2.5477   -0.3668   17.9175 O.3     1  UNL1       -0.4502
     20 C           1.6376    0.4128   18.8197 C.ar    1  UNL1        0.1835
     21 C           1.4536    1.8864   18.6077 C.ar    1  UNL1        0.1396
     22 N           0.5436    2.6661   19.5099 N.ar    1  UNL1       -0.2192
     23 C          -0.1824    1.9722   20.6242 C.ar    1  UNL1        0.1991
     24 N           0.0016    0.4987   20.8362 N.ar    1  UNL1       -0.2192
     25 C           0.9116   -0.2810   19.9340 C.ar    1  UNL1        0.1396
@<TRIPOS>BOND
     1     1     2    1
     2     2     3   ar
     3     3     4   ar
     4     4    19    1
     5    19    20    1
     6    20    21   ar
     7    21    22   ar
     8    22    23   ar
     9    23    24   ar
    10    24    25   ar
    11     4     5   ar
    12     5     6   ar
    13     6     8    1
    14     8     9    2
    15     8    10   am
    16    10    12    1
    17    12    13   ar
    18    13    14   ar
    19    14    15   ar
    20    15    16    1
    21    15    17   ar
    22    17    18   ar
    23     6     7   ar
    24     7     2   ar
    25    25    20   ar
    26    18    12   ar
    27    10    11    1
@<TRIPOS>MOLECULE
*****
 25 27 0 0 0
SMALL
GASTEIGER

@<TRIPOS>ATOM
      1 C           4.4705   -4.4765   18.8966 C.3     1  UNL1        0.0522
      2 C           4.4753   -3.7854   20.2279 C.ar    1  UNL1        0.0625
      3 C           3.5891   -2.5975   20.4595 C.ar    1  UNL1        0.0522
      4 C           3.5939   -1.9065   21.7908 C.ar    1  UNL1        0.1483
      5 C           4.4847   -2.4033   22.8906 C.ar    1  UNL1        0.0612
      6 C           5.3708   -3.5912   22.6590 C.ar    1  UNL1        0.1374
      7 N           5.3661   -4.2822   21.3277 N.ar    1  UNL1       -0.2449
      8 C           6.2618   -4.0880   23.7588 C.2     1  UNL1        0.2684
      9 O           7.4420   -4.9549   23.4340 O.2     1  UNL1       -0.2681
     10 N           5.9724   -3.7181   25.1833 N.am    1  UNL1       -0.2646
     11 H           5.1977   -3.1491   25.3965 H       1  UNL1        0.1566
     12 C           6.8633   -4.2149   26.2831 C.ar    1  UNL1        0.1345
     13 C           8.0954   -3.4450   26.6558 C.ar    1  UNL1        0.0354
     14 C           8.9863   -3.9418   27.7556 C.ar    1  UNL1        0.0158
     15 C           8.6450   -5.2087   28.4826 C.ar    1  UNL1        0.0769
     16 CL          9.5359   -5.7056   29.5824 Cl      1  UNL1       -0.0806
     17 C           7.4128   -5.9787   28.1099 C.ar    1  UNL1        0.1116
     18 N           6.5220   -5.4818   27.0102 N.ar    1  UNL1       -0.2281
     19 O           2.7077   -0.7185   22.0223 O.3     1  UNL1       -0.4502
     20 C           2.2726    0.1296   20.8642 C.ar    1  UNL1        0.1835
     21 C           3.1198    1.2854   20.4209 C.ar    1  UNL1        0.1396
     22 N           2.6847    2.1336   19.2628 N.ar    1  UNL1       -0.2192
     23 C           1.4024    1.8259   18.5478 C.ar    1  UNL1        0.1991
     24 N           0.5552    0.6702   18.9911 N.ar    1  UNL1       -0.2192
     25 C           0.9903   -0.1780   20.1493 C.ar    1  UNL1        0.1396
@<TRIPOS>BOND
     1     1     2    1
     2     2     3   ar
     3     3     4   ar
     4     4    19    1
     5    19    20    1
     6    20    21   ar
     7    21    22   ar
     8    22    23   ar
     9    23    24   ar
    10    24    25   ar
    11     4     5   ar
    12     5     6   ar
    13     6     8    1
    14     8     9    2
    15     8    10   am
    16    10    12    1
    17    12    13   ar
    18    13    14   ar
    19    14    15   ar
    20    15    16    1
    21    15    17   ar
    22    17    18   ar
    23     6     7   ar
    24     7     2   ar
    25    25    20   ar
    26    18    12   ar
    27    10    11    1
@<TRIPOS>MOLECULE
*****
 25 27 0 0 0
SMALL
GASTEIGER

@<TRIPOS>ATOM
      1 C           4.4500    0.7725   35.8693 C.3     1  UNL1        0.0522
      2 C           4.3063    0.0491   34.5632 C.ar    1  UNL1        0.0625
      3 C           4.9437   -1.2959   34.3767 C.ar    1  UNL1        0.0522
      4 C           4.8000   -2.0193   33.0706 C.ar    1  UNL1        0.1483
      5 C           4.0190   -1.3979   31.9509 C.ar    1  UNL1        0.0612
      6 C           3.3816   -0.0529   32.1374 C.ar    1  UNL1        0.1374
      7 N           3.5253    0.6705   33.4435 N.ar    1  UNL1       -0.2449
      8 C           2.6005    0.5686   31.0177 C.2     1  UNL1        0.2684
      9 O           2.3993    2.0546   30.9782 O.2     1  UNL1       -0.2681
     10 N           2.0206   -0.2957   29.9376 N.am    1  UNL1       -0.2646
     11 H           2.1527   -1.2710   29.9636 H       1  UNL1        0.1566
     12 C           1.2395    0.3259   28.8180 C.ar    1  UNL1        0.1345
     13 C          -0.2281    0.5884   28.9828 C.ar    1  UNL1        0.0354
     14 C          -1.0091    1.2099   27.8631 C.ar    1  UNL1        0.0158
     15 C          -0.3225    1.5689   26.5787 C.ar    1  UNL1        0.0769
     16 CL         -1.1037    2.1905   25.4590 Cl      1  UNL1       -0.0806
     17 C           1.1450    1.3064   26.4139 C.ar    1  UNL1        0.1116
     18 N           1.9261    0.6849   27.5335 N.ar    1  UNL1       -0.2281
     19 O           5.4375   -3.3644   32.8841 O.3     1  UNL1       -0.4502
     20 C           6.7546   -3.4783   32.1756 C.ar    1  UNL1        0.1835
     21 C           7.7911   -2.4068   32.3422 C.ar    1  UNL1        0.1396
     22 N           9.1082   -2.5208   31.6336 N.ar    1  UNL1       -0.2192
     23 C           9.3890   -3.7063   30.7584 C.ar    1  UNL1        0.1991
     24 N           8.3526   -4.7777   30.5918 N.ar    1  UNL1       -0.2192
     25 C           7.0354   -4.6637   31.3004 C.ar    1  UNL1        0.1396
@<TRIPOS>BOND
     1     1     2    1
     2     2     3   ar
     3     3     4   ar
     4     4    19    1
     5    19    20    1
     6    20    21   ar
     7    21    22   ar
     8    22    23   ar
     9    23    24   ar
    10    24    25   ar
    11     4     5   ar
    12     5     6   ar
    13     6     8    1
    14     8     9    2
    15     8    10   am
    16    10    12    1
    17    12    13   ar
    18    13    14   ar
    19    14    15   ar
    20    15    16    1
    21    15    17   ar
    22    17    18   ar
    23     6     7   ar
    24     7     2   ar
    25    25    20   ar
    26    18    12   ar
    27    10    11    1
@<TRIPOS>MOLECULE
*****
 25 27 0 0 0
SMALL
GASTEIGER

@<TRIPOS>ATOM
      1 C          -1.6078    5.2564   25.5911 C.3     1  UNL1        0.0522
      2 C          -0.9923    3.8891   25.5521 C.ar    1  UNL1        0.0625
      3 C          -1.1717    2.9525   26.7100 C.ar    1  UNL1        0.0522
      4 C          -0.5562    1.5852   26.6709 C.ar    1  UNL1        0.1483
      5 C           0.2386    1.1543   25.4740 C.ar    1  UNL1        0.0612
      6 C           0.4180    2.0909   24.3162 C.ar    1  UNL1        0.1374
      7 N          -0.1975    3.4582   24.3552 N.ar    1  UNL1       -0.2449
      8 C           1.2128    1.6601   23.1192 C.2     1  UNL1        0.2684
      9 O           2.6966    1.8777   23.0863 O.2     1  UNL1       -0.2681
     10 N           0.5239    1.0117   21.9552 N.am    1  UNL1       -0.2646
     11 H          -0.4499    0.8688   21.9768 H       1  UNL1        0.1566
     12 C           1.3188    0.5809   20.7582 C.ar    1  UNL1        0.1345
     13 C           2.0626   -0.7215   20.7810 C.ar    1  UNL1        0.0354
     14 C           2.8574   -1.1522   19.5841 C.ar    1  UNL1        0.0158
     15 C           2.9084   -0.2806   18.3644 C.ar    1  UNL1        0.0769
     16 CL          3.7033   -0.7114   17.1674 Cl      1  UNL1       -0.0806
     17 C           2.1646    1.0217   18.3416 C.ar    1  UNL1        0.1116
     18 N           1.3698    1.4525   19.5385 N.ar    1  UNL1       -0.2281
     19 O          -0.7356    0.6486   27.8289 O.3     1  UNL1       -0.4502
     20 C           0.3211    0.5562   28.8894 C.ar    1  UNL1        0.1835
     21 C           1.4462   -0.4252   28.7437 C.ar    1  UNL1        0.1396
     22 N           2.5029   -0.5175   29.8043 N.ar    1  UNL1       -0.2192
     23 C           2.4346    0.3715   31.0105 C.ar    1  UNL1        0.1991
     24 N           1.3096    1.3529   31.1562 N.ar    1  UNL1       -0.2192
     25 C           0.2528    1.4452   30.0956 C.ar    1  UNL1        0.1396
@<TRIPOS>BOND
     1     1     2    1
     2     2     3   ar
     3     3     4   ar
     4     4    19    1
     5    19    20    1
     6    20    21   ar
     7    21    22   ar
     8    22    23   ar
     9    23    24   ar
    10    24    25   ar
    11     4     5   ar
    12     5     6   ar
    13     6     8    1
    14     8     9    2
    15     8    10   am
    16    10    12    1
    17    12    13   ar
    18    13    14   ar
    19    14    15   ar
    20    15    16    1
    21    15    17   ar
    22    17    18   ar
    23     6     7   ar
    24     7     2   ar
    25    25    20   ar
    26    18    12   ar
    27    10    11    1
