@<TRIPOS>MOLECULE
*****
 35 39 0 0 0
SMALL
GASTEIGER

@<TRIPOS>ATOM
      1 N           2.2338    1.5877   32.1469 N.ar    1  UNL1       -0.2937
      2 C           1.8684    2.4580   33.3127 C.ar    1  UNL1        0.1798
      3 N           2.6644    2.0017   34.4993 N.ar    1  UNL1       -0.2195
      4 C           3.5219    0.8494   34.0669 C.ar    1  UNL1        0.1483
      5 C           4.5106    0.0000   34.8091 C.ar    1  UNL1        0.1516
      6 N           5.2332   -1.1052   34.0976 N.ar    1  UNL1       -0.2031
      7 C           4.9671   -1.3611   32.6437 C.ar    1  UNL1        0.2093
      8 N           3.9783   -0.5117   31.9014 N.ar    1  UNL1       -0.2003
      9 C           3.2557    0.5935   32.6130 C.ar    1  UNL1        0.1678
     10 C           0.7957    2.6022   28.6874 C.3     1  UNL1        0.0977
     11 C           0.8721    4.0414   29.1030 C.3     1  UNL1        0.0136
     12 C           1.3143    2.9636   30.0478 C.3     1  UNL1        0.0344
     13 C           1.6754    1.6931   30.7587 C.3     1  UNL1        0.1180
     14 C           1.3800    0.5465   29.8378 C.3     1  UNL1        0.1582
     15 O           1.5912   -0.9068   30.1434 O.3     1  UNL1       -0.3800
     16 C           0.8363    1.1083   28.5576 C.3     1  UNL1        0.1471
     17 O           0.4085    0.3156   27.3584 O.3     1  UNL1       -0.3814
     18 H           1.3206   -1.4404   29.3799 H       1  UNL1        0.2105
     19 H           0.5364   -0.6299   27.5333 H       1  UNL1        0.2105
     20 C          -1.8086    3.1697   25.7471 C.3     1  UNL1        0.1107
     21 N          -1.2490    2.9088   27.1142 N.am    1  UNL1       -0.3026
     22 C           0.2361    2.8631   27.3204 C.2     1  UNL1        0.2240
     23 O           1.1615    3.0784   26.1597 O.2     1  UNL1       -0.2750
     24 H          -1.8563    2.7674   27.8760 H       1  UNL1        0.1495
     25 N           4.7768    0.2559   36.2630 N.pl3   1  UNL1       -0.3153
     26 C           6.1515    0.0403   36.8231 C.3     1  UNL1        0.1097
     27 H           4.0492    0.5653   36.8496 H       1  UNL1        0.1483
     28 C           5.6897   -2.4663   31.9321 C.1     1  UNL1       -0.0205
     29 C           6.4122   -3.5715   31.2205 C.1     1  UNL1       -0.0502
     30 C           7.1348   -4.6767   30.5089 C.ar    1  UNL1        0.0718
     31 C           8.2504   -5.5065   31.0718 C.ar    1  UNL1        0.0158
     32 C           8.6737   -6.4887   30.0202 C.ar    1  UNL1        0.0144
     33 C           7.8197   -6.2660   28.8072 C.ar    1  UNL1        0.0644
     34 BR          7.9024   -7.0292   27.5185 Br      1  UNL1       -0.0419
     35 S           6.8687   -5.1461   29.1093 S.2     1  UNL1       -0.0718
@<TRIPOS>BOND
     1    20    21    1
     2    21    22   am
     3    22    23    2
     4    10    22    1
     5    10    11    1
     6    12    11    1
     7    12    13    1
     8    13     1    1
     9     1     2   ar
    10     2     3   ar
    11     3     4   ar
    12     4     5   ar
    13     5    25    1
    14    25    26    1
    15     5     6   ar
    16     6     7   ar
    17     7    28    1
    18    28    29    3
    19    29    30    1
    20    30    31   ar
    21    31    32   ar
    22    32    33   ar
    23    33    34    1
    24    33    35   ar
    25     7     8   ar
    26     8     9   ar
    27    13    14    1
    28    14    15    1
    29    14    16    1
    30    16    17    1
    31    12    10    1
    32     9     1   ar
    33    16    10    1
    34     9     4   ar
    35    35    30   ar
    36    21    24    1
    37    25    27    1
    38    15    18    1
    39    17    19    1
@<TRIPOS>MOLECULE
*****
 35 39 0 0 0
SMALL
GASTEIGER

@<TRIPOS>ATOM
      1 N           4.8524   -0.2908   34.0628 N.ar    1  UNL1       -0.2937
      2 C           5.0322    0.0707   35.5075 C.ar    1  UNL1        0.1798
      3 N           4.0642    1.1689   35.8344 N.ar    1  UNL1       -0.2195
      4 C           3.2861    1.4861   34.5918 C.ar    1  UNL1        0.1483
      5 C           2.1969    2.4799   34.3159 C.ar    1  UNL1        0.1516
      6 N           1.5949    2.5715   32.9451 N.ar    1  UNL1       -0.2031
      7 C           2.0820    1.6694   31.8501 C.ar    1  UNL1        0.2093
      8 N           3.1713    0.6756   32.1261 N.ar    1  UNL1       -0.2003
      9 C           3.7732    0.5840   33.4969 C.ar    1  UNL1        0.1678
     10 C           7.3469   -2.4690   32.0384 C.3     1  UNL1        0.0977
     11 C           8.2678   -1.2887   31.9464 C.3     1  UNL1        0.0136
     12 C           6.9605   -1.1651   32.6712 C.3     1  UNL1        0.0344
     13 C           5.6174   -1.3424   33.3153 C.3     1  UNL1        0.1180
     14 C           5.1738   -2.7559   33.0806 C.3     1  UNL1        0.1582
     15 O           3.8872   -3.3660   33.5523 O.3     1  UNL1       -0.3800
     16 C           6.2426   -3.4523   32.2915 C.3     1  UNL1        0.1471
     17 O           6.2126   -4.8809   31.8354 O.3     1  UNL1       -0.3814
     18 H           3.8454   -4.2926   33.2682 H       1  UNL1        0.2105
     19 H           5.3872   -5.2969   32.1298 H       1  UNL1        0.2105
     20 C           8.8627   -4.5718   29.0333 C.3     1  UNL1        0.1107
     21 N           7.9864   -3.6286   29.8032 N.am    1  UNL1       -0.3026
     22 C           8.2232   -3.4122   31.2685 C.2     1  UNL1        0.2240
     23 O           9.3360   -4.1387   31.9639 O.2     1  UNL1       -0.2750
     24 H           7.2560   -3.1517   29.3468 H       1  UNL1        0.1495
     25 N           1.7098    3.3820   35.4108 N.pl3   1  UNL1       -0.3153
     26 C           1.3200    4.7966   35.0993 C.3     1  UNL1        0.1097
     27 H           1.6458    3.0457   36.3339 H       1  UNL1        0.1483
     28 C           1.4801    1.7610   30.4793 C.1     1  UNL1       -0.0205
     29 C           0.8781    1.8526   29.1085 C.1     1  UNL1       -0.0502
     30 C           0.2760    1.9441   27.7376 C.ar    1  UNL1        0.0718
     31 C           0.6506    1.1047   26.5523 C.ar    1  UNL1        0.0158
     32 C          -0.2002    1.5330   25.3936 C.ar    1  UNL1        0.0144
     33 C          -1.1007    2.6372   25.8628 C.ar    1  UNL1        0.0644
     34 BR         -2.1170    3.3603   25.0296 Br      1  UNL1       -0.0419
     35 S          -0.8063    2.8912   27.3115 S.2     1  UNL1       -0.0718
@<TRIPOS>BOND
     1    20    21    1
     2    21    22   am
     3    22    23    2
     4    10    22    1
     5    10    11    1
     6    12    11    1
     7    12    13    1
     8    13     1    1
     9     1     2   ar
    10     2     3   ar
    11     3     4   ar
    12     4     5   ar
    13     5    25    1
    14    25    26    1
    15     5     6   ar
    16     6     7   ar
    17     7    28    1
    18    28    29    3
    19    29    30    1
    20    30    31   ar
    21    31    32   ar
    22    32    33   ar
    23    33    34    1
    24    33    35   ar
    25     7     8   ar
    26     8     9   ar
    27    13    14    1
    28    14    15    1
    29    14    16    1
    30    16    17    1
    31    12    10    1
    32     9     1   ar
    33    16    10    1
    34     9     4   ar
    35    35    30   ar
    36    21    24    1
    37    25    27    1
    38    15    18    1
    39    17    19    1
@<TRIPOS>MOLECULE
*****
 35 39 0 0 0
SMALL
GASTEIGER

@<TRIPOS>ATOM
      1 N           6.9160   -4.4917   24.9503 N.ar    1  UNL1       -0.2937
      2 C           7.7829   -5.3370   24.0649 C.ar    1  UNL1        0.1798
      3 N           7.4401   -5.0184   22.6398 N.ar    1  UNL1       -0.2195
      4 C           6.3613   -3.9762   22.6444 C.ar    1  UNL1        0.1483
      5 C           5.6322   -3.2815   21.5328 C.ar    1  UNL1        0.1516
      6 N           4.5790   -2.2612   21.8491 N.ar    1  UNL1       -0.2031
      7 C           4.2550   -1.9357   23.2771 C.ar    1  UNL1        0.2093
      8 N           4.9843   -2.6305   24.3887 N.ar    1  UNL1       -0.2003
      9 C           6.0374   -3.6507   24.0724 C.ar    1  UNL1        0.1678
     10 C           7.0882   -3.7471   28.7557 C.3     1  UNL1        0.0977
     11 C           7.3742   -2.3092   28.4384 C.3     1  UNL1        0.0136
     12 C           7.1698   -3.2960   27.3274 C.3     1  UNL1        0.0344
     13 C           6.9258   -4.4881   26.4502 C.3     1  UNL1        0.1180
     14 C           6.6934   -5.6759   27.3363 C.3     1  UNL1        0.1582
     15 O           6.4103   -7.0758   26.8781 O.3     1  UNL1       -0.3800
     16 C           6.7938   -5.2179   28.7612 C.3     1  UNL1        0.1471
     17 O           6.6287   -6.0794   29.9779 O.3     1  UNL1       -0.3814
     18 H           6.2996   -7.6526   27.6501 H       1  UNL1        0.2105
     19 H           6.4444   -6.9919   29.7054 H       1  UNL1        0.2105
     20 C           5.9283   -3.0431   32.4852 C.3     1  UNL1        0.1107
     21 N           5.8877   -3.2005   30.9939 N.am    1  UNL1       -0.3026
     22 C           7.1288   -3.5897   30.2469 C.2     1  UNL1        0.2240
     23 O           8.4105   -3.8216   30.9909 O.2     1  UNL1       -0.2750
     24 H           5.0465   -3.0483   30.5056 H       1  UNL1        0.1495
     25 N           5.9561   -3.6070   20.1048 N.pl3   1  UNL1       -0.3153
     26 C           4.8534   -3.9289   19.1402 C.3     1  UNL1        0.1097
     27 H           6.8925   -3.6093   19.8007 H       1  UNL1        0.1483
     28 C           3.2019   -0.9156   23.5935 C.1     1  UNL1       -0.0205
     29 C           2.1488    0.1046   23.9099 C.1     1  UNL1       -0.0502
     30 C           1.0956    1.1248   24.2262 C.ar    1  UNL1        0.0718
     31 C           0.5033    2.1089   23.2615 C.ar    1  UNL1        0.0158
     32 C          -0.5085    2.9323   24.0019 C.ar    1  UNL1        0.0144
     33 C          -0.5416    2.4571   25.4243 C.ar    1  UNL1        0.0644
     34 BR         -1.4130    3.0031   26.5163 Br      1  UNL1       -0.0419
     35 S           0.4498    1.3400   25.5629 S.2     1  UNL1       -0.0718
@<TRIPOS>BOND
     1    20    21    1
     2    21    22   am
     3    22    23    2
     4    10    22    1
     5    10    11    1
     6    12    11    1
     7    12    13    1
     8    13     1    1
     9     1     2   ar
    10     2     3   ar
    11     3     4   ar
    12     4     5   ar
    13     5    25    1
    14    25    26    1
    15     5     6   ar
    16     6     7   ar
    17     7    28    1
    18    28    29    3
    19    29    30    1
    20    30    31   ar
    21    31    32   ar
    22    32    33   ar
    23    33    34    1
    24    33    35   ar
    25     7     8   ar
    26     8     9   ar
    27    13    14    1
    28    14    15    1
    29    14    16    1
    30    16    17    1
    31    12    10    1
    32     9     1   ar
    33    16    10    1
    34     9     4   ar
    35    35    30   ar
    36    21    24    1
    37    25    27    1
    38    15    18    1
    39    17    19    1
@<TRIPOS>MOLECULE
*****
 35 39 0 0 0
SMALL
GASTEIGER

@<TRIPOS>ATOM
      1 N           4.2300   -0.1748   33.1161 N.ar    1  UNL1       -0.2937
      2 C           4.0234    0.3657   34.5000 C.ar    1  UNL1        0.1798
      3 N           3.0144    1.4726   34.4193 N.ar    1  UNL1       -0.2195
      4 C           2.5974    1.6163   32.9856 C.ar    1  UNL1        0.1483
      5 C           1.6306    2.5426   32.3095 C.ar    1  UNL1        0.1516
      6 N           1.4152    2.4508   30.8278 N.ar    1  UNL1       -0.2031
      7 C           2.1665    1.4326   30.0224 C.ar    1  UNL1        0.2093
      8 N           3.1333    0.5062   30.6986 N.ar    1  UNL1       -0.2003
      9 C           3.3487    0.5980   32.1801 C.ar    1  UNL1        0.1678
     10 C           7.0446   -2.5172   31.8290 C.3     1  UNL1        0.0977
     11 C           7.7618   -1.3182   31.2830 C.3     1  UNL1        0.0136
     12 C           6.4518   -1.1492   31.9939 C.3     1  UNL1        0.0344
     13 C           5.1555   -1.2921   32.7350 C.3     1  UNL1        0.1180
     14 C           4.9472   -2.7483   33.0281 C.3     1  UNL1        0.1582
     15 O           3.7768   -3.3430   33.7537 O.3     1  UNL1       -0.3800
     16 C           6.1148   -3.5056   32.4681 C.3     1  UNL1        0.1471
     17 O           6.3169   -4.9903   32.5355 O.3     1  UNL1       -0.3814
     18 H           3.8860   -4.3053   33.8096 H       1  UNL1        0.2105
     19 H           5.5702   -5.3974   33.0018 H       1  UNL1        0.2105
     20 C           8.8816   -5.2809   29.6523 C.3     1  UNL1        0.1107
     21 N           7.8639   -4.2730   30.0981 N.am    1  UNL1       -0.3026
     22 C           8.0623   -3.5251   31.3831 C.2     1  UNL1        0.2240
     23 O           9.2781   -3.7849   32.2223 O.2     1  UNL1       -0.2750
     24 H           7.0659   -4.1024   29.5474 H       1  UNL1        0.1495
     25 N           0.8793    3.5608   33.1149 N.pl3   1  UNL1       -0.3153
     26 C          -0.1607    4.4187   32.4571 C.3     1  UNL1        0.1097
     27 H           1.0687    3.6661   34.0753 H       1  UNL1        0.1483
     28 C           1.9511    1.3407   28.5408 C.1     1  UNL1       -0.0205
     29 C           1.7356    1.2489   27.0592 C.1     1  UNL1       -0.0502
     30 C           1.5202    1.1570   25.5776 C.ar    1  UNL1        0.0718
     31 C           0.3373    1.6886   24.8240 C.ar    1  UNL1        0.0158
     32 C           0.5359    1.3775   23.3701 C.ar    1  UNL1        0.0144
     33 C           1.8417    0.6535   23.2251 C.ar    1  UNL1        0.0644
     34 BR          2.4349    0.1537   21.9413 Br      1  UNL1       -0.0419
     35 S           2.4500    0.5173   24.5895 S.2     1  UNL1       -0.0718
@<TRIPOS>BOND
     1    20    21    1
     2    21    22   am
     3    22    23    2
     4    10    22    1
     5    10    11    1
     6    12    11    1
     7    12    13    1
     8    13     1    1
     9     1     2   ar
    10     2     3   ar
    11     3     4   ar
    12     4     5   ar
    13     5    25    1
    14    25    26    1
    15     5     6   ar
    16     6     7   ar
    17     7    28    1
    18    28    29    3
    19    29    30    1
    20    30    31   ar
    21    31    32   ar
    22    32    33   ar
    23    33    34    1
    24    33    35   ar
    25     7     8   ar
    26     8     9   ar
    27    13    14    1
    28    14    15    1
    29    14    16    1
    30    16    17    1
    31    12    10    1
    32     9     1   ar
    33    16    10    1
    34     9     4   ar
    35    35    30   ar
    36    21    24    1
    37    25    27    1
    38    15    18    1
    39    17    19    1
@<TRIPOS>MOLECULE
*****
 35 39 0 0 0
SMALL
GASTEIGER

@<TRIPOS>ATOM
      1 N           3.6450   -0.5398   31.7086 N.ar    1  UNL1       -0.2937
      2 C           2.5778   -0.3233   30.6771 C.ar    1  UNL1        0.1798
      3 N           1.7373    0.8388   31.1165 N.ar    1  UNL1       -0.2195
      4 C           2.2851    1.3405   32.4197 C.ar    1  UNL1        0.1483
      5 C           1.8626    2.4631   33.3204 C.ar    1  UNL1        0.1516
      6 N           2.6192    2.7337   34.5871 N.ar    1  UNL1       -0.2031
      7 C           3.7982    1.8816   34.9530 C.ar    1  UNL1        0.2093
      8 N           4.2207    0.7590   34.0523 N.ar    1  UNL1       -0.2003
      9 C           3.4641    0.4884   32.7857 C.ar    1  UNL1        0.1678
     10 C           6.6930   -2.8548   31.0637 C.3     1  UNL1        0.0977
     11 C           7.1615   -1.9045   30.0021 C.3     1  UNL1        0.0136
     12 C           5.9010   -1.6171   30.7625 C.3     1  UNL1        0.0344
     13 C           4.7067   -1.5987   31.6700 C.3     1  UNL1        0.1180
     14 C           4.7607   -2.8250   32.5321 C.3     1  UNL1        0.1582
     15 O           3.7623   -3.2078   33.5841 O.3     1  UNL1       -0.3800
     16 C           5.9883   -3.6014   32.1574 C.3     1  UNL1        0.1471
     17 O           6.4330   -4.8968   32.7689 O.3     1  UNL1       -0.3814
     18 H           4.0300   -4.0450   33.9946 H       1  UNL1        0.2105
     19 H           5.8008   -5.1648   33.4540 H       1  UNL1        0.2105
     20 C           8.8622   -5.9036   29.7409 C.3     1  UNL1        0.1107
     21 N           7.7326   -4.9285   29.8936 N.am    1  UNL1       -0.3026
     22 C           7.8226   -3.8299   30.9110 C.2     1  UNL1        0.2240
     23 O           9.0421   -3.7064   31.7757 O.2     1  UNL1       -0.2750
     24 H           6.9322   -5.0095   29.3261 H       1  UNL1        0.1495
     25 N           0.6836    3.3151   32.9544 N.pl3   1  UNL1       -0.3153
     26 C           0.8848    4.5752   32.1659 C.3     1  UNL1        0.1097
     27 H          -0.2223    3.0473   33.2318 H       1  UNL1        0.1483
     28 C           4.5547    2.1522   36.2197 C.1     1  UNL1       -0.0205
     29 C           5.3113    2.4227   37.4863 C.1     1  UNL1       -0.0502
     30 C           6.0678    2.6933   38.7530 C.ar    1  UNL1        0.0718
     31 C           7.5304    2.4464   38.9763 C.ar    1  UNL1        0.0158
     32 C           7.8611    2.8588   40.3801 C.ar    1  UNL1        0.0144
     33 C           6.6028    3.3606   41.0244 C.ar    1  UNL1        0.0644
     34 BR          6.4753    3.8744   42.4279 Br      1  UNL1       -0.0419
     35 S           5.4946    3.2583   40.0188 S.2     1  UNL1       -0.0718
@<TRIPOS>BOND
     1    20    21    1
     2    21    22   am
     3    22    23    2
     4    10    22    1
     5    10    11    1
     6    12    11    1
     7    12    13    1
     8    13     1    1
     9     1     2   ar
    10     2     3   ar
    11     3     4   ar
    12     4     5   ar
    13     5    25    1
    14    25    26    1
    15     5     6   ar
    16     6     7   ar
    17     7    28    1
    18    28    29    3
    19    29    30    1
    20    30    31   ar
    21    31    32   ar
    22    32    33   ar
    23    33    34    1
    24    33    35   ar
    25     7     8   ar
    26     8     9   ar
    27    13    14    1
    28    14    15    1
    29    14    16    1
    30    16    17    1
    31    12    10    1
    32     9     1   ar
    33    16    10    1
    34     9     4   ar
    35    35    30   ar
    36    21    24    1
    37    25    27    1
    38    15    18    1
    39    17    19    1
@<TRIPOS>MOLECULE
*****
 35 39 0 0 0
SMALL
GASTEIGER

@<TRIPOS>ATOM
      1 N           0.4532    2.3455   19.2616 N.ar    1  UNL1       -0.2937
      2 C          -0.1006    3.1404   18.1164 C.ar    1  UNL1        0.1798
      3 N          -1.0911    4.1217   18.6695 N.ar    1  UNL1       -0.2195
      4 C          -1.1494    3.9334   20.1565 C.ar    1  UNL1        0.1483
      5 C          -1.9483    4.6197   21.2245 C.ar    1  UNL1        0.1516
      6 N          -1.7928    4.2082   22.6586 N.ar    1  UNL1       -0.2031
      7 C          -0.8384    3.1104   23.0246 C.ar    1  UNL1        0.2093
      8 N          -0.0395    2.4241   21.9564 N.ar    1  UNL1       -0.2003
      9 C          -0.1950    2.8356   20.5224 C.ar    1  UNL1        0.1678
     10 C           3.5010    0.0278   18.6258 C.3     1  UNL1        0.0977
     11 C           4.1723    1.1498   17.8907 C.3     1  UNL1        0.0136
     12 C           2.8078    1.3500   18.4806 C.3     1  UNL1        0.0344
     13 C           1.4757    1.2524   19.1633 C.3     1  UNL1        0.1180
     14 C           1.3457   -0.1301   19.7304 C.3     1  UNL1        0.1582
     15 O           0.1703   -0.6624   20.4954 O.3     1  UNL1       -0.3800
     16 C           2.5974   -0.8871   19.3982 C.3     1  UNL1        0.1471
     17 O           2.8935   -2.3090   19.7727 O.3     1  UNL1       -0.3814
     18 H           0.3396   -1.5832   20.7489 H       1  UNL1        0.2105
     19 H           2.1452   -2.6750   20.2696 H       1  UNL1        0.2105
     20 C           6.7603   -2.1209   19.3404 C.3     1  UNL1        0.1107
     21 N           5.6489   -1.1294   19.5189 N.am    1  UNL1       -0.3026
     22 C           4.6124   -0.9638   18.4473 C.2     1  UNL1        0.2240
     23 O           4.6872   -1.7895   17.1973 O.2     1  UNL1       -0.2750
     24 H           5.5997   -0.5874   20.3393 H       1  UNL1        0.1495
     25 N          -2.9027    5.7175   20.8585 N.pl3   1  UNL1       -0.3153
     26 C          -4.1989    5.3888   20.1787 C.3     1  UNL1        0.1097
     27 H          -2.6785    6.6537   21.0645 H       1  UNL1        0.1483
     28 C          -0.6828    2.6989   24.4586 C.1     1  UNL1       -0.0205
     29 C          -0.5273    2.2874   25.8926 C.1     1  UNL1       -0.0502
     30 C          -0.3718    1.8760   27.3267 C.ar    1  UNL1        0.0718
     31 C          -0.9753    0.6605   27.9657 C.ar    1  UNL1        0.0158
     32 C          -0.5619    0.6411   29.4074 C.ar    1  UNL1        0.0144
     33 C           0.2972    1.8446   29.6595 C.ar    1  UNL1        0.0644
     34 BR          0.9280    2.2191   30.9679 Br      1  UNL1       -0.0419
     35 S           0.4147    2.6078   28.3736 S.2     1  UNL1       -0.0718
@<TRIPOS>BOND
     1    20    21    1
     2    21    22   am
     3    22    23    2
     4    10    22    1
     5    10    11    1
     6    12    11    1
     7    12    13    1
     8    13     1    1
     9     1     2   ar
    10     2     3   ar
    11     3     4   ar
    12     4     5   ar
    13     5    25    1
    14    25    26    1
    15     5     6   ar
    16     6     7   ar
    17     7    28    1
    18    28    29    3
    19    29    30    1
    20    30    31   ar
    21    31    32   ar
    22    32    33   ar
    23    33    34    1
    24    33    35   ar
    25     7     8   ar
    26     8     9   ar
    27    13    14    1
    28    14    15    1
    29    14    16    1
    30    16    17    1
    31    12    10    1
    32     9     1   ar
    33    16    10    1
    34     9     4   ar
    35    35    30   ar
    36    21    24    1
    37    25    27    1
    38    15    18    1
    39    17    19    1
@<TRIPOS>MOLECULE
*****
 35 39 0 0 0
SMALL
GASTEIGER

@<TRIPOS>ATOM
      1 N           1.9364    0.2940   19.5456 N.ar    1  UNL1       -0.2937
      2 C           1.2684    0.9254   18.3602 C.ar    1  UNL1        0.1798
      3 N           0.2776    1.9307   18.8676 N.ar    1  UNL1       -0.2195
      4 C           0.3332    1.9207   20.3666 C.ar    1  UNL1        0.1483
      5 C          -0.4172    2.7020   21.4041 C.ar    1  UNL1        0.1516
      6 N          -0.1424    2.4717   22.8606 N.ar    1  UNL1       -0.2031
      7 C           0.8828    1.4601   23.2796 C.ar    1  UNL1        0.2093
      8 N           1.6332    0.6788   22.2421 N.ar    1  UNL1       -0.2003
      9 C           1.3584    0.9091   20.7856 C.ar    1  UNL1        0.1678
     10 C           4.5153   -2.5420   20.1553 C.3     1  UNL1        0.0977
     11 C           4.0758   -2.6028   21.5882 C.3     1  UNL1        0.0136
     12 C           3.4381   -1.6224   20.6491 C.3     1  UNL1        0.0344
     13 C           2.9963   -0.7664   19.4992 C.3     1  UNL1        0.1180
     14 C           3.8005   -1.1570   18.2947 C.3     1  UNL1        0.1582
     15 O           3.6860   -0.5559   16.9253 O.3     1  UNL1       -0.3800
     16 C           4.7394   -2.2545   18.7002 C.3     1  UNL1        0.1471
     17 O           5.7285   -2.9433   17.8075 O.3     1  UNL1       -0.3814
     18 H           4.3182   -0.9870   16.3290 H       1  UNL1        0.2105
     19 H           5.6724   -2.5699   16.9140 H       1  UNL1        0.2105
     20 C           7.9403   -4.3998   20.9092 C.3     1  UNL1        0.1107
     21 N           6.9096   -3.3151   20.8033 N.am    1  UNL1       -0.3026
     22 C           5.5461   -3.6267   20.2612 C.2     1  UNL1        0.2240
     23 O           5.2132   -5.0228   19.8251 O.2     1  UNL1       -0.2750
     24 H           7.1280   -2.3988   21.0895 H       1  UNL1        0.1495
     25 N          -1.4425    3.7136   20.9850 N.pl3   1  UNL1       -0.3153
     26 C          -2.7944    3.2620   20.5176 C.3     1  UNL1        0.1097
     27 H          -1.2281    4.6740   21.0168 H       1  UNL1        0.1483
     28 C           1.1576    1.2298   24.7361 C.1     1  UNL1       -0.0205
     29 C           1.4324    0.9995   26.1926 C.1     1  UNL1       -0.0502
     30 C           1.7071    0.7692   27.6492 C.ar    1  UNL1        0.0718
     31 C           2.3524   -0.4478   28.2431 C.ar    1  UNL1        0.0158
     32 C           2.4289   -0.2536   29.7285 C.ar    1  UNL1        0.0144
     33 C           1.8310    1.0834   30.0527 C.ar    1  UNL1        0.0644
     34 BR          1.7018    1.6829   31.4215 Br      1  UNL1       -0.0419
     35 S           1.3849    1.7155   28.7676 S.2     1  UNL1       -0.0718
@<TRIPOS>BOND
     1    20    21    1
     2    21    22   am
     3    22    23    2
     4    10    22    1
     5    10    11    1
     6    12    11    1
     7    12    13    1
     8    13     1    1
     9     1     2   ar
    10     2     3   ar
    11     3     4   ar
    12     4     5   ar
    13     5    25    1
    14    25    26    1
    15     5     6   ar
    16     6     7   ar
    17     7    28    1
    18    28    29    3
    19    29    30    1
    20    30    31   ar
    21    31    32   ar
    22    32    33   ar
    23    33    34    1
    24    33    35   ar
    25     7     8   ar
    26     8     9   ar
    27    13    14    1
    28    14    15    1
    29    14    16    1
    30    16    17    1
    31    12    10    1
    32     9     1   ar
    33    16    10    1
    34     9     4   ar
    35    35    30   ar
    36    21    24    1
    37    25    27    1
    38    15    18    1
    39    17    19    1
@<TRIPOS>MOLECULE
*****
 35 39 0 0 0
SMALL
GASTEIGER

@<TRIPOS>ATOM
      1 N           4.0533   -0.5261   31.6046 N.ar    1  UNL1       -0.2937
      2 C           3.5656    0.2210   32.8104 C.ar    1  UNL1        0.1798
      3 N           2.6053    1.2752   32.3452 N.ar    1  UNL1       -0.2195
      4 C           2.4994    1.1796   30.8520 C.ar    1  UNL1        0.1483
      5 C           1.7037    1.9624   29.8501 C.ar    1  UNL1        0.1516
      6 N           1.8029    1.6319   28.3902 N.ar    1  UNL1       -0.2031
      7 C           2.6979    0.5186   27.9325 C.ar    1  UNL1        0.2093
      8 N           3.4936   -0.2642   28.9345 N.ar    1  UNL1       -0.2003
      9 C           3.3944    0.0663   30.3943 C.ar    1  UNL1        0.1678
     10 C           6.9294   -3.0789   31.0785 C.3     1  UNL1        0.0977
     11 C           7.5083   -2.1763   30.0296 C.3     1  UNL1        0.0136
     12 C           6.2487   -1.7849   30.7437 C.3     1  UNL1        0.0344
     13 C           5.0288   -1.6657   31.6084 C.3     1  UNL1        0.1180
     14 C           4.9556   -2.8860   32.4775 C.3     1  UNL1        0.1582
     15 O           3.8941   -3.1811   33.4955 O.3     1  UNL1       -0.3800
     16 C           6.1303   -3.7595   32.1500 C.3     1  UNL1        0.1471
     17 O           6.4497   -5.0813   32.7829 O.3     1  UNL1       -0.3814
     18 H           4.0803   -4.0337   33.9190 H       1  UNL1        0.2105
     19 H           5.7748   -5.2936   33.4465 H       1  UNL1        0.2105
     20 C           8.8355   -6.3679   29.9384 C.3     1  UNL1        0.1107
     21 N           7.7818   -5.3057   30.0466 N.am    1  UNL1       -0.3026
     22 C           7.9831   -4.1411   30.9703 C.2     1  UNL1        0.2240
     23 O           9.2379   -4.0386   31.7857 O.2     1  UNL1       -0.2750
     24 H           6.9582   -5.3730   29.5114 H       1  UNL1        0.1495
     25 N           0.8087    3.0757   30.3078 N.pl3   1  UNL1       -0.3153
     26 C           0.5922    4.2729   29.4304 C.3     1  UNL1        0.1097
     27 H           0.3634    3.0206   31.1841 H       1  UNL1        0.1483
     28 C           2.7972    0.1881   26.4727 C.1     1  UNL1       -0.0205
     29 C           2.8965   -0.1424   25.0130 C.1     1  UNL1       -0.0502
     30 C           2.9957   -0.4728   23.5532 C.ar    1  UNL1        0.0718
     31 C           3.7987   -1.5895   22.9546 C.ar    1  UNL1        0.0158
     32 C           3.6087   -1.5514   21.4672 C.ar    1  UNL1        0.0144
     33 C           2.6882   -0.4112   21.1464 C.ar    1  UNL1        0.0644
     34 BR          2.2276   -0.0083   19.7770 Br      1  UNL1       -0.0419
     35 S           2.3095    0.2554   22.4357 S.2     1  UNL1       -0.0718
@<TRIPOS>BOND
     1    20    21    1
     2    21    22   am
     3    22    23    2
     4    10    22    1
     5    10    11    1
     6    12    11    1
     7    12    13    1
     8    13     1    1
     9     1     2   ar
    10     2     3   ar
    11     3     4   ar
    12     4     5   ar
    13     5    25    1
    14    25    26    1
    15     5     6   ar
    16     6     7   ar
    17     7    28    1
    18    28    29    3
    19    29    30    1
    20    30    31   ar
    21    31    32   ar
    22    32    33   ar
    23    33    34    1
    24    33    35   ar
    25     7     8   ar
    26     8     9   ar
    27    13    14    1
    28    14    15    1
    29    14    16    1
    30    16    17    1
    31    12    10    1
    32     9     1   ar
    33    16    10    1
    34     9     4   ar
    35    35    30   ar
    36    21    24    1
    37    25    27    1
    38    15    18    1
    39    17    19    1
@<TRIPOS>MOLECULE
*****
 35 39 0 0 0
SMALL
GASTEIGER

@<TRIPOS>ATOM
      1 N           7.0306   -4.2079   30.4757 N.ar    1  UNL1       -0.2937
      2 C           7.7684   -5.1442   31.3861 C.ar    1  UNL1        0.1798
      3 N           8.3866   -6.2196   30.5427 N.ar    1  UNL1       -0.2195
      4 C           8.0308   -5.9480   29.1111 C.ar    1  UNL1        0.1483
      5 C           8.3616   -6.6721   27.8398 C.ar    1  UNL1        0.1516
      6 N           7.8544   -6.1529   26.5271 N.ar    1  UNL1       -0.2031
      7 C           7.0163   -4.9096   26.4857 C.ar    1  UNL1        0.2093
      8 N           6.6855   -4.1854   27.7570 N.ar    1  UNL1       -0.2003
      9 C           7.1927   -4.7046   29.0697 C.ar    1  UNL1        0.1678
     10 C           4.8482   -1.4745   32.1584 C.3     1  UNL1        0.0977
     11 C           4.5405   -2.4354   33.2683 C.3     1  UNL1        0.0136
     12 C           5.4288   -2.8574   32.1357 C.3     1  UNL1        0.0344
     13 C           6.2650   -2.9888   30.8973 C.3     1  UNL1        0.1180
     14 C           6.2011   -1.6872   30.1546 C.3     1  UNL1        0.1582
     15 O           6.8917   -1.3761   28.8598 O.3     1  UNL1       -0.3800
     16 C           5.3255   -0.7512   30.9340 C.3     1  UNL1        0.1471
     17 O           4.9867    0.6600   30.5554 O.3     1  UNL1       -0.3814
     18 H           6.6865   -0.4659   28.5946 H       1  UNL1        0.2105
     19 H           5.4234    0.8841   29.7188 H       1  UNL1        0.2105
     20 C           3.7991    1.6846   34.3193 C.3     1  UNL1        0.1107
     21 N           4.6104    0.5477   33.7720 N.am    1  UNL1       -0.3026
     22 C           4.0369   -0.3377   32.7057 C.2     1  UNL1        0.2240
     23 O           2.6522   -0.0864   32.1866 O.2     1  UNL1       -0.2750
     24 H           5.5192    0.3827   34.1127 H       1  UNL1        0.1495
     25 N           9.1997   -7.9155   27.8812 N.pl3   1  UNL1       -0.3153
     26 C           8.5708   -9.2528   27.6239 C.3     1  UNL1        0.1097
     27 H          10.1625   -7.8538   28.0773 H       1  UNL1        0.1483
     28 C           6.5091   -4.3903   25.1730 C.1     1  UNL1       -0.0205
     29 C           6.0018   -3.8711   23.8604 C.1     1  UNL1       -0.0502
     30 C           5.4946   -3.3519   22.5476 C.ar    1  UNL1        0.0718
     31 C           4.2624   -2.5210   22.3449 C.ar    1  UNL1        0.0158
     32 C           4.1368   -2.2280   20.8792 C.ar    1  UNL1        0.0144
     33 C           5.2915   -2.8779   20.1760 C.ar    1  UNL1        0.0644
     34 BR          5.5599   -2.8399   18.7007 Br      1  UNL1       -0.0419
     35 S           6.1306   -3.5725   21.2072 S.2     1  UNL1       -0.0718
@<TRIPOS>BOND
     1    20    21    1
     2    21    22   am
     3    22    23    2
     4    10    22    1
     5    10    11    1
     6    12    11    1
     7    12    13    1
     8    13     1    1
     9     1     2   ar
    10     2     3   ar
    11     3     4   ar
    12     4     5   ar
    13     5    25    1
    14    25    26    1
    15     5     6   ar
    16     6     7   ar
    17     7    28    1
    18    28    29    3
    19    29    30    1
    20    30    31   ar
    21    31    32   ar
    22    32    33   ar
    23    33    34    1
    24    33    35   ar
    25     7     8   ar
    26     8     9   ar
    27    13    14    1
    28    14    15    1
    29    14    16    1
    30    16    17    1
    31    12    10    1
    32     9     1   ar
    33    16    10    1
    34     9     4   ar
    35    35    30   ar
    36    21    24    1
    37    25    27    1
    38    15    18    1
    39    17    19    1
