@<TRIPOS>MOLECULE
*****
 29 31 0 0 0
SMALL
GASTEIGER

@<TRIPOS>ATOM
      1 C          -6.8254  -20.0746   21.7299 C.3     1  UNL1        0.0391
      2 C          -6.4738  -21.1361   20.7301 C.3     1  UNL1        0.1429
      3 O          -5.1201  -20.8149   20.1696 O.3     1  UNL1       -0.3518
      4 C          -4.6350  -19.5548   20.8229 C.3     1  UNL1        0.1399
      5 C          -5.6890  -19.0973   21.7872 C.3     1  UNL1        0.0635
      6 C          -3.3259  -18.8720   20.5584 C.ar    1  UNL1        0.0078
      7 C          -2.4666  -18.4276   21.7048 C.ar    1  UNL1        0.0014
      8 C          -1.1575  -17.7449   21.4403 C.ar    1  UNL1        0.0395
      9 C          -0.7075  -17.5066   20.0294 C.ar    1  UNL1        0.1675
     10 O           0.6016  -16.8238   19.7647 O.3     1  UNL1       -0.5029
     11 C          -1.5668  -17.9510   18.8829 C.ar    1  UNL1        0.1672
     12 O          -1.1168  -17.7127   17.4719 O.3     1  UNL1       -0.5029
     13 C          -2.8759  -18.6337   19.1474 C.ar    1  UNL1        0.0378
     14 H           1.1384  -16.5462   20.4808 H       1  UNL1        0.2923
     15 H          -0.2990  -17.2862   17.3067 H       1  UNL1        0.2923
     16 C          -5.6187  -17.8767   22.6563 C.3     1  UNL1        0.1399
     17 O          -6.7039  -16.8434   22.5875 O.3     1  UNL1       -0.3819
     18 H          -6.6937  -16.4215   21.7141 H       1  UNL1        0.2104
     19 C          -8.0912  -20.0029   22.5315 C.3     1  UNL1        0.0291
     20 C         -11.4248  -17.8513   22.4402 C.ar    1  UNL1        0.1718
     21 C         -10.2480  -18.6203   22.9636 C.ar    1  UNL1        0.0358
     22 C          -9.2680  -19.2340   22.0081 C.ar    1  UNL1       -0.0189
     23 C          -9.4647  -19.0787   20.5292 C.ar    1  UNL1       -0.0010
     24 C         -10.6414  -18.3098   20.0058 C.ar    1  UNL1        0.0395
     25 C         -11.6215  -17.6961   20.9613 C.ar    1  UNL1        0.1677
     26 O         -12.7982  -16.9271   20.4378 O.3     1  UNL1       -0.5029
     27 H         -12.9211  -16.8301   19.5140 H       1  UNL1        0.2923
     28 C         -13.6364  -17.9945   23.7959 C.3     1  UNL1        0.2526
     29 O         -12.4048  -17.2377   23.3957 O.3     1  UNL1       -0.4684
@<TRIPOS>BOND
     1    28    29    1
     2    29    20    1
     3    20    21   ar
     4    21    22   ar
     5    22    19    1
     6     1    19    1
     7     1     2    1
     8     2     3    1
     9     3     4    1
    10     4     6    1
    11     6     7   ar
    12     7     8   ar
    13     8     9   ar
    14     9    10    1
    15     9    11   ar
    16    11    12    1
    17    11    13   ar
    18     4     5    1
    19     5    16    1
    20    16    17    1
    21    22    23   ar
    22    23    24   ar
    23    24    25   ar
    24    25    26    1
    25    25    20   ar
    26     5     1    1
    27    13     6   ar
    28    10    14    1
    29    12    15    1
    30    17    18    1
    31    26    27    1
@<TRIPOS>MOLECULE
*****
 29 31 0 0 0
SMALL
GASTEIGER

@<TRIPOS>ATOM
      1 C          -9.3994  -18.9856   19.9559 C.3     1  UNL1        0.0391
      2 C          -9.0133  -20.0915   19.0190 C.3     1  UNL1        0.1429
      3 O          -7.5393  -20.3287   19.1642 O.3     1  UNL1       -0.3518
      4 C          -7.0144  -19.3692   20.1908 C.3     1  UNL1        0.1399
      5 C          -8.1640  -18.5392   20.6801 C.3     1  UNL1        0.0635
      6 C          -5.5900  -19.2592   20.6479 C.ar    1  UNL1        0.0078
      7 C          -5.2518  -19.4383   22.0983 C.ar    1  UNL1        0.0014
      8 C          -3.8274  -19.3282   22.5554 C.ar    1  UNL1        0.0395
      9 C          -2.7412  -19.0390   21.5621 C.ar    1  UNL1        0.1675
     10 O          -1.3167  -18.9289   22.0191 O.3     1  UNL1       -0.5029
     11 C          -3.0795  -18.8599   20.1118 C.ar    1  UNL1        0.1672
     12 O          -1.9932  -18.5706   19.1185 O.3     1  UNL1       -0.5029
     13 C          -4.5039  -18.9699   19.6547 C.ar    1  UNL1        0.0378
     14 H          -1.1054  -19.0408   22.9251 H       1  UNL1        0.2923
     15 H          -1.1034  -18.5019   19.4040 H       1  UNL1        0.2923
     16 C          -8.0910  -17.4534   21.7124 C.3     1  UNL1        0.1399
     17 O          -8.6638  -16.0987   21.4180 O.3     1  UNL1       -0.3819
     18 H          -8.1549  -15.6802   20.7061 H       1  UNL1        0.2104
     19 C         -10.7788  -18.4246   20.1368 C.3     1  UNL1        0.0291
     20 C         -11.4504  -19.2670   23.9564 C.ar    1  UNL1        0.1718
     21 C         -10.7970  -19.2304   22.6068 C.ar    1  UNL1        0.0358
     22 C         -11.4322  -18.4612   21.4866 C.ar    1  UNL1       -0.0189
     23 C         -12.7208  -17.7286   21.7161 C.ar    1  UNL1       -0.0010
     24 C         -13.3742  -17.7652   23.0658 C.ar    1  UNL1        0.0395
     25 C         -12.7390  -18.5344   24.1859 C.ar    1  UNL1        0.1677
     26 O         -13.3925  -18.5710   25.5357 O.3     1  UNL1       -0.5029
     27 H         -14.1975  -18.1134   25.6790 H       1  UNL1        0.2923
     28 C          -9.6298  -20.9145   24.8056 C.3     1  UNL1        0.2526
     29 O         -10.8152  -20.0363   25.0766 O.3     1  UNL1       -0.4684
@<TRIPOS>BOND
     1    28    29    1
     2    29    20    1
     3    20    21   ar
     4    21    22   ar
     5    22    19    1
     6     1    19    1
     7     1     2    1
     8     2     3    1
     9     3     4    1
    10     4     6    1
    11     6     7   ar
    12     7     8   ar
    13     8     9   ar
    14     9    10    1
    15     9    11   ar
    16    11    12    1
    17    11    13   ar
    18     4     5    1
    19     5    16    1
    20    16    17    1
    21    22    23   ar
    22    23    24   ar
    23    24    25   ar
    24    25    26    1
    25    25    20   ar
    26     5     1    1
    27    13     6   ar
    28    10    14    1
    29    12    15    1
    30    17    18    1
    31    26    27    1
@<TRIPOS>MOLECULE
*****
 29 31 0 0 0
SMALL
GASTEIGER

@<TRIPOS>ATOM
      1 C          -7.2930  -18.9310   22.2772 C.3     1  UNL1        0.0391
      2 C          -7.4663  -19.8677   21.1184 C.3     1  UNL1        0.1429
      3 O          -6.1476  -19.9808   20.4125 O.3     1  UNL1       -0.3518
      4 C          -5.1593  -19.1140   21.1349 C.3     1  UNL1        0.1399
      5 C          -5.8672  -18.4653   22.2873 C.3     1  UNL1        0.0635
      6 C          -3.7164  -18.9286   20.7692 C.ar    1  UNL1        0.0078
      7 C          -2.6423  -19.2600   21.7624 C.ar    1  UNL1        0.0014
      8 C          -1.1995  -19.0745   21.3967 C.ar    1  UNL1        0.0395
      9 C          -0.8307  -18.5576   20.0377 C.ar    1  UNL1        0.1675
     10 O           0.6121  -18.3721   19.6719 O.3     1  UNL1       -0.5029
     11 C          -1.9048  -18.2262   19.0445 C.ar    1  UNL1        0.1672
     12 O          -1.5360  -17.7093   17.6855 O.3     1  UNL1       -0.5029
     13 C          -3.3477  -18.4117   19.4102 C.ar    1  UNL1        0.0378
     14 H           1.2831  -18.5791   20.2922 H       1  UNL1        0.2923
     15 H          -0.6347  -17.5934   17.4570 H       1  UNL1        0.2923
     16 C          -5.2564  -17.5172   23.2763 C.3     1  UNL1        0.1399
     17 O          -5.6046  -16.0588   23.2311 O.3     1  UNL1       -0.3819
     18 H          -5.2696  -15.6718   22.4071 H       1  UNL1        0.2104
     19 C          -8.3584  -18.5305   23.2541 C.3     1  UNL1        0.0291
     20 C         -11.4347  -17.6172   20.9192 C.ar    1  UNL1        0.1718
     21 C         -10.0263  -17.8279   21.3902 C.ar    1  UNL1        0.0358
     22 C          -9.7669  -18.3198   22.7832 C.ar    1  UNL1       -0.0189
     23 C         -10.9160  -18.6011   23.7054 C.ar    1  UNL1       -0.0010
     24 C         -12.3244  -18.3904   23.2345 C.ar    1  UNL1        0.0395
     25 C         -12.5838  -17.8984   21.8414 C.ar    1  UNL1        0.1677
     26 O         -13.9924  -17.6878   21.3705 O.3     1  UNL1       -0.5029
     27 H         -14.7102  -17.8635   21.9466 H       1  UNL1        0.2923
     28 C         -11.6695  -15.6543   19.2335 C.3     1  UNL1        0.2526
     29 O         -11.6941  -17.1252   19.5262 O.3     1  UNL1       -0.4684
@<TRIPOS>BOND
     1    28    29    1
     2    29    20    1
     3    20    21   ar
     4    21    22   ar
     5    22    19    1
     6     1    19    1
     7     1     2    1
     8     2     3    1
     9     3     4    1
    10     4     6    1
    11     6     7   ar
    12     7     8   ar
    13     8     9   ar
    14     9    10    1
    15     9    11   ar
    16    11    12    1
    17    11    13   ar
    18     4     5    1
    19     5    16    1
    20    16    17    1
    21    22    23   ar
    22    23    24   ar
    23    24    25   ar
    24    25    26    1
    25    25    20   ar
    26     5     1    1
    27    13     6   ar
    28    10    14    1
    29    12    15    1
    30    17    18    1
    31    26    27    1
@<TRIPOS>MOLECULE
*****
 29 31 0 0 0
SMALL
GASTEIGER

@<TRIPOS>ATOM
      1 C         -14.4674   -5.4123   19.7377 C.3     1  UNL1        0.0391
      2 C         -15.7093   -4.6569   20.1078 C.3     1  UNL1        0.1429
      3 O         -16.8921   -5.4497   19.6360 O.3     1  UNL1       -0.3518
      4 C         -16.3811   -6.6950   18.9742 C.3     1  UNL1        0.1399
      5 C         -14.8826   -6.6719   19.0371 C.3     1  UNL1        0.0635
      6 C         -17.2212   -7.7741   18.3578 C.ar    1  UNL1        0.0078
      7 C         -18.1747   -7.4409   17.2488 C.ar    1  UNL1        0.0014
      8 C         -19.0147   -8.5199   16.6324 C.ar    1  UNL1        0.0395
      9 C         -18.9012   -9.9322   17.1249 C.ar    1  UNL1        0.1675
     10 O         -19.7412  -11.0113   16.5086 O.3     1  UNL1       -0.5029
     11 C         -17.9477  -10.2654   18.2339 C.ar    1  UNL1        0.1672
     12 O         -17.8343  -11.6777   18.7265 O.3     1  UNL1       -0.5029
     13 C         -17.1077   -9.1863   18.8503 C.ar    1  UNL1        0.0378
     14 H         -20.3368  -10.8032   15.8158 H       1  UNL1        0.2923
     15 H         -18.3590  -12.3518   18.3414 H       1  UNL1        0.2923
     16 C         -13.9611   -7.7238   18.4946 C.3     1  UNL1        0.1399
     17 O         -14.0818   -9.1426   18.9663 O.3     1  UNL1       -0.3819
     18 H         -13.8484   -9.1917   19.9065 H       1  UNL1        0.2104
     19 C         -13.0578   -4.9833   20.0188 C.3     1  UNL1        0.0291
     20 C         -10.7565   -2.8159   17.6196 C.ar    1  UNL1        0.1718
     21 C         -11.3390   -3.9960   18.3392 C.ar    1  UNL1        0.0358
     22 C         -12.4753   -3.8031   19.2992 C.ar    1  UNL1       -0.0189
     23 C         -13.0292   -2.4300   19.5396 C.ar    1  UNL1       -0.0010
     24 C         -12.4467   -1.2498   18.8200 C.ar    1  UNL1        0.0395
     25 C         -11.3104   -1.4428   17.8600 C.ar    1  UNL1        0.1677
     26 O         -10.7279   -0.2625   17.1404 O.3     1  UNL1       -0.5029
     27 H         -11.0739    0.5952   17.2905 H       1  UNL1        0.2923
     28 C          -8.9507   -4.3465   16.5491 C.3     1  UNL1        0.2526
     29 O          -9.6202   -3.0088   16.6596 O.3     1  UNL1       -0.4684
@<TRIPOS>BOND
     1    28    29    1
     2    29    20    1
     3    20    21   ar
     4    21    22   ar
     5    22    19    1
     6     1    19    1
     7     1     2    1
     8     2     3    1
     9     3     4    1
    10     4     6    1
    11     6     7   ar
    12     7     8   ar
    13     8     9   ar
    14     9    10    1
    15     9    11   ar
    16    11    12    1
    17    11    13   ar
    18     4     5    1
    19     5    16    1
    20    16    17    1
    21    22    23   ar
    22    23    24   ar
    23    24    25   ar
    24    25    26    1
    25    25    20   ar
    26     5     1    1
    27    13     6   ar
    28    10    14    1
    29    12    15    1
    30    17    18    1
    31    26    27    1
@<TRIPOS>MOLECULE
*****
 29 31 0 0 0
SMALL
GASTEIGER

@<TRIPOS>ATOM
      1 C         -13.2751   -5.8227   19.3530 C.3     1  UNL1        0.0391
      2 C         -14.3506   -5.1099   20.1180 C.3     1  UNL1        0.1429
      3 O         -15.6319   -5.8670   19.9312 O.3     1  UNL1       -0.3518
      4 C         -15.3484   -7.0478   19.0507 C.3     1  UNL1        0.1399
      5 C         -13.8919   -7.0204   18.6933 C.3     1  UNL1        0.0635
      6 C         -16.3462   -8.0756   18.6056 C.ar    1  UNL1        0.0078
      7 C         -17.4534   -7.6901   17.6698 C.ar    1  UNL1        0.0014
      8 C         -18.4512   -8.7178   17.2247 C.ar    1  UNL1        0.0395
      9 C         -18.3419  -10.1310   17.7155 C.ar    1  UNL1        0.1675
     10 O         -19.3396  -11.1589   17.2705 O.3     1  UNL1       -0.5029
     11 C         -17.2347  -10.5165   18.6512 C.ar    1  UNL1        0.1672
     12 O         -17.1254  -11.9298   19.1420 O.3     1  UNL1       -0.5029
     13 C         -16.2369   -9.4888   19.0963 C.ar    1  UNL1        0.0378
     14 H         -20.0312  -10.9182   16.6859 H       1  UNL1        0.2923
     15 H         -17.7487  -12.5718   18.8639 H       1  UNL1        0.2923
     16 C         -13.1774   -8.0160   17.8282 C.3     1  UNL1        0.1399
     17 O         -13.6684   -8.2900   16.4375 O.3     1  UNL1       -0.3819
     18 H         -14.5420   -8.7093   16.4798 H       1  UNL1        0.2104
     19 C         -11.8358   -5.4103   19.2634 C.3     1  UNL1        0.0291
     20 C         -11.6146   -1.6108   18.1387 C.ar    1  UNL1        0.1718
     21 C         -11.9956   -2.8418   18.9064 C.ar    1  UNL1        0.0358
     22 C         -11.4547   -4.1792   18.4956 C.ar    1  UNL1       -0.0189
     23 C         -10.5329   -4.2856   17.3171 C.ar    1  UNL1       -0.0010
     24 C         -10.1520   -3.0546   16.5494 C.ar    1  UNL1        0.0395
     25 C         -10.6928   -1.7172   16.9602 C.ar    1  UNL1        0.1677
     26 O         -10.3118   -0.4861   16.1924 O.3     1  UNL1       -0.5029
     27 H          -9.7360   -0.5526   15.4562 H       1  UNL1        0.2923
     28 C         -13.5725    0.0950   18.2234 C.3     1  UNL1        0.2526
     29 O         -12.1554   -0.2733   18.5495 O.3     1  UNL1       -0.4684
@<TRIPOS>BOND
     1    28    29    1
     2    29    20    1
     3    20    21   ar
     4    21    22   ar
     5    22    19    1
     6     1    19    1
     7     1     2    1
     8     2     3    1
     9     3     4    1
    10     4     6    1
    11     6     7   ar
    12     7     8   ar
    13     8     9   ar
    14     9    10    1
    15     9    11   ar
    16    11    12    1
    17    11    13   ar
    18     4     5    1
    19     5    16    1
    20    16    17    1
    21    22    23   ar
    22    23    24   ar
    23    24    25   ar
    24    25    26    1
    25    25    20   ar
    26     5     1    1
    27    13     6   ar
    28    10    14    1
    29    12    15    1
    30    17    18    1
    31    26    27    1
@<TRIPOS>MOLECULE
*****
 29 31 0 0 0
SMALL
GASTEIGER

@<TRIPOS>ATOM
      1 C           7.2117   -1.8244   22.3257 C.3     1  UNL1        0.0391
      2 C           8.6956   -2.0349   22.2643 C.3     1  UNL1        0.1429
      3 O           9.0208   -3.2737   23.0452 O.3     1  UNL1       -0.3518
      4 C           7.7378   -3.8288   23.5891 C.3     1  UNL1        0.1399
      5 C           6.6198   -2.9331   23.1445 C.3     1  UNL1        0.0635
      6 C           7.5975   -5.0629   24.4301 C.ar    1  UNL1        0.0078
      7 C           8.1464   -6.3704   23.9409 C.ar    1  UNL1        0.0014
      8 C           8.0061   -7.6045   24.7819 C.ar    1  UNL1        0.0395
      9 C           7.3169   -7.5312   26.1121 C.ar    1  UNL1        0.1675
     10 O           7.1765   -8.7652   26.9532 O.3     1  UNL1       -0.5029
     11 C           6.7680   -6.2237   26.6013 C.ar    1  UNL1        0.1672
     12 O           6.0787   -6.1505   27.9317 O.3     1  UNL1       -0.5029
     13 C           6.9083   -4.9896   25.7604 C.ar    1  UNL1        0.0378
     14 H           7.5194   -9.5819   26.6476 H       1  UNL1        0.2923
     15 H           5.9910   -6.9214   28.4570 H       1  UNL1        0.2923
     16 C           5.1652   -3.1143   23.4627 C.3     1  UNL1        0.1399
     17 O           4.2775   -3.8643   22.5142 O.3     1  UNL1       -0.3819
     18 H           4.2014   -3.3698   21.6832 H       1  UNL1        0.2104
     19 C           6.4530   -0.7023   21.6814 C.3     1  UNL1        0.0291
     20 C           4.0927   -0.1578   18.5377 C.ar    1  UNL1        0.1718
     21 C           4.7449    0.0472   19.8728 C.ar    1  UNL1        0.0358
     22 C           5.8008   -0.9073   20.3462 C.ar    1  UNL1       -0.0189
     23 C           6.2044   -2.0668   19.4845 C.ar    1  UNL1       -0.0010
     24 C           5.5522   -2.2718   18.1494 C.ar    1  UNL1        0.0395
     25 C           4.4963   -1.3174   17.6760 C.ar    1  UNL1        0.1677
     26 O           3.8441   -1.5224   16.3408 O.3     1  UNL1       -0.5029
     27 H           4.0962   -2.2467   15.8025 H       1  UNL1        0.2923
     28 C           1.5981    0.5576   18.4147 C.3     1  UNL1        0.2526
     29 O           3.0368    0.7967   18.0643 O.3     1  UNL1       -0.4684
@<TRIPOS>BOND
     1    28    29    1
     2    29    20    1
     3    20    21   ar
     4    21    22   ar
     5    22    19    1
     6     1    19    1
     7     1     2    1
     8     2     3    1
     9     3     4    1
    10     4     6    1
    11     6     7   ar
    12     7     8   ar
    13     8     9   ar
    14     9    10    1
    15     9    11   ar
    16    11    12    1
    17    11    13   ar
    18     4     5    1
    19     5    16    1
    20    16    17    1
    21    22    23   ar
    22    23    24   ar
    23    24    25   ar
    24    25    26    1
    25    25    20   ar
    26     5     1    1
    27    13     6   ar
    28    10    14    1
    29    12    15    1
    30    17    18    1
    31    26    27    1
@<TRIPOS>MOLECULE
*****
 29 31 0 0 0
SMALL
GASTEIGER

@<TRIPOS>ATOM
      1 C           7.4792   -3.2163   23.6666 C.3     1  UNL1        0.0391
      2 C           6.3944   -2.3627   24.2536 C.3     1  UNL1        0.1429
      3 O           5.5359   -1.8654   23.1286 O.3     1  UNL1       -0.3518
      4 C           6.0901   -2.4116   21.8462 C.3     1  UNL1        0.1399
      5 C           7.2911   -3.2465   22.1787 C.3     1  UNL1        0.0635
      6 C           5.5399   -2.1662   20.4725 C.ar    1  UNL1        0.0078
      7 C           4.1271   -2.5538   20.1501 C.ar    1  UNL1        0.0014
      8 C           3.5769   -2.3083   18.7764 C.ar    1  UNL1        0.0395
      9 C           4.4395   -1.6752   17.7252 C.ar    1  UNL1        0.1675
     10 O           3.8894   -1.4296   16.3514 O.3     1  UNL1       -0.5029
     11 C           5.8522   -1.2875   18.0476 C.ar    1  UNL1        0.1672
     12 O           6.7148   -0.6543   16.9963 O.3     1  UNL1       -0.5029
     13 C           6.4024   -1.5330   19.4213 C.ar    1  UNL1        0.0378
     14 H           3.0069   -1.6718   16.1499 H       1  UNL1        0.2923
     15 H           6.3711   -0.5010   16.1382 H       1  UNL1        0.2923
     16 C           8.1527   -3.9824   21.1959 C.3     1  UNL1        0.1399
     17 O           7.9562   -5.4538   20.9805 O.3     1  UNL1       -0.3819
     18 H           8.1890   -5.9332   21.7910 H       1  UNL1        0.2104
     19 C           8.5619   -3.9166   24.4328 C.3     1  UNL1        0.0291
     20 C           7.7813   -6.5174   27.3271 C.ar    1  UNL1        0.1718
     21 C           8.0756   -5.2256   26.6237 C.ar    1  UNL1        0.0358
     22 C           8.2676   -5.2084   25.1362 C.ar    1  UNL1       -0.0189
     23 C           8.1653   -6.4830   24.3519 C.ar    1  UNL1       -0.0010
     24 C           7.8710   -7.7747   25.0553 C.ar    1  UNL1        0.0395
     25 C           7.6790   -7.7919   26.5429 C.ar    1  UNL1        0.1677
     26 O           7.3847   -9.0838   27.2462 O.3     1  UNL1       -0.5029
     27 H           7.3208   -9.8799   26.7563 H       1  UNL1        0.2923
     28 C           6.8464   -5.4189   29.4879 C.3     1  UNL1        0.2526
     29 O           7.5893   -6.5346   28.8146 O.3     1  UNL1       -0.4684
@<TRIPOS>BOND
     1    28    29    1
     2    29    20    1
     3    20    21   ar
     4    21    22   ar
     5    22    19    1
     6     1    19    1
     7     1     2    1
     8     2     3    1
     9     3     4    1
    10     4     6    1
    11     6     7   ar
    12     7     8   ar
    13     8     9   ar
    14     9    10    1
    15     9    11   ar
    16    11    12    1
    17    11    13   ar
    18     4     5    1
    19     5    16    1
    20    16    17    1
    21    22    23   ar
    22    23    24   ar
    23    24    25   ar
    24    25    26    1
    25    25    20   ar
    26     5     1    1
    27    13     6   ar
    28    10    14    1
    29    12    15    1
    30    17    18    1
    31    26    27    1
@<TRIPOS>MOLECULE
*****
 29 31 0 0 0
SMALL
GASTEIGER

@<TRIPOS>ATOM
      1 C         -14.5233   -5.2800   18.6929 C.3     1  UNL1        0.0391
      2 C         -14.9732   -5.2438   17.2624 C.3     1  UNL1        0.1429
      3 O         -14.6169   -3.9004   16.6982 O.3     1  UNL1       -0.3518
      4 C         -13.9468   -3.1062   17.7801 C.3     1  UNL1        0.1399
      5 C         -13.8890   -3.9589   19.0128 C.3     1  UNL1        0.0635
      6 C         -13.4261   -1.7054   17.6517 C.ar    1  UNL1        0.0078
      7 C         -12.2200   -1.4283   16.8039 C.ar    1  UNL1        0.0014
      8 C         -11.6992   -0.0275   16.6756 C.ar    1  UNL1        0.0395
      9 C         -12.3845    1.0962   17.3950 C.ar    1  UNL1        0.1675
     10 O         -11.8638    2.4971   17.2668 O.3     1  UNL1       -0.5029
     11 C         -13.5905    0.8191   18.2428 C.ar    1  UNL1        0.1672
     12 O         -14.2758    1.9430   18.9623 O.3     1  UNL1       -0.5029
     13 C         -14.1113   -0.5817   18.3712 C.ar    1  UNL1        0.0378
     14 H         -11.1105    2.6703   16.7372 H       1  UNL1        0.2923
     15 H         -13.9505    2.8180   18.8821 H       1  UNL1        0.2923
     16 C         -13.3002   -3.5604   20.3336 C.3     1  UNL1        0.1399
     17 O         -14.1863   -3.4063   21.5340 O.3     1  UNL1       -0.3819
     18 H         -14.7922   -2.6616   21.3952 H       1  UNL1        0.2104
     19 C         -14.6802   -6.4345   19.6375 C.3     1  UNL1        0.0291
     20 C         -17.8527   -8.7837   19.2296 C.ar    1  UNL1        0.1718
     21 C         -16.9951   -7.6137   19.6112 C.ar    1  UNL1        0.0358
     22 C         -15.5378   -7.6046   19.2560 C.ar    1  UNL1       -0.0189
     23 C         -14.9381   -8.7655   18.5193 C.ar    1  UNL1       -0.0010
     24 C         -15.7957   -9.9354   18.1378 C.ar    1  UNL1        0.0395
     25 C         -17.2530   -9.9446   18.4930 C.ar    1  UNL1        0.1677
     26 O         -18.1107  -11.1146   18.1114 O.3     1  UNL1       -0.5029
     27 H         -17.7360  -11.8398   17.6512 H       1  UNL1        0.2923
     28 C         -19.8415   -7.8214   20.5966 C.3     1  UNL1        0.2526
     29 O         -19.3101   -8.7928   19.5848 O.3     1  UNL1       -0.4684
@<TRIPOS>BOND
     1    28    29    1
     2    29    20    1
     3    20    21   ar
     4    21    22   ar
     5    22    19    1
     6     1    19    1
     7     1     2    1
     8     2     3    1
     9     3     4    1
    10     4     6    1
    11     6     7   ar
    12     7     8   ar
    13     8     9   ar
    14     9    10    1
    15     9    11   ar
    16    11    12    1
    17    11    13   ar
    18     4     5    1
    19     5    16    1
    20    16    17    1
    21    22    23   ar
    22    23    24   ar
    23    24    25   ar
    24    25    26    1
    25    25    20   ar
    26     5     1    1
    27    13     6   ar
    28    10    14    1
    29    12    15    1
    30    17    18    1
    31    26    27    1
@<TRIPOS>MOLECULE
*****
 29 31 0 0 0
SMALL
GASTEIGER

@<TRIPOS>ATOM
      1 C           5.3514    0.5792   32.6593 C.3     1  UNL1        0.0391
      2 C           6.7627    0.9656   32.3290 C.3     1  UNL1        0.1429
      3 O           7.4151   -0.2005   31.6474 O.3     1  UNL1       -0.3518
      4 C           6.4071   -1.3076   31.5566 C.3     1  UNL1        0.1399
      5 C           5.1317   -0.8257   32.1820 C.3     1  UNL1        0.0635
      6 C           6.6345   -2.6593   30.9473 C.ar    1  UNL1        0.0078
      7 C           6.7576   -2.8001   29.4590 C.ar    1  UNL1        0.0014
      8 C           6.9850   -4.1518   28.8497 C.ar    1  UNL1        0.0395
      9 C           7.0894   -5.3627   29.7288 C.ar    1  UNL1        0.1675
     10 O           7.3168   -6.7145   29.1196 O.3     1  UNL1       -0.5029
     11 C           6.9663   -5.2219   31.2171 C.ar    1  UNL1        0.1672
     12 O           7.0706   -6.4329   32.0962 O.3     1  UNL1       -0.5029
     13 C           6.7388   -3.8702   31.8264 C.ar    1  UNL1        0.0378
     14 H           7.3937   -6.8025   28.1900 H       1  UNL1        0.2923
     15 H           7.2127   -7.2773   31.7156 H       1  UNL1        0.2923
     16 C           3.8598   -1.6109   32.3079 C.3     1  UNL1        0.1399
     17 O           3.8116   -2.8247   33.1878 O.3     1  UNL1       -0.3819
     18 H           4.3909   -3.5118   32.8230 H       1  UNL1        0.2104
     19 C           4.3379    1.4457   33.3464 C.3     1  UNL1        0.0291
     20 C           2.8127    1.9790   36.9713 C.ar    1  UNL1        0.1718
     21 C           3.0493    2.1261   35.4974 C.ar    1  UNL1        0.0358
     22 C           4.1014    1.2985   34.8204 C.ar    1  UNL1       -0.0189
     23 C           4.9169    0.3239   35.6172 C.ar    1  UNL1       -0.0010
     24 C           4.6803    0.1768   37.0911 C.ar    1  UNL1        0.0395
     25 C           3.6282    1.0044   37.7681 C.ar    1  UNL1        0.1677
     26 O           3.3917    0.8572   39.2421 O.3     1  UNL1       -0.5029
     27 H           3.9011    0.2484   39.7399 H       1  UNL1        0.2923
     28 C           1.4166    4.1653   37.1143 C.3     1  UNL1        0.2526
     29 O           1.7607    2.8065   37.6483 O.3     1  UNL1       -0.4684
@<TRIPOS>BOND
     1    28    29    1
     2    29    20    1
     3    20    21   ar
     4    21    22   ar
     5    22    19    1
     6     1    19    1
     7     1     2    1
     8     2     3    1
     9     3     4    1
    10     4     6    1
    11     6     7   ar
    12     7     8   ar
    13     8     9   ar
    14     9    10    1
    15     9    11   ar
    16    11    12    1
    17    11    13   ar
    18     4     5    1
    19     5    16    1
    20    16    17    1
    21    22    23   ar
    22    23    24   ar
    23    24    25   ar
    24    25    26    1
    25    25    20   ar
    26     5     1    1
    27    13     6   ar
    28    10    14    1
    29    12    15    1
    30    17    18    1
    31    26    27    1
