@<TRIPOS>MOLECULE
*****
 31 33 0 0 0
SMALL
GASTEIGER

@<TRIPOS>ATOM
      1 N           3.8848   -1.9100   24.7277 N.am    1  UNL1       -0.2845
      2 C           3.6194   -1.0529   25.9298 C.2     1  UNL1        0.3047
      3 O           3.5128    0.4358   25.7806 O.2     1  UNL1       -0.2525
      4 N           3.4606   -1.6846   27.2810 N.am    1  UNL1       -0.2683
      5 H           3.9548   -2.8871   24.8256 H       1  UNL1        0.1513
      6 H           3.5305   -2.6617   27.3789 H       1  UNL1        0.1564
      7 C           3.1952   -0.8275   28.4831 C.ar    1  UNL1        0.0516
      8 C           1.7999   -0.3642   28.7805 C.ar    1  UNL1        0.0160
      9 C           1.5345    0.4930   29.9826 C.ar    1  UNL1        0.0200
     10 C           2.6643    0.8868   30.8872 C.ar    1  UNL1        0.1104
     11 C           4.0597    0.4235   30.5897 C.ar    1  UNL1        0.0200
     12 C           4.3251   -0.4336   29.3877 C.ar    1  UNL1        0.0160
     13 S           2.3989    1.7439   32.0892 S.O2    1  UNL1        0.0274
     14 O           3.8736    1.8399   32.3464 O.2     1  UNL1       -0.1642
     15 O           0.9242    1.6479   31.8320 O.2     1  UNL1       -0.1642
     16 C           2.1335    2.6010   33.2912 C.ar    1  UNL1        0.1103
     17 C           1.2726    3.8229   33.1658 C.ar    1  UNL1        0.0187
     18 C           1.0072    4.6800   34.3678 C.ar    1  UNL1        0.0013
     19 C           1.6027    4.3152   35.6953 C.ar    1  UNL1        0.0001
     20 C           2.4636    3.0933   35.8208 C.ar    1  UNL1        0.0013
     21 C           2.7290    2.2362   34.6188 C.ar    1  UNL1        0.0187
     22 C           4.0436   -1.2784   23.3765 C.3     1  UNL1        0.1192
     23 N           4.1783   -4.7112   18.4574 N.pl3   1  UNL1       -0.3426
     24 C           4.1446   -3.8530   19.6872 C.ar    1  UNL1        0.1254
     25 C           3.5496   -2.4775   19.6258 C.ar    1  UNL1        0.0336
     26 C           3.5159   -1.6193   20.8556 C.ar    1  UNL1        0.0018
     27 C           4.0773   -2.1366   22.1467 C.ar    1  UNL1        0.0167
     28 C           4.6723   -3.5121   22.2081 C.ar    1  UNL1        0.0976
     29 N           4.7060   -4.3703   20.9783 N.ar    1  UNL1       -0.2299
     30 H           3.8098   -4.3716   17.6099 H       1  UNL1        0.1437
     31 H           4.5688   -5.6140   18.4977 H       1  UNL1        0.1437
@<TRIPOS>BOND
     1    23    24    1
     2    24    25   ar
     3    25    26   ar
     4    26    27   ar
     5    27    22    1
     6    22     1    1
     7     1     2   am
     8     2     3    2
     9     2     4   am
    10     4     7    1
    11     7     8   ar
    12     8     9   ar
    13     9    10   ar
    14    10    13    1
    15    13    14    2
    16    13    15    2
    17    13    16    1
    18    16    17   ar
    19    17    18   ar
    20    18    19   ar
    21    19    20   ar
    22    20    21   ar
    23    10    11   ar
    24    11    12   ar
    25    27    28   ar
    26    28    29   ar
    27    29    24   ar
    28    12     7   ar
    29    21    16   ar
    30    23    30    1
    31    23    31    1
    32     1     5    1
    33     4     6    1
@<TRIPOS>MOLECULE
*****
 31 33 0 0 0
SMALL
GASTEIGER

@<TRIPOS>ATOM
      1 N          -1.5014    2.5906   20.4823 N.am    1  UNL1       -0.2845
      2 C          -0.1748    1.8955   20.5667 C.2     1  UNL1        0.3047
      3 O           0.7267    2.1401   21.7402 O.2     1  UNL1       -0.2525
      4 N           0.2501    0.9558   19.4774 N.am    1  UNL1       -0.2683
      5 H          -2.0931    2.4300   19.7120 H       1  UNL1        0.1513
      6 H          -0.3416    0.7952   18.7071 H       1  UNL1        0.1564
      7 C           1.5767    0.2607   19.5618 C.ar    1  UNL1        0.0516
      8 C           1.7679   -0.8764   20.5212 C.ar    1  UNL1        0.0160
      9 C           3.0945   -1.5715   20.6055 C.ar    1  UNL1        0.0200
     10 C           4.2298   -1.1295   19.7306 C.ar    1  UNL1        0.1104
     11 C           4.0386    0.0077   18.7712 C.ar    1  UNL1        0.0200
     12 C           2.7121    0.7027   18.6868 C.ar    1  UNL1        0.0160
     13 S           5.5563   -1.8246   19.8150 S.O2    1  UNL1        0.0274
     14 O           6.2308   -0.5075   20.0607 O.2     1  UNL1       -0.1642
     15 O           4.8818   -3.1417   19.5693 O.2     1  UNL1       -0.1642
     16 C           6.8829   -2.5197   19.8994 C.ar    1  UNL1        0.1103
     17 C           7.0632   -3.6808   20.8316 C.ar    1  UNL1        0.0187
     18 C           8.3898   -4.3759   20.9160 C.ar    1  UNL1        0.0013
     19 C           9.5360   -3.9098   20.0681 C.ar    1  UNL1        0.0001
     20 C           9.3557   -2.7486   19.1358 C.ar    1  UNL1        0.0013
     21 C           8.0291   -2.0536   19.0514 C.ar    1  UNL1        0.0187
     22 C          -1.9264    3.5302   21.5715 C.3     1  UNL1        0.1192
     23 N          -7.7204    3.9633   23.0686 N.pl3   1  UNL1       -0.3426
     24 C          -6.2719    3.8551   22.6943 C.ar    1  UNL1        0.1254
     25 C          -5.2356    3.6485   23.7589 C.ar    1  UNL1        0.0336
     26 C          -3.7871    3.5402   23.3846 C.ar    1  UNL1        0.0018
     27 C          -3.3749    3.6385   21.9457 C.ar    1  UNL1        0.0167
     28 C          -4.4112    3.8450   20.8812 C.ar    1  UNL1        0.0976
     29 N          -5.8597    3.9533   21.2554 N.ar    1  UNL1       -0.2299
     30 H          -7.9910    3.8988   24.0130 H       1  UNL1        0.1437
     31 H          -8.4006    4.0989   22.3698 H       1  UNL1        0.1437
@<TRIPOS>BOND
     1    23    24    1
     2    24    25   ar
     3    25    26   ar
     4    26    27   ar
     5    27    22    1
     6    22     1    1
     7     1     2   am
     8     2     3    2
     9     2     4   am
    10     4     7    1
    11     7     8   ar
    12     8     9   ar
    13     9    10   ar
    14    10    13    1
    15    13    14    2
    16    13    15    2
    17    13    16    1
    18    16    17   ar
    19    17    18   ar
    20    18    19   ar
    21    19    20   ar
    22    20    21   ar
    23    10    11   ar
    24    11    12   ar
    25    27    28   ar
    26    28    29   ar
    27    29    24   ar
    28    12     7   ar
    29    21    16   ar
    30    23    30    1
    31    23    31    1
    32     1     5    1
    33     4     6    1
@<TRIPOS>MOLECULE
*****
 31 33 0 0 0
SMALL
GASTEIGER

@<TRIPOS>ATOM
      1 N           4.1920   -2.0683   25.0544 N.am    1  UNL1       -0.2845
      2 C           3.8030   -1.0757   26.1097 C.2     1  UNL1        0.3047
      3 O           4.0016    0.3914   25.8690 O.2     1  UNL1       -0.2525
      4 N           3.2154   -1.5504   27.4056 N.am    1  UNL1       -0.2683
      5 H           4.0617   -3.0312   25.2124 H       1  UNL1        0.1513
      6 H           3.0851   -2.5134   27.5636 H       1  UNL1        0.1564
      7 C           2.8264   -0.5579   28.4609 C.ar    1  UNL1        0.0516
      8 C           1.3908   -0.1520   28.6160 C.ar    1  UNL1        0.0160
      9 C           1.0018    0.8405   29.6713 C.ar    1  UNL1        0.0200
     10 C           2.0485    1.4272   30.5714 C.ar    1  UNL1        0.1104
     11 C           3.4842    1.0213   30.4163 C.ar    1  UNL1        0.0200
     12 C           3.8732    0.0288   29.3610 C.ar    1  UNL1        0.0160
     13 S           1.6595    2.4197   31.6266 S.O2    1  UNL1        0.0274
     14 O           0.2664    1.8636   31.6362 O.2     1  UNL1       -0.1642
     15 O           3.0526    2.9758   31.6171 O.2     1  UNL1       -0.1642
     16 C           1.2705    3.4123   32.6819 C.ar    1  UNL1        0.1103
     17 C           1.9611    3.4008   34.0134 C.ar    1  UNL1        0.0187
     18 C           1.5721    4.3933   35.0686 C.ar    1  UNL1        0.0013
     19 C           0.4925    5.3973   34.7924 C.ar    1  UNL1        0.0001
     20 C          -0.1982    5.4089   33.4609 C.ar    1  UNL1        0.0013
     21 C           0.1908    4.4163   32.4056 C.ar    1  UNL1        0.0187
     22 C           4.7796   -1.5937   23.7585 C.3     1  UNL1        0.1192
     23 N           3.4434   -4.4284   18.6420 N.pl3   1  UNL1       -0.3426
     24 C           3.7774   -3.7197   19.9211 C.ar    1  UNL1        0.1254
     25 C           3.4522   -2.2640   20.0790 C.ar    1  UNL1        0.0336
     26 C           3.7863   -1.5553   21.3581 C.ar    1  UNL1        0.0018
     27 C           4.4456   -2.3023   22.4794 C.ar    1  UNL1        0.0167
     28 C           4.7708   -3.7581   22.3214 C.ar    1  UNL1        0.0976
     29 N           4.4367   -4.4668   21.0423 N.ar    1  UNL1       -0.2299
     30 H           3.0107   -3.9380   17.9061 H       1  UNL1        0.1437
     31 H           3.6569   -5.3838   18.5383 H       1  UNL1        0.1437
@<TRIPOS>BOND
     1    23    24    1
     2    24    25   ar
     3    25    26   ar
     4    26    27   ar
     5    27    22    1
     6    22     1    1
     7     1     2   am
     8     2     3    2
     9     2     4   am
    10     4     7    1
    11     7     8   ar
    12     8     9   ar
    13     9    10   ar
    14    10    13    1
    15    13    14    2
    16    13    15    2
    17    13    16    1
    18    16    17   ar
    19    17    18   ar
    20    18    19   ar
    21    19    20   ar
    22    20    21   ar
    23    10    11   ar
    24    11    12   ar
    25    27    28   ar
    26    28    29   ar
    27    29    24   ar
    28    12     7   ar
    29    21    16   ar
    30    23    30    1
    31    23    31    1
    32     1     5    1
    33     4     6    1
@<TRIPOS>MOLECULE
*****
 31 33 0 0 0
SMALL
GASTEIGER

@<TRIPOS>ATOM
      1 N           7.6635   -4.2865   20.8829 N.am    1  UNL1       -0.2845
      2 C           6.5929   -3.2378   20.8216 C.2     1  UNL1        0.3047
      3 O           6.4279   -2.2673   21.9534 O.2     1  UNL1       -0.2525
      4 N           5.6871   -3.1594   19.6285 N.am    1  UNL1       -0.2683
      5 H           7.7718   -4.9234   20.1400 H       1  UNL1        0.1513
      6 H           5.7953   -3.7964   18.8856 H       1  UNL1        0.1564
      7 C           4.6164   -2.1107   19.5672 C.ar    1  UNL1        0.0516
      8 C           3.4069   -2.2214   20.4474 C.ar    1  UNL1        0.0160
      9 C           2.3362   -1.1726   20.3861 C.ar    1  UNL1        0.0200
     10 C           2.4751   -0.0131   19.4447 C.ar    1  UNL1        0.1104
     11 C           3.6847    0.0976   18.5645 C.ar    1  UNL1        0.0200
     12 C           4.7553   -0.9511   18.6258 C.ar    1  UNL1        0.0160
     13 S           1.4044    1.0356   19.3835 S.O2    1  UNL1        0.0274
     14 O           1.8641    1.5820   20.7026 O.2     1  UNL1       -0.1642
     15 O           0.9447    0.4893   18.0643 O.2     1  UNL1       -0.1642
     16 C           0.3337    2.0844   19.3222 C.ar    1  UNL1        0.1103
     17 C           0.1466    2.8931   18.0729 C.ar    1  UNL1        0.0187
     18 C          -0.9240    3.9419   18.0116 C.ar    1  UNL1        0.0013
     19 C          -1.8076    4.1819   19.1997 C.ar    1  UNL1        0.0001
     20 C          -1.6205    3.3732   20.4492 C.ar    1  UNL1        0.0013
     21 C          -0.5499    2.3244   20.5104 C.ar    1  UNL1        0.0187
     22 C           8.5693   -4.3649   22.0759 C.3     1  UNL1        0.1192
     23 N           7.3339   -8.1849   26.5348 N.pl3   1  UNL1       -0.3426
     24 C           7.6427   -7.2299   25.4201 C.ar    1  UNL1        0.1254
     25 C           8.4963   -7.6720   24.2686 C.ar    1  UNL1        0.0336
     26 C           8.8051   -6.7170   23.1539 C.ar    1  UNL1        0.0018
     27 C           8.2604   -5.3199   23.1906 C.ar    1  UNL1        0.0167
     28 C           7.4068   -4.8778   24.3421 C.ar    1  UNL1        0.0976
     29 N           7.0980   -5.8328   25.4568 N.ar    1  UNL1       -0.2299
     30 H           7.6914   -9.1019   26.5106 H       1  UNL1        0.1437
     31 H           6.7736   -7.8948   27.2905 H       1  UNL1        0.1437
@<TRIPOS>BOND
     1    23    24    1
     2    24    25   ar
     3    25    26   ar
     4    26    27   ar
     5    27    22    1
     6    22     1    1
     7     1     2   am
     8     2     3    2
     9     2     4   am
    10     4     7    1
    11     7     8   ar
    12     8     9   ar
    13     9    10   ar
    14    10    13    1
    15    13    14    2
    16    13    15    2
    17    13    16    1
    18    16    17   ar
    19    17    18   ar
    20    18    19   ar
    21    19    20   ar
    22    20    21   ar
    23    10    11   ar
    24    11    12   ar
    25    27    28   ar
    26    28    29   ar
    27    29    24   ar
    28    12     7   ar
    29    21    16   ar
    30    23    30    1
    31    23    31    1
    32     1     5    1
    33     4     6    1
@<TRIPOS>MOLECULE
*****
 31 33 0 0 0
SMALL
GASTEIGER

@<TRIPOS>ATOM
      1 N           4.0427    0.0864   18.3141 N.am    1  UNL1       -0.2845
      2 C           4.4643   -0.9536   19.3094 C.2     1  UNL1        0.3047
      3 O           3.4577   -1.9242   19.8520 O.2     1  UNL1       -0.2525
      4 N           5.8928   -1.0229   19.7621 N.am    1  UNL1       -0.2683
      5 H           4.7034    0.7234   17.9580 H       1  UNL1        0.1513
      6 H           6.5535   -0.3858   19.4060 H       1  UNL1        0.1564
      7 C           6.3144   -2.0629   20.7574 C.ar    1  UNL1        0.0516
      8 C           5.9137   -1.9297   22.1967 C.ar    1  UNL1        0.0160
      9 C           6.3353   -2.9697   23.1920 C.ar    1  UNL1        0.0200
     10 C           7.1578   -4.1429   22.7480 C.ar    1  UNL1        0.1104
     11 C           7.5586   -4.2761   21.3087 C.ar    1  UNL1        0.0200
     12 C           7.1369   -3.2361   20.3134 C.ar    1  UNL1        0.0160
     13 S           7.5795   -5.1828   23.7433 S.O2    1  UNL1        0.0274
     14 O           7.0159   -4.3478   24.8546 O.2     1  UNL1       -0.1642
     15 O           8.1431   -6.0179   22.6320 O.2     1  UNL1       -0.1642
     16 C           8.0012   -6.2228   24.7386 C.ar    1  UNL1        0.1103
     17 C           9.1092   -7.1765   24.4030 C.ar    1  UNL1        0.0187
     18 C           9.5309   -8.2164   25.3983 C.ar    1  UNL1        0.0013
     19 C           8.8445   -8.3028   26.7292 C.ar    1  UNL1        0.0001
     20 C           7.7364   -7.3491   27.0649 C.ar    1  UNL1        0.0013
     21 C           7.3147   -6.3091   26.0696 C.ar    1  UNL1        0.0187
     22 C           2.6143    0.1557   17.8614 C.3     1  UNL1        0.1192
     23 N          -1.5002    2.8312   21.3129 N.pl3   1  UNL1       -0.3426
     24 C          -0.4716    2.1623   20.4500 C.ar    1  UNL1        0.1254
     25 C           0.2937    2.9626   19.4382 C.ar    1  UNL1        0.0336
     26 C           1.3223    2.2937   18.5753 C.ar    1  UNL1        0.0018
     27 C           1.5857    0.8246   18.7243 C.ar    1  UNL1        0.0167
     28 C           0.8204    0.0243   19.7361 C.ar    1  UNL1        0.0976
     29 N          -0.2082    0.6932   20.5989 N.ar    1  UNL1       -0.2299
     30 H          -1.6731    3.7954   21.2151 H       1  UNL1        0.1437
     31 H          -2.0025    2.3059   21.9770 H       1  UNL1        0.1437
@<TRIPOS>BOND
     1    23    24    1
     2    24    25   ar
     3    25    26   ar
     4    26    27   ar
     5    27    22    1
     6    22     1    1
     7     1     2   am
     8     2     3    2
     9     2     4   am
    10     4     7    1
    11     7     8   ar
    12     8     9   ar
    13     9    10   ar
    14    10    13    1
    15    13    14    2
    16    13    15    2
    17    13    16    1
    18    16    17   ar
    19    17    18   ar
    20    18    19   ar
    21    19    20   ar
    22    20    21   ar
    23    10    11   ar
    24    11    12   ar
    25    27    28   ar
    26    28    29   ar
    27    29    24   ar
    28    12     7   ar
    29    21    16   ar
    30    23    30    1
    31    23    31    1
    32     1     5    1
    33     4     6    1
@<TRIPOS>MOLECULE
*****
 31 33 0 0 0
SMALL
GASTEIGER

@<TRIPOS>ATOM
      1 N          -5.0065    5.6636   22.7071 N.am    1  UNL1       -0.2845
      2 C          -4.0194    4.6380   22.2342 C.2     1  UNL1        0.3047
      3 O          -4.3143    3.1775   22.4071 O.2     1  UNL1       -0.2525
      4 N          -2.7373    5.0730   21.5884 N.am    1  UNL1       -0.2683
      5 H          -4.8130    6.6222   22.5937 H       1  UNL1        0.1513
      6 H          -2.5437    6.0316   21.4749 H       1  UNL1        0.1564
      7 C          -1.7501    4.0474   21.1154 C.ar    1  UNL1        0.0516
      8 C          -1.4894    3.8781   19.6480 C.ar    1  UNL1        0.0160
      9 C          -0.5022    2.8525   19.1751 C.ar    1  UNL1        0.0200
     10 C           0.2242    1.9962   20.1695 C.ar    1  UNL1        0.1104
     11 C          -0.0365    2.1655   21.6370 C.ar    1  UNL1        0.0200
     12 C          -1.0236    3.1911   22.1100 C.ar    1  UNL1        0.0160
     13 S           1.2114    0.9706   19.6966 S.O2    1  UNL1        0.0274
     14 O           1.8148    0.9187   21.0689 O.2     1  UNL1       -0.1642
     15 O           0.6079    1.0226   18.3243 O.2     1  UNL1       -0.1642
     16 C           2.1985   -0.0550   19.2237 C.ar    1  UNL1        0.1103
     17 C           2.4222   -1.3048   20.0222 C.ar    1  UNL1        0.0187
     18 C           3.4094   -2.3304   19.5493 C.ar    1  UNL1        0.0013
     19 C           4.1729   -2.1061   18.2778 C.ar    1  UNL1        0.0001
     20 C           3.9492   -0.8562   17.4792 C.ar    1  UNL1        0.0013
     21 C           2.9620    0.1694   17.9521 C.ar    1  UNL1        0.0187
     22 C          -6.2886    5.2287   23.3530 C.3     1  UNL1        0.1192
     23 N          -7.3286    6.5128   29.1210 N.pl3   1  UNL1       -0.3426
     24 C          -7.0686    6.1918   27.6790 C.ar    1  UNL1        0.1254
     25 C          -5.7322    5.6553   27.2592 C.ar    1  UNL1        0.0336
     26 C          -5.4722    5.3342   25.8172 C.ar    1  UNL1        0.0018
     27 C          -6.5486    5.5498   24.7950 C.ar    1  UNL1        0.0167
     28 C          -7.8849    6.0863   25.2148 C.ar    1  UNL1        0.0976
     29 N          -8.1449    6.4073   26.6568 N.ar    1  UNL1       -0.2299
     30 H          -6.6221    6.3713   29.7919 H       1  UNL1        0.1437
     31 H          -8.2057    6.8650   29.3965 H       1  UNL1        0.1437
@<TRIPOS>BOND
     1    23    24    1
     2    24    25   ar
     3    25    26   ar
     4    26    27   ar
     5    27    22    1
     6    22     1    1
     7     1     2   am
     8     2     3    2
     9     2     4   am
    10     4     7    1
    11     7     8   ar
    12     8     9   ar
    13     9    10   ar
    14    10    13    1
    15    13    14    2
    16    13    15    2
    17    13    16    1
    18    16    17   ar
    19    17    18   ar
    20    18    19   ar
    21    19    20   ar
    22    20    21   ar
    23    10    11   ar
    24    11    12   ar
    25    27    28   ar
    26    28    29   ar
    27    29    24   ar
    28    12     7   ar
    29    21    16   ar
    30    23    30    1
    31    23    31    1
    32     1     5    1
    33     4     6    1
@<TRIPOS>MOLECULE
*****
 31 33 0 0 0
SMALL
GASTEIGER

@<TRIPOS>ATOM
      1 N          -3.3068    5.3750   20.9393 N.am    1  UNL1       -0.2845
      2 C          -2.4047    4.1963   20.7226 C.2     1  UNL1        0.3047
      3 O          -2.8619    2.8209   21.1090 O.2     1  UNL1       -0.2525
      4 N          -1.0454    4.3930   20.1196 N.am    1  UNL1       -0.2683
      5 H          -3.0067    6.2777   20.6857 H       1  UNL1        0.1513
      6 H          -0.7453    5.2957   19.8660 H       1  UNL1        0.1564
      7 C          -0.1433    3.2143   19.9030 C.ar    1  UNL1        0.0516
      8 C           0.0411    2.6545   18.5236 C.ar    1  UNL1        0.0160
      9 C           0.9432    1.4758   18.3070 C.ar    1  UNL1        0.0200
     10 C           1.6608    0.8569   19.4697 C.ar    1  UNL1        0.1104
     11 C           1.4764    1.4166   20.8491 C.ar    1  UNL1        0.0200
     12 C           0.5743    2.5953   21.0658 C.ar    1  UNL1        0.0160
     13 S           2.5629   -0.3218   19.2531 S.O2    1  UNL1        0.0274
     14 O           3.4160    0.5002   18.3330 O.2     1  UNL1       -0.1642
     15 O           1.7097   -1.1438   20.1731 O.2     1  UNL1       -0.1642
     16 C           3.4649   -1.5005   19.0364 C.ar    1  UNL1        0.1103
     17 C           4.7209   -1.3458   18.2311 C.ar    1  UNL1        0.0187
     18 C           5.6229   -2.5245   18.0145 C.ar    1  UNL1        0.0013
     19 C           5.2691   -3.8580   18.6032 C.ar    1  UNL1        0.0001
     20 C           4.0131   -4.0128   19.4086 C.ar    1  UNL1        0.0013
     21 C           3.1110   -2.8341   19.6252 C.ar    1  UNL1        0.0187
     22 C          -4.6661    5.1784   21.5423 C.3     1  UNL1        0.1192
     23 N          -5.3268    5.1488   27.5057 N.pl3   1  UNL1       -0.3426
     24 C          -5.1616    5.1562   26.0149 C.ar    1  UNL1        0.1254
     25 C          -5.1105    3.8613   25.2595 C.ar    1  UNL1        0.0336
     26 C          -4.9453    3.8687   23.7687 C.ar    1  UNL1        0.0018
     27 C          -4.8312    5.1710   23.0332 C.ar    1  UNL1        0.0167
     28 C          -4.8823    6.4659   23.7885 C.ar    1  UNL1        0.0976
     29 N          -5.0475    6.4585   25.2794 N.ar    1  UNL1       -0.2299
     30 H          -5.4016    4.2940   27.9885 H       1  UNL1        0.1437
     31 H          -5.3603    5.9987   28.0015 H       1  UNL1        0.1437
@<TRIPOS>BOND
     1    23    24    1
     2    24    25   ar
     3    25    26   ar
     4    26    27   ar
     5    27    22    1
     6    22     1    1
     7     1     2   am
     8     2     3    2
     9     2     4   am
    10     4     7    1
    11     7     8   ar
    12     8     9   ar
    13     9    10   ar
    14    10    13    1
    15    13    14    2
    16    13    15    2
    17    13    16    1
    18    16    17   ar
    19    17    18   ar
    20    18    19   ar
    21    19    20   ar
    22    20    21   ar
    23    10    11   ar
    24    11    12   ar
    25    27    28   ar
    26    28    29   ar
    27    29    24   ar
    28    12     7   ar
    29    21    16   ar
    30    23    30    1
    31    23    31    1
    32     1     5    1
    33     4     6    1
@<TRIPOS>MOLECULE
*****
 31 33 0 0 0
SMALL
GASTEIGER

@<TRIPOS>ATOM
      1 N           7.2246   -4.8817   31.8522 N.am    1  UNL1       -0.2845
      2 C           6.4995   -3.5689   31.8826 C.2     1  UNL1        0.3047
      3 O           6.9182   -2.4594   30.9640 O.2     1  UNL1       -0.2525
      4 N           5.3557   -3.3656   32.8315 N.am    1  UNL1       -0.2683
      5 H           6.9498   -5.6098   32.4551 H       1  UNL1        0.1513
      6 H           5.0809   -4.0938   33.4344 H       1  UNL1        0.1564
      7 C           4.6306   -2.0529   32.8619 C.ar    1  UNL1        0.0516
      8 C           3.8887   -1.5776   31.6479 C.ar    1  UNL1        0.0160
      9 C           3.1636   -0.2649   31.6783 C.ar    1  UNL1        0.0200
     10 C           3.1804    0.5726   32.9225 C.ar    1  UNL1        0.1104
     11 C           3.9224    0.0974   34.1365 C.ar    1  UNL1        0.0200
     12 C           4.6475   -1.2154   34.1062 C.ar    1  UNL1        0.0160
     13 S           2.4554    1.8854   32.9529 S.O2    1  UNL1        0.0274
     14 O           3.4599    2.4176   33.9315 O.2     1  UNL1       -0.1642
     15 O           1.4508    1.3532   31.9743 O.2     1  UNL1       -0.1642
     16 C           1.7303    3.1981   32.9832 C.ar    1  UNL1        0.1103
     17 C           1.6668    3.9907   34.2551 C.ar    1  UNL1        0.0187
     18 C           0.9417    5.3034   34.2854 C.ar    1  UNL1        0.0013
     19 C           0.2801    5.8237   33.0439 C.ar    1  UNL1        0.0001
     20 C           0.3435    5.0311   31.7719 C.ar    1  UNL1        0.0013
     21 C           1.0686    3.7184   31.7415 C.ar    1  UNL1        0.0187
     22 C           8.3684   -5.0850   30.9034 C.3     1  UNL1        0.1192
     23 N           7.5031   -8.0325   25.7494 N.pl3   1  UNL1       -0.3426
     24 C           7.7195   -7.2956   27.0379 C.ar    1  UNL1        0.1254
     25 C           6.8983   -6.0809   27.3542 C.ar    1  UNL1        0.0336
     26 C           7.1146   -5.3440   28.6426 C.ar    1  UNL1        0.0018
     27 C           8.1521   -5.8218   29.6149 C.ar    1  UNL1        0.0167
     28 C           8.9732   -7.0366   29.2986 C.ar    1  UNL1        0.0976
     29 N           8.7569   -7.7735   28.0102 N.ar    1  UNL1       -0.2299
     30 H           6.8222   -7.7189   25.1113 H       1  UNL1        0.1437
     31 H           8.0421   -8.8298   25.5419 H       1  UNL1        0.1437
@<TRIPOS>BOND
     1    23    24    1
     2    24    25   ar
     3    25    26   ar
     4    26    27   ar
     5    27    22    1
     6    22     1    1
     7     1     2   am
     8     2     3    2
     9     2     4   am
    10     4     7    1
    11     7     8   ar
    12     8     9   ar
    13     9    10   ar
    14    10    13    1
    15    13    14    2
    16    13    15    2
    17    13    16    1
    18    16    17   ar
    19    17    18   ar
    20    18    19   ar
    21    19    20   ar
    22    20    21   ar
    23    10    11   ar
    24    11    12   ar
    25    27    28   ar
    26    28    29   ar
    27    29    24   ar
    28    12     7   ar
    29    21    16   ar
    30    23    30    1
    31    23    31    1
    32     1     5    1
    33     4     6    1
@<TRIPOS>MOLECULE
*****
 31 33 0 0 0
SMALL
GASTEIGER

@<TRIPOS>ATOM
      1 N           3.2076    0.8889   17.9225 N.am    1  UNL1       -0.2845
      2 C           1.9329    1.1892   18.6539 C.2     1  UNL1        0.3047
      3 O           0.9278    0.1006   18.8872 O.2     1  UNL1       -0.2525
      4 N           1.6632    2.5783   19.1518 N.am    1  UNL1       -0.2683
      5 H           3.8673    1.6035   17.7694 H       1  UNL1        0.1513
      6 H           2.3229    3.2929   18.9986 H       1  UNL1        0.1564
      7 C           0.3885    2.8786   19.8831 C.ar    1  UNL1        0.0516
      8 C          -0.8265    3.3200   19.1223 C.ar    1  UNL1        0.0160
      9 C          -2.1013    3.6203   19.8536 C.ar    1  UNL1        0.0200
     10 C          -2.1610    3.4792   21.3457 C.ar    1  UNL1        0.1104
     11 C          -0.9460    3.0378   22.1066 C.ar    1  UNL1        0.0200
     12 C           0.3288    2.7375   21.3753 C.ar    1  UNL1        0.0160
     13 S          -3.4358    3.7795   22.0770 S.O2    1  UNL1        0.0274
     14 O          -2.7046    4.7549   22.9511 O.2     1  UNL1       -0.1642
     15 O          -4.1670    2.8041   21.2029 O.2     1  UNL1       -0.1642
     16 C          -4.7106    4.0798   22.8083 C.ar    1  UNL1        0.1103
     17 C          -6.0133    4.1059   22.0652 C.ar    1  UNL1        0.0187
     18 C          -7.2880    4.4062   22.7965 C.ar    1  UNL1        0.0013
     19 C          -7.2601    4.6804   24.2709 C.ar    1  UNL1        0.0001
     20 C          -5.9573    4.6543   25.0141 C.ar    1  UNL1        0.0013
     21 C          -4.6826    4.3540   24.2828 C.ar    1  UNL1        0.0187
     22 C           3.4773   -0.5000   17.4246 C.3     1  UNL1        0.1192
     23 N           6.9912   -4.1923   20.5900 N.pl3   1  UNL1       -0.3426
     24 C           6.1127   -3.2693   19.7986 C.ar    1  UNL1        0.1254
     25 C           4.6375   -3.2251   20.0662 C.ar    1  UNL1        0.0336
     26 C           3.7590   -2.3020   19.2748 C.ar    1  UNL1        0.0018
     27 C           4.3558   -1.4231   18.2160 C.ar    1  UNL1        0.0167
     28 C           5.8310   -1.4673   17.9484 C.ar    1  UNL1        0.0976
     29 N           6.7095   -2.3903   18.7397 N.ar    1  UNL1       -0.2299
     30 H           6.5995   -4.7692   21.2850 H       1  UNL1        0.1437
     31 H           7.9595   -4.2213   20.4143 H       1  UNL1        0.1437
@<TRIPOS>BOND
     1    23    24    1
     2    24    25   ar
     3    25    26   ar
     4    26    27   ar
     5    27    22    1
     6    22     1    1
     7     1     2   am
     8     2     3    2
     9     2     4   am
    10     4     7    1
    11     7     8   ar
    12     8     9   ar
    13     9    10   ar
    14    10    13    1
    15    13    14    2
    16    13    15    2
    17    13    16    1
    18    16    17   ar
    19    17    18   ar
    20    18    19   ar
    21    19    20   ar
    22    20    21   ar
    23    10    11   ar
    24    11    12   ar
    25    27    28   ar
    26    28    29   ar
    27    29    24   ar
    28    12     7   ar
    29    21    16   ar
    30    23    30    1
    31    23    31    1
    32     1     5    1
    33     4     6    1
