@<TRIPOS>MOLECULE
*****
 38 42 0 0 0
SMALL
GASTEIGER

@<TRIPOS>ATOM
      1 C           1.3774    1.0468   23.8243 C.ar    1  UNL1        0.0576
      2 C           0.7767    1.7792   22.6612 C.ar    1  UNL1        0.0239
      3 C           1.1186    1.3695   21.2593 C.ar    1  UNL1        0.0874
      4 N           2.0612    0.2273   21.0206 N.ar    1  UNL1       -0.2305
      5 C           2.6619   -0.5051   22.1837 C.ar    1  UNL1        0.1319
      6 C           2.3200   -0.0954   23.5855 C.ar    1  UNL1        0.0388
      7 C           0.5179    2.1019   20.0962 C.ar    1  UNL1        0.0743
      8 C           1.1610    2.3077   18.7568 C.ar    1  UNL1        0.1251
      9 N           0.2093    3.0901   17.9011 N.ar    1  UNL1       -0.1620
     10 N          -1.0219    3.3678   18.7117 N.ar    1  UNL1       -0.2106
     11 C          -2.2920    4.0979   18.3898 C.ar    1  UNL1        0.1036
     12 C          -3.3714    4.2172   19.4245 C.ar    1  UNL1        0.0404
     13 C          -3.1807    3.6065   20.7812 C.ar    1  UNL1        0.0905
     14 N          -1.9105    2.8764   21.1032 N.ar    1  UNL1       -0.2259
     15 C          -0.8311    2.7571   20.0684 C.ar    1  UNL1        0.1667
     16 C          -4.2601    3.7259   21.8160 C.ar    1  UNL1        0.0472
     17 C          -5.7149    3.9737   21.5478 C.ar    1  UNL1        0.0085
     18 C          -6.4281    4.0194   22.8666 C.ar    1  UNL1        0.0075
     19 C          -5.4140    3.7998   23.9498 C.ar    1  UNL1        0.0355
     20 S          -4.0741    3.6184   23.3005 S.2     1  UNL1       -0.0849
     21 N          -0.2531    1.0042   25.8466 N.am    1  UNL1       -0.2995
     22 C           1.0354    1.4565   25.2261 C.2     1  UNL1        0.2460
     23 O           1.9821    2.3186   26.0076 O.2     1  UNL1       -0.2701
     24 H          -0.8745    0.4384   25.3337 H       1  UNL1        0.1498
     25 C          -0.5951    1.4140   27.2484 C.3     1  UNL1        0.1056
     26 C          -0.2865    0.4965   28.3944 C.3     1  UNL1        0.0772
     27 C          -1.2764   -0.5545   28.8013 C.3     1  UNL1        0.0191
     28 N           1.0120    0.6300   29.1334 N.3     1  UNL1       -0.2724
     29 C           0.4719    2.1733   31.1524 C.3     1  UNL1        0.0188
     30 C           1.2942    1.8652   29.9363 C.3     1  UNL1        0.0721
     31 C           2.0280   -0.4716   29.0696 C.3     1  UNL1        0.0721
     32 C           2.8862   -0.6304   27.8496 C.3     1  UNL1        0.0188
     33 N           3.6044   -1.6472   21.9449 N.pl3   1  UNL1       -0.2881
     34 C           4.4318   -2.5406   22.8209 C.3     1  UNL1        0.1234
     35 C           4.9375   -3.2625   21.6072 C.3     1  UNL1        0.1547
     36 C           4.1101   -2.3692   20.7312 C.3     1  UNL1        0.1234
     37 O           5.8801   -4.4046   21.3684 O.3     1  UNL1       -0.3501
     38 C           7.3466   -4.1426   21.1933 C.3     1  UNL1        0.1741
@<TRIPOS>BOND
     1    29    30    1
     2    30    28    1
     3    28    31    1
     4    31    32    1
     5    28    26    1
     6    26    27    1
     7    26    25    1
     8    25    21    1
     9    21    22   am
    10    22    23    2
    11    22     1    1
    12     1     2   ar
    13     2     3   ar
    14     3     7    1
    15     7     8   ar
    16     8     9   ar
    17     9    10   ar
    18    10    11   ar
    19    11    12   ar
    20    12    13   ar
    21    13    16    1
    22    16    17   ar
    23    17    18   ar
    24    18    19   ar
    25    19    20   ar
    26    13    14   ar
    27    14    15   ar
    28     3     4   ar
    29     4     5   ar
    30     5    33    1
    31    33    34    1
    32    34    35    1
    33    35    37    1
    34    37    38    1
    35    35    36    1
    36     5     6   ar
    37     6     1   ar
    38    15     7   ar
    39    36    33    1
    40    15    10   ar
    41    20    16   ar
    42    21    24    1
@<TRIPOS>MOLECULE
*****
 38 42 0 0 0
SMALL
GASTEIGER

@<TRIPOS>ATOM
      1 C           3.7229   -1.0912   24.9173 C.ar    1  UNL1        0.0576
      2 C           4.7934   -2.0892   24.5887 C.ar    1  UNL1        0.0239
      3 C           5.0336   -2.4895   23.1633 C.ar    1  UNL1        0.0874
      4 N           4.2033   -1.8917   22.0663 N.ar    1  UNL1       -0.2305
      5 C           3.1328   -0.8936   22.3949 C.ar    1  UNL1        0.1319
      6 C           2.8926   -0.4934   23.8204 C.ar    1  UNL1        0.0388
      7 C           6.1041   -3.4876   22.8347 C.ar    1  UNL1        0.0743
      8 C           6.6367   -3.7906   21.4655 C.ar    1  UNL1        0.1251
      9 N           7.6917   -4.8481   21.6022 N.ar    1  UNL1       -0.1620
     10 N           7.8111   -5.1986   23.0558 N.ar    1  UNL1       -0.2106
     11 C           8.6865   -6.1749   23.7841 C.ar    1  UNL1        0.1036
     12 C           8.5807   -6.3103   25.2743 C.ar    1  UNL1        0.0404
     13 C           7.5996   -5.4694   26.0360 C.ar    1  UNL1        0.0905
     14 N           6.7242   -4.4932   25.3077 N.ar    1  UNL1       -0.2259
     15 C           6.8299   -4.3578   23.8175 C.ar    1  UNL1        0.1667
     16 C           7.4938   -5.6048   27.5262 C.ar    1  UNL1        0.0472
     17 C           6.4021   -5.0422   28.3874 C.ar    1  UNL1        0.0085
     18 C           6.6948   -5.4162   29.8102 C.ar    1  UNL1        0.0075
     19 C           7.9674   -6.2100   29.8284 C.ar    1  UNL1        0.0355
     20 S           8.4613   -6.3265   28.4168 S.2     1  UNL1       -0.0849
     21 N           3.2847    0.7541   26.6930 N.am    1  UNL1       -0.2995
     22 C           3.4827   -0.6909   26.3428 C.2     1  UNL1        0.2460
     23 O           3.4406   -1.7358   27.4183 O.2     1  UNL1       -0.2701
     24 H           3.3124    1.4398   25.9872 H       1  UNL1        0.1498
     25 C           3.0445    1.1543   28.1185 C.3     1  UNL1        0.1056
     26 C           1.7017    1.6779   28.5345 C.3     1  UNL1        0.0772
     27 C           1.6080    2.7922   29.5342 C.3     1  UNL1        0.0191
     28 N           0.4527    1.0870   27.9508 N.3     1  UNL1       -0.2724
     29 C          -1.5099   -0.1967   29.0689 C.3     1  UNL1        0.0188
     30 C          -0.1143   -0.1800   28.5194 C.3     1  UNL1        0.0721
     31 C          -0.2293    1.7630   26.7985 C.3     1  UNL1        0.0721
     32 C          -0.0279    1.2515   25.4029 C.3     1  UNL1        0.0188
     33 N           2.3026   -0.2959   21.2980 N.pl3   1  UNL1       -0.2881
     34 C           2.4985   -0.0554   19.8304 C.3     1  UNL1        0.1234
     35 C           1.1285    0.5495   19.7465 C.3     1  UNL1        0.1547
     36 C           0.9325    0.3090   21.2141 C.3     1  UNL1        0.1234
     37 O           0.2982    1.1472   18.6495 O.3     1  UNL1       -0.3501
     38 C           0.5419    2.5605   18.2098 C.3     1  UNL1        0.1741
@<TRIPOS>BOND
     1    29    30    1
     2    30    28    1
     3    28    31    1
     4    31    32    1
     5    28    26    1
     6    26    27    1
     7    26    25    1
     8    25    21    1
     9    21    22   am
    10    22    23    2
    11    22     1    1
    12     1     2   ar
    13     2     3   ar
    14     3     7    1
    15     7     8   ar
    16     8     9   ar
    17     9    10   ar
    18    10    11   ar
    19    11    12   ar
    20    12    13   ar
    21    13    16    1
    22    16    17   ar
    23    17    18   ar
    24    18    19   ar
    25    19    20   ar
    26    13    14   ar
    27    14    15   ar
    28     3     4   ar
    29     4     5   ar
    30     5    33    1
    31    33    34    1
    32    34    35    1
    33    35    37    1
    34    37    38    1
    35    35    36    1
    36     5     6   ar
    37     6     1   ar
    38    15     7   ar
    39    36    33    1
    40    15    10   ar
    41    20    16   ar
    42    21    24    1
@<TRIPOS>MOLECULE
*****
 38 42 0 0 0
SMALL
GASTEIGER

@<TRIPOS>ATOM
      1 C           2.5895    0.1336   20.9448 C.ar    1  UNL1        0.0576
      2 C           1.6957    0.9373   20.0476 C.ar    1  UNL1        0.0239
      3 C           0.6156    1.7947   20.6377 C.ar    1  UNL1        0.0874
      4 N           0.4294    1.8483   22.1252 N.ar    1  UNL1       -0.2305
      5 C           1.3233    1.0445   23.0224 C.ar    1  UNL1        0.1319
      6 C           2.4033    0.1872   22.4322 C.ar    1  UNL1        0.0388
      7 C          -0.2783    2.5984   19.7405 C.ar    1  UNL1        0.0743
      8 C          -0.0181    2.9248   18.2997 C.ar    1  UNL1        0.1251
      9 N          -1.1682    3.7450   17.7953 N.ar    1  UNL1       -0.1620
     10 N          -2.1392    3.9255   18.9243 N.ar    1  UNL1       -0.2106
     11 C          -3.4531    4.6436   19.0130 C.ar    1  UNL1        0.1036
     12 C          -4.2171    4.6530   20.3039 C.ar    1  UNL1        0.0404
     13 C          -3.6670    3.9444   21.5061 C.ar    1  UNL1        0.0905
     14 N          -2.3531    3.2263   21.4174 N.ar    1  UNL1       -0.2259
     15 C          -1.5892    3.2169   20.1265 C.ar    1  UNL1        0.1667
     16 C          -4.4310    3.9538   22.7970 C.ar    1  UNL1        0.0472
     17 C          -3.9331    3.4516   24.1198 C.ar    1  UNL1        0.0085
     18 C          -5.0212    3.6545   25.1321 C.ar    1  UNL1        0.0075
     19 C          -6.1917    4.2821   24.4348 C.ar    1  UNL1        0.0355
     20 S          -5.8269    4.4671   22.9917 S.2     1  UNL1       -0.0849
     21 N           3.3174   -1.8104   19.3824 N.am    1  UNL1       -0.2995
     22 C           3.6696   -0.7238   20.3545 C.2     1  UNL1        0.2460
     23 O           5.1019   -0.4946   20.7365 O.2     1  UNL1       -0.2701
     24 H           2.3774   -1.9609   19.1316 H       1  UNL1        0.1498
     25 C           4.3975   -2.6678   18.7921 C.3     1  UNL1        0.1056
     26 C           4.7860   -3.9522   19.4627 C.3     1  UNL1        0.0772
     27 C           4.5626   -5.2605   18.7640 C.3     1  UNL1        0.0191
     28 N           5.3980   -3.9281   20.8320 N.3     1  UNL1       -0.2724
     29 C           4.8594   -3.0295   23.2094 C.3     1  UNL1        0.0188
     30 C           4.5180   -3.9134   22.0466 C.3     1  UNL1        0.0721
     31 C           6.8900   -3.9187   20.9866 C.3     1  UNL1        0.0721
     32 C           7.7238   -2.9851   20.1601 C.3     1  UNL1        0.0188
     33 N           1.1370    1.0982   24.5098 N.pl3   1  UNL1       -0.2881
     34 C          -0.0337    1.3005   25.4255 C.3     1  UNL1        0.1234
     35 C           0.8735    1.1741   26.6133 C.3     1  UNL1        0.1547
     36 C           2.0442    0.9718   25.6976 C.3     1  UNL1        0.1234
     37 O           0.6872    1.2278   28.1007 O.3     1  UNL1       -0.3501
     38 C           0.5859   -0.0437   28.8902 C.3     1  UNL1        0.1741
@<TRIPOS>BOND
     1    29    30    1
     2    30    28    1
     3    28    31    1
     4    31    32    1
     5    28    26    1
     6    26    27    1
     7    26    25    1
     8    25    21    1
     9    21    22   am
    10    22    23    2
    11    22     1    1
    12     1     2   ar
    13     2     3   ar
    14     3     7    1
    15     7     8   ar
    16     8     9   ar
    17     9    10   ar
    18    10    11   ar
    19    11    12   ar
    20    12    13   ar
    21    13    16    1
    22    16    17   ar
    23    17    18   ar
    24    18    19   ar
    25    19    20   ar
    26    13    14   ar
    27    14    15   ar
    28     3     4   ar
    29     4     5   ar
    30     5    33    1
    31    33    34    1
    32    34    35    1
    33    35    37    1
    34    37    38    1
    35    35    36    1
    36     5     6   ar
    37     6     1   ar
    38    15     7   ar
    39    36    33    1
    40    15    10   ar
    41    20    16   ar
    42    21    24    1
@<TRIPOS>MOLECULE
*****
 38 42 0 0 0
SMALL
GASTEIGER

@<TRIPOS>ATOM
      1 C           5.2932   -2.2145   24.2960 C.ar    1  UNL1        0.0576
      2 C           6.2764   -2.9796   25.1314 C.ar    1  UNL1        0.0239
      3 C           6.1913   -2.9252   26.6279 C.ar    1  UNL1        0.0874
      4 N           5.1229   -2.1057   27.2891 N.ar    1  UNL1       -0.2305
      5 C           4.1397   -1.3406   26.4537 C.ar    1  UNL1        0.1319
      6 C           4.2249   -1.3950   24.9571 C.ar    1  UNL1        0.0388
      7 C           7.1745   -3.6903   27.4634 C.ar    1  UNL1        0.0743
      8 C           8.2150   -4.6415   26.9508 C.ar    1  UNL1        0.1251
      9 N           8.9734   -5.1776   28.1287 N.ar    1  UNL1       -0.1620
     10 N           8.4016   -4.5577   29.3692 N.ar    1  UNL1       -0.2106
     11 C           8.7497   -4.7116   30.8201 C.ar    1  UNL1        0.1036
     12 C           7.9860   -3.9462   31.8599 C.ar    1  UNL1        0.0404
     13 C           6.8742   -3.0270   31.4487 C.ar    1  UNL1        0.0905
     14 N           6.5261   -2.8732   29.9978 N.ar    1  UNL1       -0.2259
     15 C           7.2898   -3.6386   28.9581 C.ar    1  UNL1        0.1667
     16 C           6.1105   -2.2617   32.4884 C.ar    1  UNL1        0.0472
     17 C           4.7382   -2.5923   32.9958 C.ar    1  UNL1        0.0085
     18 C           4.3646   -1.5663   34.0242 C.ar    1  UNL1        0.0075
     19 C           5.5060   -0.6016   34.1526 C.ar    1  UNL1        0.0355
     20 S           6.5851   -1.0314   33.2034 S.2     1  UNL1       -0.0849
     21 N           5.0521   -3.5415   22.0753 N.am    1  UNL1       -0.2995
     22 C           5.3783   -2.2690   22.7994 C.2     1  UNL1        0.2460
     23 O           5.7896   -1.0508   22.0267 O.2     1  UNL1       -0.2701
     24 H           4.7821   -4.3410   22.5824 H       1  UNL1        0.1498
     25 C           5.1372   -3.5959   20.5788 C.3     1  UNL1        0.1056
     26 C           3.9413   -3.2401   19.7460 C.3     1  UNL1        0.0772
     27 C           3.1729   -4.3166   19.0385 C.3     1  UNL1        0.0191
     28 N           3.5138   -1.8078   19.6210 N.3     1  UNL1       -0.2724
     29 C           3.7894   -0.9731   17.1762 C.3     1  UNL1        0.0188
     30 C           4.1823   -0.9101   18.6224 C.3     1  UNL1        0.0721
     31 C           2.4177   -1.2732   20.4945 C.3     1  UNL1        0.0721
     32 C           1.2861   -0.4977   19.8878 C.3     1  UNL1        0.0188
     33 N           3.0715   -0.5212   27.1149 N.pl3   1  UNL1       -0.2881
     34 C           2.3015    0.7127   26.7478 C.3     1  UNL1        0.1234
     35 C           1.5606    0.6379   28.0499 C.3     1  UNL1        0.1547
     36 C           2.3306   -0.5960   28.4169 C.3     1  UNL1        0.1234
     37 O           0.4924    1.4573   28.7111 O.3     1  UNL1       -0.3501
     38 C           0.8699    2.6087   29.5953 C.3     1  UNL1        0.1741
@<TRIPOS>BOND
     1    29    30    1
     2    30    28    1
     3    28    31    1
     4    31    32    1
     5    28    26    1
     6    26    27    1
     7    26    25    1
     8    25    21    1
     9    21    22   am
    10    22    23    2
    11    22     1    1
    12     1     2   ar
    13     2     3   ar
    14     3     7    1
    15     7     8   ar
    16     8     9   ar
    17     9    10   ar
    18    10    11   ar
    19    11    12   ar
    20    12    13   ar
    21    13    16    1
    22    16    17   ar
    23    17    18   ar
    24    18    19   ar
    25    19    20   ar
    26    13    14   ar
    27    14    15   ar
    28     3     4   ar
    29     4     5   ar
    30     5    33    1
    31    33    34    1
    32    34    35    1
    33    35    37    1
    34    37    38    1
    35    35    36    1
    36     5     6   ar
    37     6     1   ar
    38    15     7   ar
    39    36    33    1
    40    15    10   ar
    41    20    16   ar
    42    21    24    1
@<TRIPOS>MOLECULE
*****
 38 42 0 0 0
SMALL
GASTEIGER

@<TRIPOS>ATOM
      1 C           0.1904    2.1836   24.1572 C.ar    1  UNL1        0.0576
      2 C          -1.1417    2.8705   24.2166 C.ar    1  UNL1        0.0239
      3 C          -1.8739    2.9757   25.5215 C.ar    1  UNL1        0.0874
      4 N          -1.2739    2.3938   26.7671 N.ar    1  UNL1       -0.2305
      5 C           0.0583    1.7068   26.7077 C.ar    1  UNL1        0.1319
      6 C           0.7904    1.6017   25.4028 C.ar    1  UNL1        0.0388
      7 C          -3.2060    3.6627   25.5809 C.ar    1  UNL1        0.0743
      8 C          -3.9093    4.1163   26.8257 C.ar    1  UNL1        0.1251
      9 N          -5.2066    4.7506   26.4201 N.ar    1  UNL1       -0.1620
     10 N          -5.3051    4.6890   24.9246 N.ar    1  UNL1       -0.2106
     11 C          -6.3609    5.1583   23.9680 C.ar    1  UNL1        0.1036
     12 C          -6.1802    4.9553   22.4928 C.ar    1  UNL1        0.0404
     13 C          -4.9438    4.2829   21.9742 C.ar    1  UNL1        0.0905
     14 N          -3.8879    3.8136   22.9307 N.ar    1  UNL1       -0.2259
     15 C          -4.0686    4.0166   24.4059 C.ar    1  UNL1        0.1667
     16 C          -4.7631    4.0798   20.4990 C.ar    1  UNL1        0.0472
     17 C          -3.4778    4.2263   19.7397 C.ar    1  UNL1        0.0085
     18 C          -3.7563    3.9316   18.2956 C.ar    1  UNL1        0.0075
     19 C          -5.2138    3.6030   18.1623 C.ar    1  UNL1        0.0355
     20 S          -5.8360    3.6946   19.5241 S.2     1  UNL1       -0.0849
     21 N           1.8812    0.9486   22.6190 N.am    1  UNL1       -0.2995
     22 C           0.9226    2.0784   22.8523 C.2     1  UNL1        0.2460
     23 O           0.6961    3.1032   21.7806 O.2     1  UNL1       -0.2701
     24 H           2.0299    0.2760   23.3224 H       1  UNL1        0.1498
     25 C           2.6134    0.8435   21.3141 C.3     1  UNL1        0.1056
     26 C           2.1201   -0.0924   20.2506 C.3     1  UNL1        0.0772
     27 C           0.6644   -0.4471   20.1800 C.3     1  UNL1        0.0191
     28 N           3.0827   -0.6736   19.2577 N.3     1  UNL1       -0.2724
     29 C           4.2029   -0.6103   16.9145 C.3     1  UNL1        0.0188
     30 C           3.1614   -0.1088   17.8704 C.3     1  UNL1        0.0721
     31 C           3.9665   -1.8196   19.6523 C.3     1  UNL1        0.0721
     32 C           3.5168   -3.2304   19.4129 C.3     1  UNL1        0.0188
     33 N           0.6582    1.1250   27.9533 N.pl3   1  UNL1       -0.2881
     34 C           0.3674   -0.0697   28.8126 C.3     1  UNL1        0.1234
     35 C           1.5065    0.3020   29.7150 C.3     1  UNL1        0.1547
     36 C           1.7972    1.4967   28.8557 C.3     1  UNL1        0.1234
     37 O           2.1064   -0.2798   30.9606 O.3     1  UNL1       -0.3501
     38 C           3.5227   -0.7737   30.9508 C.3     1  UNL1        0.1741
@<TRIPOS>BOND
     1    29    30    1
     2    30    28    1
     3    28    31    1
     4    31    32    1
     5    28    26    1
     6    26    27    1
     7    26    25    1
     8    25    21    1
     9    21    22   am
    10    22    23    2
    11    22     1    1
    12     1     2   ar
    13     2     3   ar
    14     3     7    1
    15     7     8   ar
    16     8     9   ar
    17     9    10   ar
    18    10    11   ar
    19    11    12   ar
    20    12    13   ar
    21    13    16    1
    22    16    17   ar
    23    17    18   ar
    24    18    19   ar
    25    19    20   ar
    26    13    14   ar
    27    14    15   ar
    28     3     4   ar
    29     4     5   ar
    30     5    33    1
    31    33    34    1
    32    34    35    1
    33    35    37    1
    34    37    38    1
    35    35    36    1
    36     5     6   ar
    37     6     1   ar
    38    15     7   ar
    39    36    33    1
    40    15    10   ar
    41    20    16   ar
    42    21    24    1
@<TRIPOS>MOLECULE
*****
 38 42 0 0 0
SMALL
GASTEIGER

@<TRIPOS>ATOM
      1 C           3.2595   -0.3046   25.2471 C.ar    1  UNL1        0.0576
      2 C           2.0883    0.5778   24.9312 C.ar    1  UNL1        0.0239
      3 C           1.2407    1.1252   26.0410 C.ar    1  UNL1        0.0874
      4 N           1.5643    0.7903   27.4670 N.ar    1  UNL1       -0.2305
      5 C           2.7355   -0.0921   27.7829 C.ar    1  UNL1        0.1319
      6 C           3.5831   -0.6395   26.6730 C.ar    1  UNL1        0.0388
      7 C           0.0695    2.0076   25.7251 C.ar    1  UNL1        0.0743
      8 C          -0.8466    2.6484   26.7252 C.ar    1  UNL1        0.1251
      9 N          -1.8735    3.4409   25.9718 N.ar    1  UNL1       -0.1620
     10 N          -1.5920    3.2898   24.5062 N.ar    1  UNL1       -0.2106
     11 C          -2.2740    3.8444   23.2908 C.ar    1  UNL1        0.1036
     12 C          -1.7552    3.5131   21.9229 C.ar    1  UNL1        0.0404
     13 C          -0.5544    2.6272   21.7704 C.ar    1  UNL1        0.0905
     14 N           0.1276    2.0727   22.9858 N.ar    1  UNL1       -0.2259
     15 C          -0.3912    2.4039   24.3537 C.ar    1  UNL1        0.1667
     16 C          -0.0356    2.2960   20.4025 C.ar    1  UNL1        0.0472
     17 C           0.5400    0.9792   19.9729 C.ar    1  UNL1        0.0085
     18 C           0.9300    1.0927   18.5290 C.ar    1  UNL1        0.0075
     19 C           0.5955    2.4798   18.0662 C.ar    1  UNL1        0.0355
     20 S          -0.0013    3.2234   19.2241 S.2     1  UNL1       -0.0849
     21 N           3.4591   -1.4597   22.9285 N.am    1  UNL1       -0.2995
     22 C           4.1070   -0.8520   24.1372 C.2     1  UNL1        0.2460
     23 O           5.6026   -0.7916   24.2358 O.2     1  UNL1       -0.2701
     24 H           2.4776   -1.4994   22.8638 H       1  UNL1        0.1498
     25 C           4.3067   -2.0071   21.8186 C.3     1  UNL1        0.1056
     26 C           4.3480   -1.3083   20.4919 C.3     1  UNL1        0.0772
     27 C           4.5649    0.1746   20.4317 C.3     1  UNL1        0.0191
     28 N           4.1723   -2.0926   19.2254 N.3     1  UNL1       -0.2724
     29 C           4.2344   -4.6810   19.0107 C.3     1  UNL1        0.0188
     30 C           3.4664   -3.4158   19.2545 C.3     1  UNL1        0.0721
     31 C           4.7025   -1.5537   17.9298 C.3     1  UNL1        0.0721
     32 C           3.7755   -0.8782   16.9631 C.3     1  UNL1        0.0188
     33 N           3.0591   -0.4270   29.2087 N.pl3   1  UNL1       -0.2881
     34 C           2.2627   -0.5687   30.4720 C.3     1  UNL1        0.1234
     35 C           3.5165   -0.9006   31.2253 C.3     1  UNL1        0.1547
     36 C           4.3129   -0.7589   29.9621 C.3     1  UNL1        0.1234
     37 O           3.8401   -1.2354   32.6512 O.3     1  UNL1       -0.3501
     38 C           4.5339   -2.5241   32.9800 C.3     1  UNL1        0.1741
@<TRIPOS>BOND
     1    29    30    1
     2    30    28    1
     3    28    31    1
     4    31    32    1
     5    28    26    1
     6    26    27    1
     7    26    25    1
     8    25    21    1
     9    21    22   am
    10    22    23    2
    11    22     1    1
    12     1     2   ar
    13     2     3   ar
    14     3     7    1
    15     7     8   ar
    16     8     9   ar
    17     9    10   ar
    18    10    11   ar
    19    11    12   ar
    20    12    13   ar
    21    13    16    1
    22    16    17   ar
    23    17    18   ar
    24    18    19   ar
    25    19    20   ar
    26    13    14   ar
    27    14    15   ar
    28     3     4   ar
    29     4     5   ar
    30     5    33    1
    31    33    34    1
    32    34    35    1
    33    35    37    1
    34    37    38    1
    35    35    36    1
    36     5     6   ar
    37     6     1   ar
    38    15     7   ar
    39    36    33    1
    40    15    10   ar
    41    20    16   ar
    42    21    24    1
@<TRIPOS>MOLECULE
*****
 38 42 0 0 0
SMALL
GASTEIGER

@<TRIPOS>ATOM
      1 C           4.0997   -1.0202   26.5939 C.ar    1  UNL1        0.0576
      2 C           5.2230   -1.6307   27.3783 C.ar    1  UNL1        0.0239
      3 C           6.1782   -2.5746   26.7101 C.ar    1  UNL1        0.0874
      4 N           6.0100   -2.9081   25.2572 N.ar    1  UNL1       -0.2305
      5 C           4.8866   -2.2975   24.4728 C.ar    1  UNL1        0.1319
      6 C           3.9315   -1.3536   25.1411 C.ar    1  UNL1        0.0388
      7 C           7.3016   -3.1851   27.4945 C.ar    1  UNL1        0.0743
      8 C           8.4714   -3.9312   26.9245 C.ar    1  UNL1        0.1251
      9 N           9.3452   -4.3639   28.0644 N.ar    1  UNL1       -0.1620
     10 N           8.7153   -3.8854   29.3388 N.ar    1  UNL1       -0.2106
     11 C           9.1287   -4.0188   30.7745 C.ar    1  UNL1        0.1036
     12 C           8.2790   -3.4238   31.8581 C.ar    1  UNL1        0.0404
     13 C           7.0160   -2.6952   31.5059 C.ar    1  UNL1        0.0905
     14 N           6.6026   -2.5618   30.0702 N.ar    1  UNL1       -0.2259
     15 C           7.4523   -3.1568   28.9867 C.ar    1  UNL1        0.1667
     16 C           6.1664   -2.1002   32.5895 C.ar    1  UNL1        0.0472
     17 C           4.8174   -2.5926   33.0227 C.ar    1  UNL1        0.0085
     18 C           4.3338   -1.7050   34.1310 C.ar    1  UNL1        0.0075
     19 C           5.3840   -0.6640   34.3827 C.ar    1  UNL1        0.0355
     20 S           6.5166   -0.9082   33.4301 S.2     1  UNL1       -0.0849
     21 N           2.0349   -0.6126   28.1172 N.am    1  UNL1       -0.2995
     22 C           3.1445   -0.0763   27.2622 C.2     1  UNL1        0.2460
     23 O           3.2989    1.4040   27.0755 O.2     1  UNL1       -0.2701
     24 H           1.9335   -1.5842   28.2398 H       1  UNL1        0.1498
     25 C           1.0797    0.3313   28.7855 C.3     1  UNL1        0.1056
     26 C          -0.2771    0.5704   28.1921 C.3     1  UNL1        0.0772
     27 C          -1.4802   -0.1126   28.7719 C.3     1  UNL1        0.0191
     28 N          -0.4307    1.4924   27.0190 N.3     1  UNL1       -0.2724
     29 C           0.7262    1.8302   24.7175 C.3     1  UNL1        0.0188
     30 C          -0.1242    1.0024   25.6349 C.3     1  UNL1        0.0721
     31 C          -0.8909    2.9044   27.2301 C.3     1  UNL1        0.0721
     32 C          -2.1465    3.3908   26.5690 C.3     1  UNL1        0.0188
     33 N           4.7185   -2.6310   23.0201 N.pl3   1  UNL1       -0.2881
     34 C           4.1355   -1.9269   21.8308 C.3     1  UNL1        0.1234
     35 C           4.4807   -3.1025   20.9655 C.3     1  UNL1        0.1547
     36 C           5.0637   -3.8066   22.1548 C.3     1  UNL1        0.1234
     37 O           4.3126   -3.4359   19.5127 O.3     1  UNL1       -0.3501
     38 C           3.2488   -4.4024   19.0834 C.3     1  UNL1        0.1741
@<TRIPOS>BOND
     1    29    30    1
     2    30    28    1
     3    28    31    1
     4    31    32    1
     5    28    26    1
     6    26    27    1
     7    26    25    1
     8    25    21    1
     9    21    22   am
    10    22    23    2
    11    22     1    1
    12     1     2   ar
    13     2     3   ar
    14     3     7    1
    15     7     8   ar
    16     8     9   ar
    17     9    10   ar
    18    10    11   ar
    19    11    12   ar
    20    12    13   ar
    21    13    16    1
    22    16    17   ar
    23    17    18   ar
    24    18    19   ar
    25    19    20   ar
    26    13    14   ar
    27    14    15   ar
    28     3     4   ar
    29     4     5   ar
    30     5    33    1
    31    33    34    1
    32    34    35    1
    33    35    37    1
    34    37    38    1
    35    35    36    1
    36     5     6   ar
    37     6     1   ar
    38    15     7   ar
    39    36    33    1
    40    15    10   ar
    41    20    16   ar
    42    21    24    1
@<TRIPOS>MOLECULE
*****
 38 42 0 0 0
SMALL
GASTEIGER

@<TRIPOS>ATOM
      1 C           2.9738   -0.3960   22.3611 C.ar    1  UNL1        0.0576
      2 C           2.2459    0.3148   21.2589 C.ar    1  UNL1        0.0239
      3 C           1.1443    1.2784   21.5871 C.ar    1  UNL1        0.0874
      4 N           0.7707    1.5314   23.0177 N.ar    1  UNL1       -0.2305
      5 C           1.4987    0.8206   24.1199 C.ar    1  UNL1        0.1319
      6 C           2.6002   -0.1431   23.7916 C.ar    1  UNL1        0.0388
      7 C           0.4163    1.9892   20.4849 C.ar    1  UNL1        0.0743
      8 C           0.8414    2.0569   19.0479 C.ar    1  UNL1        0.1251
      9 N          -0.1767    2.8666   18.3010 N.ar    1  UNL1       -0.1620
     10 N          -1.2310    3.2992   19.2764 N.ar    1  UNL1       -0.2106
     11 C          -2.4774    4.1169   19.1099 C.ar    1  UNL1        0.1036
     12 C          -3.3574    4.3924   20.2930 C.ar    1  UNL1        0.0404
     13 C          -2.9909    3.8501   21.6427 C.ar    1  UNL1        0.0905
     14 N          -1.7444    3.0324   21.8092 N.ar    1  UNL1       -0.2259
     15 C          -0.8645    2.7570   20.6261 C.ar    1  UNL1        0.1667
     16 C          -3.8708    4.1256   22.8259 C.ar    1  UNL1        0.0472
     17 C          -4.7230    3.1213   23.5437 C.ar    1  UNL1        0.0085
     18 C          -5.4319    3.8287   24.6604 C.ar    1  UNL1        0.0075
     19 C          -5.0178    5.2701   24.6328 C.ar    1  UNL1        0.0355
     20 S          -4.0530    5.4536   23.4990 S.2     1  UNL1       -0.0849
     21 N           5.2430   -0.9105   21.2052 N.am    1  UNL1       -0.2995
     22 C           4.0754   -1.3597   22.0328 C.2     1  UNL1        0.2460
     23 O           4.0094   -2.7726   22.5320 O.2     1  UNL1       -0.2701
     24 H           5.2864    0.0168   20.8775 H       1  UNL1        0.1498
     25 C           6.3446   -1.8742   20.8769 C.3     1  UNL1        0.1056
     26 C           6.5968   -2.2678   19.4515 C.3     1  UNL1        0.0772
     27 C           7.9989   -2.3024   18.9198 C.3     1  UNL1        0.0191
     28 N           5.4467   -2.6268   18.5579 N.3     1  UNL1       -0.2724
     29 C           3.6709   -0.8152   17.9977 C.3     1  UNL1        0.0188
     30 C           4.8851   -1.6070   17.6122 C.3     1  UNL1        0.0721
     31 C           4.8583   -4.0056   18.6101 C.3     1  UNL1        0.0721
     32 C           3.5832   -4.2489   19.3617 C.3     1  UNL1        0.0188
     33 N           1.1250    1.0736   25.5504 N.pl3   1  UNL1       -0.2881
     34 C           1.8475    1.0062   26.8632 C.3     1  UNL1        0.1234
     35 C           0.5967    1.4314   27.5735 C.3     1  UNL1        0.1547
     36 C          -0.1258    1.4988   26.2607 C.3     1  UNL1        0.1234
     37 O           0.2230    1.6844   29.0040 O.3     1  UNL1       -0.3501
     38 C           0.7169    2.9172   29.7013 C.3     1  UNL1        0.1741
@<TRIPOS>BOND
     1    29    30    1
     2    30    28    1
     3    28    31    1
     4    31    32    1
     5    28    26    1
     6    26    27    1
     7    26    25    1
     8    25    21    1
     9    21    22   am
    10    22    23    2
    11    22     1    1
    12     1     2   ar
    13     2     3   ar
    14     3     7    1
    15     7     8   ar
    16     8     9   ar
    17     9    10   ar
    18    10    11   ar
    19    11    12   ar
    20    12    13   ar
    21    13    16    1
    22    16    17   ar
    23    17    18   ar
    24    18    19   ar
    25    19    20   ar
    26    13    14   ar
    27    14    15   ar
    28     3     4   ar
    29     4     5   ar
    30     5    33    1
    31    33    34    1
    32    34    35    1
    33    35    37    1
    34    37    38    1
    35    35    36    1
    36     5     6   ar
    37     6     1   ar
    38    15     7   ar
    39    36    33    1
    40    15    10   ar
    41    20    16   ar
    42    21    24    1
@<TRIPOS>MOLECULE
*****
 38 42 0 0 0
SMALL
GASTEIGER

@<TRIPOS>ATOM
      1 C           4.4575   -0.4036   32.5562 C.ar    1  UNL1        0.0576
      2 C           5.0151    0.3857   33.7034 C.ar    1  UNL1        0.0239
      3 C           6.3248   -0.0088   34.3189 C.ar    1  UNL1        0.0874
      4 N           7.0771   -1.1927   33.7871 N.ar    1  UNL1       -0.2305
      5 C           6.5195   -1.9820   32.6399 C.ar    1  UNL1        0.1319
      6 C           5.2097   -1.5874   32.0244 C.ar    1  UNL1        0.0388
      7 C           6.8824    0.7805   35.4662 C.ar    1  UNL1        0.0743
      8 C           8.3060    1.2277   35.6193 C.ar    1  UNL1        0.1251
      9 N           8.4178    1.9847   36.9095 N.ar    1  UNL1       -0.1620
     10 N           7.0633    2.0053   37.5536 N.ar    1  UNL1       -0.2106
     11 C           6.5714    2.6056   38.8372 C.ar    1  UNL1        0.1036
     12 C           5.1305    2.4617   39.2288 C.ar    1  UNL1        0.0404
     13 C           4.1816    1.7174   38.3368 C.ar    1  UNL1        0.0905
     14 N           4.6735    1.1171   37.0532 N.ar    1  UNL1       -0.2259
     15 C           6.1144    1.2610   36.6616 C.ar    1  UNL1        0.1667
     16 C           2.7408    1.5735   38.7284 C.ar    1  UNL1        0.0472
     17 C           2.0566    0.2971   39.1192 C.ar    1  UNL1        0.0085
     18 C           0.6242    0.6154   39.4302 C.ar    1  UNL1        0.0075
     19 C           0.4231    2.0885   39.2317 C.ar    1  UNL1        0.0355
     20 S           1.7312    2.6806   38.7980 S.2     1  UNL1       -0.0849
     21 N           2.5740    1.3512   32.2058 N.am    1  UNL1       -0.2995
     22 C           3.1478   -0.0091   31.9407 C.2     1  UNL1        0.2460
     23 O           2.4117   -0.9749   31.0602 O.2     1  UNL1       -0.2701
     24 H           3.0571    1.9851   32.7837 H       1  UNL1        0.1498
     25 C           1.2642    1.7458   31.5903 C.3     1  UNL1        0.1056
     26 C           1.2335    2.3630   30.2235 C.3     1  UNL1        0.0772
     27 C           1.0569    3.8450   30.0736 C.3     1  UNL1        0.0191
     28 N           1.3793    1.4982   29.0066 N.3     1  UNL1       -0.2724
     29 C          -0.9650    0.9949   28.0062 C.3     1  UNL1        0.0188
     30 C           0.3022    0.5167   28.6507 C.3     1  UNL1        0.0721
     31 C           2.6020    1.6149   28.1456 C.3     1  UNL1        0.0721
     32 C           3.9656    1.5627   28.7685 C.3     1  UNL1        0.0188
     33 N           7.2717   -3.1657   32.1082 N.pl3   1  UNL1       -0.2881
     34 C           8.6989   -3.4340   31.7325 C.3     1  UNL1        0.1234
     35 C           8.3357   -4.8399   31.3562 C.3     1  UNL1        0.1547
     36 C           6.9085   -4.5716   31.7320 C.3     1  UNL1        0.1234
     37 O           9.0880   -6.0236   30.8246 O.3     1  UNL1       -0.3501
     38 C           8.8871   -6.4638   29.4047 C.3     1  UNL1        0.1741
@<TRIPOS>BOND
     1    29    30    1
     2    30    28    1
     3    28    31    1
     4    31    32    1
     5    28    26    1
     6    26    27    1
     7    26    25    1
     8    25    21    1
     9    21    22   am
    10    22    23    2
    11    22     1    1
    12     1     2   ar
    13     2     3   ar
    14     3     7    1
    15     7     8   ar
    16     8     9   ar
    17     9    10   ar
    18    10    11   ar
    19    11    12   ar
    20    12    13   ar
    21    13    16    1
    22    16    17   ar
    23    17    18   ar
    24    18    19   ar
    25    19    20   ar
    26    13    14   ar
    27    14    15   ar
    28     3     4   ar
    29     4     5   ar
    30     5    33    1
    31    33    34    1
    32    34    35    1
    33    35    37    1
    34    37    38    1
    35    35    36    1
    36     5     6   ar
    37     6     1   ar
    38    15     7   ar
    39    36    33    1
    40    15    10   ar
    41    20    16   ar
    42    21    24    1
