@<TRIPOS>MOLECULE
*****
 27 30 0 0 0
SMALL
GASTEIGER

@<TRIPOS>ATOM
      1 C           4.2344    1.2639   37.0474 C.2     1  UNL1        0.0919
      2 C           5.6583    1.7354   37.0372 C.2     1  UNL1        0.0183
      3 C           6.6306    1.1636   36.0485 C.2     1  UNL1        0.0511
      4 C           6.1791    0.1202   35.0700 C.2     1  UNL1        0.2322
      5 N           6.9050   -0.6210   33.9867 N.2     1  UNL1       -0.0308
      6 C           5.9298   -1.5506   33.3273 C.2     1  UNL1        0.3752
      7 N           4.6011   -1.3839   34.0031 N.2     1  UNL1       -0.0347
      8 C           4.7552   -0.3513   35.0802 C.2     1  UNL1        0.2191
      9 C           3.7828    0.2206   36.0689 C.3     1  UNL1        0.1226
     10 C           6.2305   -2.4831   32.1915 C.ar    1  UNL1        0.0884
     11 C           6.2077   -1.9772   30.7796 C.ar    1  UNL1        0.0077
     12 C           6.5084   -2.9096   29.6438 C.ar    1  UNL1        0.0003
     13 C           6.8319   -4.3480   29.9199 C.ar    1  UNL1        0.0000
     14 C           6.8548   -4.8540   31.3318 C.ar    1  UNL1        0.0003
     15 C           6.5541   -3.9215   32.4676 C.ar    1  UNL1        0.0077
     16 C           7.1326   -5.2806   28.7841 C.ar    1  UNL1        0.0000
     17 C           6.5691   -5.0083   27.4209 C.ar    1  UNL1        0.0000
     18 C           6.8698   -5.9408   26.2851 C.ar    1  UNL1        0.0000
     19 C           7.7340   -7.1455   26.5125 C.ar    1  UNL1        0.0000
     20 C           8.2975   -7.4177   27.8757 C.ar    1  UNL1        0.0000
     21 C           7.9969   -6.4853   29.0115 C.ar    1  UNL1        0.0000
     22 S           3.2620    1.8357   38.0361 S.O2    1  UNL1        0.0054
     23 O           4.2577    1.6239   39.1378 O.2     1  UNL1       -0.1689
     24 O           2.2664    2.0476   36.9343 O.2     1  UNL1       -0.1689
     25 C           2.2896    2.4076   39.0248 C.3     1  UNL1        0.1556
     26 C           1.1508    0.1627   39.6679 C.3     1  UNL1        0.0019
     27 C           1.0592    1.6356   39.3990 C.3     1  UNL1        0.0257
@<TRIPOS>BOND
     1    26    27    1
     2    27    25    1
     3    25    22    1
     4    22    23    2
     5    22    24    2
     6    22     1    1
     7     1     2    2
     8     2     3    1
     9     3     4    2
    10     4     5    1
    11     5     6    2
    12     6    10    1
    13    10    11   ar
    14    11    12   ar
    15    12    13   ar
    16    13    16    1
    17    16    17   ar
    18    17    18   ar
    19    18    19   ar
    20    19    20   ar
    21    20    21   ar
    22    13    14   ar
    23    14    15   ar
    24     6     7    1
    25     7     8    2
    26     8     9    1
    27     9     1    1
    28     8     4    1
    29    15    10   ar
    30    21    16   ar
@<TRIPOS>MOLECULE
*****
 27 30 0 0 0
SMALL
GASTEIGER

@<TRIPOS>ATOM
      1 C           4.0825    1.1640   35.8281 C.2     1  UNL1        0.0919
      2 C           4.3967    2.2015   34.7913 C.2     1  UNL1        0.0183
      3 C           4.9426    1.7872   33.4570 C.2     1  UNL1        0.0511
      4 C           5.1742    0.3354   33.1594 C.2     1  UNL1        0.2322
      5 N           5.6982   -0.3687   31.9430 N.2     1  UNL1       -0.0308
      6 C           5.7078   -1.8414   32.2280 C.2     1  UNL1        0.3752
      7 N           5.1898   -2.0475   33.6205 N.2     1  UNL1       -0.0347
      8 C           4.8600   -0.7021   34.1962 C.2     1  UNL1        0.2191
      9 C           4.3142   -0.2878   35.5305 C.3     1  UNL1        0.1226
     10 C           6.1567   -2.9188   31.2857 C.ar    1  UNL1        0.0884
     11 C           6.1871   -2.6587   29.8088 C.ar    1  UNL1        0.0077
     12 C           6.6359   -3.7360   28.8665 C.ar    1  UNL1        0.0003
     13 C           7.0543   -5.0735   29.4013 C.ar    1  UNL1        0.0000
     14 C           7.0239   -5.3337   30.8782 C.ar    1  UNL1        0.0003
     15 C           6.5751   -4.2563   31.8205 C.ar    1  UNL1        0.0077
     16 C           7.5032   -6.1510   28.4590 C.ar    1  UNL1        0.0000
     17 C           8.5401   -7.1437   28.8942 C.ar    1  UNL1        0.0000
     18 C           8.9890   -8.2211   27.9521 C.ar    1  UNL1        0.0000
     19 C           8.4010   -8.3057   26.5748 C.ar    1  UNL1        0.0000
     20 C           7.3641   -7.3130   26.1396 C.ar    1  UNL1        0.0000
     21 C           6.9152   -6.2356   27.0817 C.ar    1  UNL1        0.0000
     22 S           3.5367    1.5783   37.1624 S.O2    1  UNL1        0.0054
     23 O           2.4087    2.2929   36.4791 O.2     1  UNL1       -0.1689
     24 O           4.6647    0.8637   37.8457 O.2     1  UNL1       -0.1689
     25 C           2.9909    1.9926   38.4967 C.3     1  UNL1        0.1556
     26 C           1.2907    0.2208   39.3452 C.3     1  UNL1        0.0019
     27 C           1.5916    1.6162   38.8843 C.3     1  UNL1        0.0257
@<TRIPOS>BOND
     1    26    27    1
     2    27    25    1
     3    25    22    1
     4    22    23    2
     5    22    24    2
     6    22     1    1
     7     1     2    2
     8     2     3    1
     9     3     4    2
    10     4     5    1
    11     5     6    2
    12     6    10    1
    13    10    11   ar
    14    11    12   ar
    15    12    13   ar
    16    13    16    1
    17    16    17   ar
    18    17    18   ar
    19    18    19   ar
    20    19    20   ar
    21    20    21   ar
    22    13    14   ar
    23    14    15   ar
    24     6     7    1
    25     7     8    2
    26     8     9    1
    27     9     1    1
    28     8     4    1
    29    15    10   ar
    30    21    16   ar
@<TRIPOS>MOLECULE
*****
 27 30 0 0 0
SMALL
GASTEIGER

@<TRIPOS>ATOM
      1 C           3.0907   -0.0307   18.6998 C.2     1  UNL1        0.0919
      2 C           3.4256    1.3304   18.1658 C.2     1  UNL1        0.0183
      3 C           2.5415    2.4995   18.4846 C.2     1  UNL1        0.0511
      4 C           1.3225    2.3075   19.3374 C.2     1  UNL1        0.2322
      5 N           0.2713    3.2646   19.8157 N.2     1  UNL1       -0.0308
      6 C          -0.7134    2.4950   20.6453 C.2     1  UNL1        0.3752
      7 N          -0.2706    1.0622   20.6798 N.2     1  UNL1       -0.0347
      8 C           0.9877    0.9464   19.8714 C.2     1  UNL1        0.2191
      9 C           1.8718   -0.2227   19.5526 C.3     1  UNL1        0.1226
     10 C          -1.9276    3.0591   21.3218 C.ar    1  UNL1        0.0884
     11 C          -3.2224    3.1652   20.5720 C.ar    1  UNL1        0.0077
     12 C          -4.4366    3.7293   21.2484 C.ar    1  UNL1        0.0003
     13 C          -4.3560    4.1873   22.6745 C.ar    1  UNL1        0.0000
     14 C          -3.0611    4.0812   23.4242 C.ar    1  UNL1        0.0003
     15 C          -1.8469    3.5171   22.7478 C.ar    1  UNL1        0.0077
     16 C          -5.5702    4.7515   23.3509 C.ar    1  UNL1        0.0000
     17 C          -6.9298    4.2060   23.0284 C.ar    1  UNL1        0.0000
     18 C          -8.1439    4.7700   23.7048 C.ar    1  UNL1        0.0000
     19 C          -7.9985    5.8796   24.7036 C.ar    1  UNL1        0.0000
     20 C          -6.6390    6.4251   25.0261 C.ar    1  UNL1        0.0000
     21 C          -5.4248    5.8610   24.3497 C.ar    1  UNL1        0.0000
     22 S           3.9748   -1.1998   18.3810 S.O2    1  UNL1        0.0054
     23 O           4.2725   -1.3728   19.8410 O.2     1  UNL1       -0.1689
     24 O           3.6771   -1.0268   16.9211 O.2     1  UNL1       -0.1689
     25 C           4.8589   -2.3688   18.0622 C.3     1  UNL1        0.1556
     26 C           4.0834   -4.6975   18.9142 C.3     1  UNL1        0.0019
     27 C           4.9826   -3.5031   19.0359 C.3     1  UNL1        0.0257
@<TRIPOS>BOND
     1    26    27    1
     2    27    25    1
     3    25    22    1
     4    22    23    2
     5    22    24    2
     6    22     1    1
     7     1     2    2
     8     2     3    1
     9     3     4    2
    10     4     5    1
    11     5     6    2
    12     6    10    1
    13    10    11   ar
    14    11    12   ar
    15    12    13   ar
    16    13    16    1
    17    16    17   ar
    18    17    18   ar
    19    18    19   ar
    20    19    20   ar
    21    20    21   ar
    22    13    14   ar
    23    14    15   ar
    24     6     7    1
    25     7     8    2
    26     8     9    1
    27     9     1    1
    28     8     4    1
    29    15    10   ar
    30    21    16   ar
@<TRIPOS>MOLECULE
*****
 27 30 0 0 0
SMALL
GASTEIGER

@<TRIPOS>ATOM
      1 C           4.8475   -0.4174   34.4014 C.2     1  UNL1        0.0919
      2 C           4.9233   -1.7101   33.6443 C.2     1  UNL1        0.0183
      3 C           4.1647   -1.8731   32.3606 C.2     1  UNL1        0.0511
      4 C           3.3302   -0.7434   31.8339 C.2     1  UNL1        0.2322
      5 N           2.4789   -0.6121   30.6060 N.2     1  UNL1       -0.0308
      6 C           1.8769    0.7619   30.6040 C.2     1  UNL1        0.3752
      7 N           2.3562    1.4796   31.8308 N.2     1  UNL1       -0.0347
      8 C           3.2544    0.5493   32.5910 C.2     1  UNL1        0.2191
      9 C           4.0130    0.7123   33.8747 C.3     1  UNL1        0.1226
     10 C           0.9571    1.3200   29.5587 C.ar    1  UNL1        0.0884
     11 C          -0.1566    0.4768   29.0123 C.ar    1  UNL1        0.0077
     12 C          -1.0764    1.0349   27.9671 C.ar    1  UNL1        0.0003
     13 C          -0.8824    2.4361   27.4683 C.ar    1  UNL1        0.0000
     14 C           0.2313    3.2793   28.0147 C.ar    1  UNL1        0.0003
     15 C           1.1511    2.7212   29.0600 C.ar    1  UNL1        0.0077
     16 C          -1.8022    2.9942   26.4230 C.ar    1  UNL1        0.0000
     17 C          -1.3730    3.0261   24.9861 C.ar    1  UNL1        0.0000
     18 C          -2.2927    3.5841   23.9408 C.ar    1  UNL1        0.0000
     19 C          -3.6416    4.1104   24.3325 C.ar    1  UNL1        0.0000
     20 C          -4.0708    4.0786   25.7694 C.ar    1  UNL1        0.0000
     21 C          -3.1511    3.5205   26.8147 C.ar    1  UNL1        0.0000
     22 S           5.6061   -0.2544   35.6851 S.O2    1  UNL1        0.0054
     23 O           4.3121   -0.1712   36.4392 O.2     1  UNL1       -0.1689
     24 O           6.9001   -0.3376   34.9309 O.2     1  UNL1       -0.1689
     25 C           6.3647   -0.0914   36.9688 C.3     1  UNL1        0.1556
     26 C           8.4700    1.1836   37.8006 C.3     1  UNL1        0.0019
     27 C           7.0690    1.1994   37.2651 C.3     1  UNL1        0.0257
@<TRIPOS>BOND
     1    26    27    1
     2    27    25    1
     3    25    22    1
     4    22    23    2
     5    22    24    2
     6    22     1    1
     7     1     2    2
     8     2     3    1
     9     3     4    2
    10     4     5    1
    11     5     6    2
    12     6    10    1
    13    10    11   ar
    14    11    12   ar
    15    12    13   ar
    16    13    16    1
    17    16    17   ar
    18    17    18   ar
    19    18    19   ar
    20    19    20   ar
    21    20    21   ar
    22    13    14   ar
    23    14    15   ar
    24     6     7    1
    25     7     8    2
    26     8     9    1
    27     9     1    1
    28     8     4    1
    29    15    10   ar
    30    21    16   ar
@<TRIPOS>MOLECULE
*****
 27 30 0 0 0
SMALL
GASTEIGER

@<TRIPOS>ATOM
      1 C           7.3486   -5.2753   27.7622 C.2     1  UNL1        0.0919
      2 C           7.6088   -6.3677   28.7566 C.2     1  UNL1        0.0183
      3 C           7.4354   -6.1041   30.2230 C.2     1  UNL1        0.0511
      4 C           7.0018   -4.7480   30.6951 C.2     1  UNL1        0.2322
      5 N           6.7489   -4.1961   32.0667 N.2     1  UNL1       -0.0308
      6 C           6.3323   -2.7626   31.9201 C.2     1  UNL1        0.3752
      7 N           6.3278   -2.4284   30.4578 N.2     1  UNL1       -0.0347
      8 C           6.7416   -3.6555   29.7007 C.2     1  UNL1        0.2191
      9 C           6.9150   -3.9192   28.2343 C.3     1  UNL1        0.1226
     10 C           5.9818   -1.8273   33.0393 C.ar    1  UNL1        0.0884
     11 C           6.9684   -0.7897   33.4864 C.ar    1  UNL1        0.0077
     12 C           6.6180    0.1455   34.6055 C.ar    1  UNL1        0.0003
     13 C           5.2810    0.0430   35.2777 C.ar    1  UNL1        0.0000
     14 C           4.2944   -0.9947   34.8307 C.ar    1  UNL1        0.0003
     15 C           4.6448   -1.9299   33.7115 C.ar    1  UNL1        0.0077
     16 C           4.9305    0.9782   36.3969 C.ar    1  UNL1        0.0000
     17 C           5.6000    2.3171   36.4930 C.ar    1  UNL1        0.0000
     18 C           5.2495    3.2523   37.6122 C.ar    1  UNL1        0.0000
     19 C           4.2296    2.8486   38.6353 C.ar    1  UNL1        0.0000
     20 C           3.5602    1.5097   38.5392 C.ar    1  UNL1        0.0000
     21 C           3.9106    0.5745   37.4200 C.ar    1  UNL1        0.0000
     22 S           7.5220   -5.5390   26.2958 S.O2    1  UNL1        0.0054
     23 O           7.5063   -7.0155   26.5594 O.2     1  UNL1       -0.1689
     24 O           7.5378   -4.0624   26.0322 O.2     1  UNL1       -0.1689
     25 C           7.6955   -5.8026   24.8294 C.3     1  UNL1        0.1556
     26 C           8.9399   -7.2226   23.0447 C.3     1  UNL1        0.0019
     27 C           8.2313   -7.1237   24.3631 C.3     1  UNL1        0.0257
@<TRIPOS>BOND
     1    26    27    1
     2    27    25    1
     3    25    22    1
     4    22    23    2
     5    22    24    2
     6    22     1    1
     7     1     2    2
     8     2     3    1
     9     3     4    2
    10     4     5    1
    11     5     6    2
    12     6    10    1
    13    10    11   ar
    14    11    12   ar
    15    12    13   ar
    16    13    16    1
    17    16    17   ar
    18    17    18   ar
    19    18    19   ar
    20    19    20   ar
    21    20    21   ar
    22    13    14   ar
    23    14    15   ar
    24     6     7    1
    25     7     8    2
    26     8     9    1
    27     9     1    1
    28     8     4    1
    29    15    10   ar
    30    21    16   ar
@<TRIPOS>MOLECULE
*****
 27 30 0 0 0
SMALL
GASTEIGER

@<TRIPOS>ATOM
      1 C           4.5010   -2.1557   22.1155 C.2     1  UNL1        0.0919
      2 C           5.0819   -2.2621   23.4943 C.2     1  UNL1        0.0183
      3 C           4.4587   -1.5075   24.6310 C.2     1  UNL1        0.0511
      4 C           3.2546   -0.6465   24.3890 C.2     1  UNL1        0.2322
      5 N           2.4307    0.2077   25.3063 N.2     1  UNL1       -0.0308
      6 C           1.3405    0.8421   24.4944 C.2     1  UNL1        0.3752
      7 N           1.4906    0.3800   23.0753 N.2     1  UNL1       -0.0347
      8 C           2.6736   -0.5401   23.0102 C.2     1  UNL1        0.2191
      9 C           3.2969   -1.2947   21.8734 C.3     1  UNL1        0.1226
     10 C           0.2854    1.7749   25.0110 C.ar    1  UNL1        0.0884
     11 C          -0.2991    2.8201   24.1077 C.ar    1  UNL1        0.0077
     12 C          -1.3541    3.7528   24.6243 C.ar    1  UNL1        0.0003
     13 C          -1.8246    3.6404   26.0441 C.ar    1  UNL1        0.0000
     14 C          -1.2401    2.5952   26.9474 C.ar    1  UNL1        0.0003
     15 C          -0.1851    1.6625   26.4309 C.ar    1  UNL1        0.0077
     16 C          -2.8797    4.5732   26.5607 C.ar    1  UNL1        0.0000
     17 C          -2.4844    5.8144   27.3044 C.ar    1  UNL1        0.0000
     18 C          -3.5394    6.7472   27.8210 C.ar    1  UNL1        0.0000
     19 C          -4.9896    6.4388   27.5939 C.ar    1  UNL1        0.0000
     20 C          -5.3849    5.1975   26.8501 C.ar    1  UNL1        0.0000
     21 C          -4.3299    4.2648   26.3335 C.ar    1  UNL1        0.0000
     22 S           5.1242   -2.9102   20.9787 S.O2    1  UNL1        0.0054
     23 O           4.9577   -1.7119   20.0920 O.2     1  UNL1       -0.1689
     24 O           5.2908   -4.1085   21.8655 O.2     1  UNL1       -0.1689
     25 C           5.7474   -3.6648   19.8420 C.3     1  UNL1        0.1556
     26 C           3.5069   -4.6944   19.0234 C.3     1  UNL1        0.0019
     27 C           4.8886   -4.1896   18.7298 C.3     1  UNL1        0.0257
@<TRIPOS>BOND
     1    26    27    1
     2    27    25    1
     3    25    22    1
     4    22    23    2
     5    22    24    2
     6    22     1    1
     7     1     2    2
     8     2     3    1
     9     3     4    2
    10     4     5    1
    11     5     6    2
    12     6    10    1
    13    10    11   ar
    14    11    12   ar
    15    12    13   ar
    16    13    16    1
    17    16    17   ar
    18    17    18   ar
    19    18    19   ar
    20    19    20   ar
    21    20    21   ar
    22    13    14   ar
    23    14    15   ar
    24     6     7    1
    25     7     8    2
    26     8     9    1
    27     9     1    1
    28     8     4    1
    29    15    10   ar
    30    21    16   ar
@<TRIPOS>MOLECULE
*****
 27 30 0 0 0
SMALL
GASTEIGER

@<TRIPOS>ATOM
      1 C          -4.7991    5.2281   21.3596 C.2     1  UNL1        0.0919
      2 C          -4.4730    5.9735   20.0995 C.2     1  UNL1        0.0183
      3 C          -3.3186    5.5367   19.2471 C.2     1  UNL1        0.0511
      4 C          -2.4904    4.3544   19.6548 C.2     1  UNL1        0.2322
      5 N          -1.3010    3.6957   19.0212 N.2     1  UNL1       -0.0308
      6 C          -0.8921    2.5431   19.8897 C.2     1  UNL1        0.3752
      7 N          -1.8287    2.4895   21.0601 N.2     1  UNL1       -0.0347
      8 C          -2.8166    3.6090   20.9149 C.2     1  UNL1        0.2191
      9 C          -3.9709    4.0458   21.7673 C.3     1  UNL1        0.1226
     10 C           0.2526    1.6083   19.6329 C.ar    1  UNL1        0.0884
     11 C           0.3913    0.3525   20.4416 C.ar    1  UNL1        0.0077
     12 C           1.5359   -0.5823   20.1848 C.ar    1  UNL1        0.0003
     13 C           2.5418   -0.2614   19.1194 C.ar    1  UNL1        0.0000
     14 C           2.4031    0.9943   18.3107 C.ar    1  UNL1        0.0003
     15 C           1.2585    1.9291   18.5675 C.ar    1  UNL1        0.0077
     16 C           3.6864   -1.1962   18.8626 C.ar    1  UNL1        0.0000
     17 C           3.5639   -2.6479   19.2200 C.ar    1  UNL1        0.0000
     18 C           4.7085   -3.5827   18.9632 C.ar    1  UNL1        0.0000
     19 C           5.9756   -3.0659   18.3490 C.ar    1  UNL1        0.0000
     20 C           6.0981   -1.6143   17.9916 C.ar    1  UNL1        0.0000
     21 C           4.9536   -0.6794   18.2484 C.ar    1  UNL1        0.0000
     22 S          -5.9534    5.6650   22.2121 S.O2    1  UNL1        0.0054
     23 O          -4.9957    6.2092   23.2301 O.2     1  UNL1       -0.1689
     24 O          -6.9112    5.1207   21.1940 O.2     1  UNL1       -0.1689
     25 C          -7.1078    6.1018   23.0645 C.3     1  UNL1        0.1556
     26 C          -9.1063    5.5117   24.6161 C.3     1  UNL1        0.0019
     27 C          -7.9047    5.0848   23.8264 C.3     1  UNL1        0.0257
@<TRIPOS>BOND
     1    26    27    1
     2    27    25    1
     3    25    22    1
     4    22    23    2
     5    22    24    2
     6    22     1    1
     7     1     2    2
     8     2     3    1
     9     3     4    2
    10     4     5    1
    11     5     6    2
    12     6    10    1
    13    10    11   ar
    14    11    12   ar
    15    12    13   ar
    16    13    16    1
    17    16    17   ar
    18    17    18   ar
    19    18    19   ar
    20    19    20   ar
    21    20    21   ar
    22    13    14   ar
    23    14    15   ar
    24     6     7    1
    25     7     8    2
    26     8     9    1
    27     9     1    1
    28     8     4    1
    29    15    10   ar
    30    21    16   ar
@<TRIPOS>MOLECULE
*****
 27 30 0 0 0
SMALL
GASTEIGER

@<TRIPOS>ATOM
      1 C           3.5125   -0.3238   31.4712 C.2     1  UNL1        0.0919
      2 C           2.3964    0.6643   31.3041 C.2     1  UNL1        0.0183
      3 C           1.9107    1.0220   29.9307 C.2     1  UNL1        0.0511
      4 C           2.5411    0.3916   28.7245 C.2     1  UNL1        0.2322
      5 N           2.2757    0.5471   27.2564 N.2     1  UNL1       -0.0308
      6 C           3.2277   -0.3449   26.5161 C.2     1  UNL1        0.3752
      7 N           4.0815   -1.0518   27.5267 N.2     1  UNL1       -0.0347
      8 C           3.6571   -0.5966   28.8915 C.2     1  UNL1        0.2191
      9 C           4.1428   -0.9543   30.2649 C.3     1  UNL1        0.1226
     10 C           3.3112   -0.5024   25.0266 C.ar    1  UNL1        0.0884
     11 C           4.2160   -1.5404   24.4318 C.ar    1  UNL1        0.0077
     12 C           4.2995   -1.6979   22.9425 C.ar    1  UNL1        0.0003
     13 C           3.4783   -0.8174   22.0480 C.ar    1  UNL1        0.0000
     14 C           2.5735    0.2207   22.6428 C.ar    1  UNL1        0.0003
     15 C           2.4900    0.3782   24.1322 C.ar    1  UNL1        0.0077
     16 C           3.5618   -0.9748   20.5586 C.ar    1  UNL1        0.0000
     17 C           3.0930    0.1310   19.6600 C.ar    1  UNL1        0.0000
     18 C           3.1765   -0.0264   18.1707 C.ar    1  UNL1        0.0000
     19 C           3.7287   -1.2896   17.5799 C.ar    1  UNL1        0.0000
     20 C           4.1975   -2.3955   18.4784 C.ar    1  UNL1        0.0000
     21 C           4.1140   -2.2381   19.9677 C.ar    1  UNL1        0.0000
     22 S           3.9982   -0.6815   32.8446 S.O2    1  UNL1        0.0054
     23 O           3.7477   -2.1319   32.5554 O.2     1  UNL1       -0.1689
     24 O           4.2487    0.7689   33.1337 O.2     1  UNL1       -0.1689
     25 C           4.4839   -1.0392   34.2179 C.3     1  UNL1        0.1556
     26 C           5.0267   -0.1196   36.5864 C.3     1  UNL1        0.0019
     27 C           5.0977    0.0124   35.0939 C.3     1  UNL1        0.0257
@<TRIPOS>BOND
     1    26    27    1
     2    27    25    1
     3    25    22    1
     4    22    23    2
     5    22    24    2
     6    22     1    1
     7     1     2    2
     8     2     3    1
     9     3     4    2
    10     4     5    1
    11     5     6    2
    12     6    10    1
    13    10    11   ar
    14    11    12   ar
    15    12    13   ar
    16    13    16    1
    17    16    17   ar
    18    17    18   ar
    19    18    19   ar
    20    19    20   ar
    21    20    21   ar
    22    13    14   ar
    23    14    15   ar
    24     6     7    1
    25     7     8    2
    26     8     9    1
    27     9     1    1
    28     8     4    1
    29    15    10   ar
    30    21    16   ar
@<TRIPOS>MOLECULE
*****
 27 30 0 0 0
SMALL
GASTEIGER

@<TRIPOS>ATOM
      1 C           7.7588   -5.1044   28.9054 C.2     1  UNL1        0.0919
      2 C           7.7471   -6.0101   30.1011 C.2     1  UNL1        0.0183
      3 C           7.1587   -5.5347   31.3964 C.2     1  UNL1        0.0511
      4 C           6.5821   -4.1535   31.4960 C.2     1  UNL1        0.2322
      5 N           5.9388   -3.4140   32.6314 N.2     1  UNL1       -0.0308
      6 C           5.5530   -2.0512   32.1375 C.2     1  UNL1        0.3752
      7 N           5.9578   -1.9485   30.6969 N.2     1  UNL1       -0.0347
      8 C           6.5939   -3.2478   30.3004 C.2     1  UNL1        0.2191
      9 C           7.1822   -3.7233   29.0051 C.3     1  UNL1        0.1226
     10 C           4.8803   -0.9792   32.9430 C.ar    1  UNL1        0.0884
     11 C           3.8252   -0.1188   32.3135 C.ar    1  UNL1        0.0077
     12 C           3.1526    0.9531   33.1188 C.ar    1  UNL1        0.0003
     13 C           3.5351    1.1645   34.5537 C.ar    1  UNL1        0.0000
     14 C           4.5903    0.3041   35.1832 C.ar    1  UNL1        0.0003
     15 C           5.2629   -0.7678   34.3779 C.ar    1  UNL1        0.0077
     16 C           2.8625    2.2364   35.3591 C.ar    1  UNL1        0.0000
     17 C           2.8342    2.1434   36.8560 C.ar    1  UNL1        0.0000
     18 C           2.1616    3.2153   37.6614 C.ar    1  UNL1        0.0000
     19 C           1.5174    4.3801   36.9700 C.ar    1  UNL1        0.0000
     20 C           1.5457    4.4731   35.4731 C.ar    1  UNL1        0.0000
     21 C           2.2183    3.4013   34.6677 C.ar    1  UNL1        0.0000
     22 S           8.3472   -5.5798   27.6102 S.O2    1  UNL1        0.0054
     23 O           9.3152   -6.4410   28.3660 O.2     1  UNL1       -0.1689
     24 O           7.3792   -4.7186   26.8543 O.2     1  UNL1       -0.1689
     25 C           8.9356   -6.0553   26.3149 C.3     1  UNL1        0.1556
     26 C           7.3001   -8.0687   26.1689 C.3     1  UNL1        0.0019
     27 C           8.2166   -7.0883   25.4989 C.3     1  UNL1        0.0257
@<TRIPOS>BOND
     1    26    27    1
     2    27    25    1
     3    25    22    1
     4    22    23    2
     5    22    24    2
     6    22     1    1
     7     1     2    2
     8     2     3    1
     9     3     4    2
    10     4     5    1
    11     5     6    2
    12     6    10    1
    13    10    11   ar
    14    11    12   ar
    15    12    13   ar
    16    13    16    1
    17    16    17   ar
    18    17    18   ar
    19    18    19   ar
    20    19    20   ar
    21    20    21   ar
    22    13    14   ar
    23    14    15   ar
    24     6     7    1
    25     7     8    2
    26     8     9    1
    27     9     1    1
    28     8     4    1
    29    15    10   ar
    30    21    16   ar
