@<TRIPOS>MOLECULE
*****
 40 42 0 0 0
SMALL
GASTEIGER

@<TRIPOS>ATOM
      1 C          -3.1668  -18.6322   20.3114 C.ar    1  UNL1        0.1263
      2 C          -2.3973  -18.6496   19.0240 C.ar    1  UNL1        0.0200
      3 C          -1.1752  -17.7937   18.8691 C.ar    1  UNL1        0.0014
      4 C          -0.7227  -16.9204   20.0016 C.ar    1  UNL1        0.0002
      5 C          -1.4923  -16.9030   21.2890 C.ar    1  UNL1        0.0059
      6 C          -2.7143  -17.7589   21.4439 C.ar    1  UNL1        0.0719
      7 C          -3.4839  -17.7416   22.7314 C.2     1  UNL1        0.2472
      8 O          -3.5929  -18.9892   23.5569 O.2     1  UNL1       -0.2701
      9 N          -4.1445  -16.4765   23.1932 N.am    1  UNL1       -0.3005
     10 H          -4.0730  -15.6577   22.6514 H       1  UNL1        0.1498
     11 C          -4.9141  -16.4591   24.4806 C.3     1  UNL1        0.0944
     12 C          -5.9625  -15.4120   24.7136 C.3     1  UNL1        0.0477
     13 C          -7.2718  -15.4865   23.9852 C.ar    1  UNL1       -0.0173
     14 C          -8.4479  -16.1637   24.6240 C.ar    1  UNL1       -0.0009
     15 C          -9.7571  -16.2382   23.8958 C.ar    1  UNL1        0.0394
     16 C          -9.8901  -15.6355   22.5286 C.ar    1  UNL1        0.1675
     17 O         -11.1993  -15.7100   21.8003 O.3     1  UNL1       -0.5029
     18 C          -8.7140  -14.9583   21.8898 C.ar    1  UNL1        0.1672
     19 O          -8.8470  -14.3556   20.5226 O.3     1  UNL1       -0.5029
     20 C          -7.4048  -14.8838   22.6181 C.ar    1  UNL1        0.0356
     21 H         -11.9341  -16.1330   22.1993 H       1  UNL1        0.2923
     22 H          -9.6649  -14.4021   20.0677 H       1  UNL1        0.2923
     23 S          -4.3889  -19.4881   20.4663 S.O2    1  UNL1        0.0608
     24 O          -3.5289  -20.6370   20.9026 O.2     1  UNL1       -0.1530
     25 O          -5.2489  -18.3392   20.0301 O.2     1  UNL1       -0.1530
     26 N          -5.6109  -20.3440   20.6213 N.3     1  UNL1       -0.1701
     27 H          -6.3128  -19.9739   19.9805 H       1  UNL1        0.1494
     28 C          -6.2724  -20.4714   21.9616 C.3     1  UNL1        0.1763
     29 O          -7.7999  -18.3804   21.7513 O.2     1  UNL1       -0.2732
     30 C          -7.5832  -19.7890   22.2189 C.2     1  UNL1        0.2439
     31 N          -8.6772  -20.5154   22.9437 N.am    1  UNL1       -0.2827
     32 H          -8.5349  -21.4400   23.2506 H       1  UNL1        0.1549
     33 C          -9.9881  -19.8330   23.2010 C.ar    1  UNL1        0.0505
     34 C         -10.4501  -19.6030   24.6094 C.ar    1  UNL1        0.0178
     35 C         -11.7609  -18.9207   24.8667 C.ar    1  UNL1        0.0379
     36 C         -12.6096  -18.4684   23.7156 C.ar    1  UNL1        0.1338
     37 O         -13.9205  -17.7861   23.9729 O.3     1  UNL1       -0.5055
     38 C         -12.1476  -18.6984   22.3072 C.ar    1  UNL1        0.0379
     39 C         -10.8368  -19.3807   22.0499 C.ar    1  UNL1        0.0178
     40 H         -14.2091  -17.6424   24.8527 H       1  UNL1        0.2922
@<TRIPOS>BOND
     1    29    30    2
     2    30    28    1
     3    28    26    1
     4    26    23    1
     5    23    24    2
     6    23    25    2
     7    23     1    1
     8     1     2   ar
     9     2     3   ar
    10     3     4   ar
    11     4     5   ar
    12     5     6   ar
    13     6     7    1
    14     7     8    2
    15     7     9   am
    16     9    11    1
    17    11    12    1
    18    12    13    1
    19    13    14   ar
    20    14    15   ar
    21    15    16   ar
    22    16    17    1
    23    16    18   ar
    24    18    19    1
    25    18    20   ar
    26    30    31   am
    27    31    33    1
    28    33    34   ar
    29    34    35   ar
    30    35    36   ar
    31    36    37    1
    32    36    38   ar
    33    38    39   ar
    34     6     1   ar
    35    20    13   ar
    36    39    33   ar
    37    26    27    1
    38     9    10    1
    39    17    21    1
    40    19    22    1
    41    31    32    1
    42    37    40    1
@<TRIPOS>MOLECULE
*****
 40 42 0 0 0
SMALL
GASTEIGER

@<TRIPOS>ATOM
      1 C         -11.1966  -18.2926   22.6675 C.ar    1  UNL1        0.1263
      2 C         -12.2818  -18.1297   21.6449 C.ar    1  UNL1        0.0200
      3 C         -13.7184  -18.0952   22.0750 C.ar    1  UNL1        0.0014
      4 C         -14.0697  -18.2235   23.5276 C.ar    1  UNL1        0.0002
      5 C         -12.9845  -18.3864   24.5502 C.ar    1  UNL1        0.0059
      6 C         -11.5479  -18.4210   24.1201 C.ar    1  UNL1        0.0719
      7 C         -10.4626  -18.5839   25.1427 C.2     1  UNL1        0.2472
      8 O          -9.8183  -19.9231   25.3457 O.2     1  UNL1       -0.2701
      9 N         -10.0216  -17.4075   25.9622 N.am    1  UNL1       -0.3005
     10 H         -10.4444  -16.5284   25.8289 H       1  UNL1        0.1498
     11 C          -8.9363  -17.5703   26.9847 C.3     1  UNL1        0.0944
     12 C          -7.9514  -16.4628   27.2160 C.3     1  UNL1        0.0477
     13 C          -7.1156  -15.9530   26.0796 C.ar    1  UNL1       -0.0173
     14 C          -5.6350  -15.7866   26.2532 C.ar    1  UNL1       -0.0009
     15 C          -4.7991  -15.2768   25.1169 C.ar    1  UNL1        0.0394
     16 C          -5.4439  -14.9333   23.8068 C.ar    1  UNL1        0.1675
     17 O          -4.6080  -14.4235   22.6703 O.3     1  UNL1       -0.5029
     18 C          -6.9245  -15.0997   23.6331 C.ar    1  UNL1        0.1672
     19 O          -7.5692  -14.7562   22.3230 O.3     1  UNL1       -0.5029
     20 C          -7.7603  -15.6095   24.7695 C.ar    1  UNL1        0.0356
     21 H          -3.6832  -14.3196   22.7788 H       1  UNL1        0.2923
     22 H          -7.0471  -14.4377   21.6131 H       1  UNL1        0.2923
     23 S          -9.7599  -18.3272   22.2375 S.O2    1  UNL1        0.0608
     24 O          -9.7002  -16.8305   22.3169 O.2     1  UNL1       -0.1530
     25 O          -9.8196  -19.8238   22.1581 O.2     1  UNL1       -0.1530
     26 N          -8.3233  -18.3617   21.8075 N.3     1  UNL1       -0.1701
     27 H          -8.1976  -17.6014   21.1392 H       1  UNL1        0.1494
     28 C          -7.7610  -19.5970   21.1687 C.3     1  UNL1        0.1763
     29 O          -5.7201  -20.9403   20.2856 O.2     1  UNL1       -0.2732
     30 C          -6.2990  -19.6735   20.8423 C.2     1  UNL1        0.2439
     31 N          -5.4159  -18.4831   21.0726 N.am    1  UNL1       -0.2827
     32 H          -5.7959  -17.6516   21.4380 H       1  UNL1        0.1549
     33 C          -3.9538  -18.5596   20.7462 C.ar    1  UNL1        0.0505
     34 C          -2.9613  -18.8879   21.8219 C.ar    1  UNL1        0.0178
     35 C          -1.4993  -18.9643   21.4955 C.ar    1  UNL1        0.0379
     36 C          -1.0297  -18.7124   20.0933 C.ar    1  UNL1        0.1338
     37 O           0.4324  -18.7889   19.7669 O.3     1  UNL1       -0.5055
     38 C          -2.0222  -18.3841   19.0176 C.ar    1  UNL1        0.0379
     39 C          -3.4842  -18.3077   19.3441 C.ar    1  UNL1        0.0178
     40 H           1.0523  -18.9940   20.4389 H       1  UNL1        0.2922
@<TRIPOS>BOND
     1    29    30    2
     2    30    28    1
     3    28    26    1
     4    26    23    1
     5    23    24    2
     6    23    25    2
     7    23     1    1
     8     1     2   ar
     9     2     3   ar
    10     3     4   ar
    11     4     5   ar
    12     5     6   ar
    13     6     7    1
    14     7     8    2
    15     7     9   am
    16     9    11    1
    17    11    12    1
    18    12    13    1
    19    13    14   ar
    20    14    15   ar
    21    15    16   ar
    22    16    17    1
    23    16    18   ar
    24    18    19    1
    25    18    20   ar
    26    30    31   am
    27    31    33    1
    28    33    34   ar
    29    34    35   ar
    30    35    36   ar
    31    36    37    1
    32    36    38   ar
    33    38    39   ar
    34     6     1   ar
    35    20    13   ar
    36    39    33   ar
    37    26    27    1
    38     9    10    1
    39    17    21    1
    40    19    22    1
    41    31    32    1
    42    37    40    1
@<TRIPOS>MOLECULE
*****
 40 42 0 0 0
SMALL
GASTEIGER

@<TRIPOS>ATOM
      1 C          -7.3206  -16.1172   24.1392 C.ar    1  UNL1        0.1263
      2 C          -8.5025  -16.1080   25.0628 C.ar    1  UNL1        0.0200
      3 C          -8.3410  -15.6525   26.4828 C.ar    1  UNL1        0.0014
      4 C          -6.9977  -15.2063   26.9792 C.ar    1  UNL1        0.0002
      5 C          -5.8158  -15.2156   26.0556 C.ar    1  UNL1        0.0059
      6 C          -5.9773  -15.6710   24.6356 C.ar    1  UNL1        0.0719
      7 C          -4.7954  -15.6803   23.7119 C.2     1  UNL1        0.2472
      8 O          -4.5383  -14.5087   22.8112 O.2     1  UNL1       -0.2701
      9 N          -3.8707  -16.8611   23.6890 N.am    1  UNL1       -0.3005
     10 H          -4.0394  -17.6300   24.2802 H       1  UNL1        0.1498
     11 C          -2.6888  -16.8704   22.7654 C.3     1  UNL1        0.0944
     12 C          -2.2683  -18.1464   22.0984 C.3     1  UNL1        0.0477
     13 C          -3.3004  -19.0543   21.4978 C.ar    1  UNL1       -0.0173
     14 C          -3.1403  -19.5433   20.0888 C.ar    1  UNL1       -0.0009
     15 C          -4.1723  -20.4511   19.4882 C.ar    1  UNL1        0.0394
     16 C          -5.3644  -20.8699   20.2966 C.ar    1  UNL1        0.1675
     17 O          -6.3964  -21.7778   19.6959 O.3     1  UNL1       -0.5029
     18 C          -5.5244  -20.3809   21.7055 C.ar    1  UNL1        0.1672
     19 O          -6.7166  -20.7997   22.5139 O.3     1  UNL1       -0.5029
     20 C          -4.4924  -19.4731   22.3061 C.ar    1  UNL1        0.0356
     21 H          -6.2965  -22.0833   18.8158 H       1  UNL1        0.2923
     22 H          -7.3613  -21.3668   22.1387 H       1  UNL1        0.2923
     23 S          -7.4820  -16.5727   22.7191 S.O2    1  UNL1        0.0608
     24 O          -7.7258  -15.1555   22.2924 O.2     1  UNL1       -0.1530
     25 O          -7.2383  -17.9899   23.1459 O.2     1  UNL1       -0.1530
     26 N          -7.6434  -17.0281   21.2991 N.3     1  UNL1       -0.1701
     27 H          -8.0849  -16.2609   20.7923 H       1  UNL1        0.1494
     28 C          -8.4380  -18.2631   20.9933 C.3     1  UNL1        0.1763
     29 O         -10.0899  -20.0214   21.9573 O.2     1  UNL1       -0.2732
     30 C          -9.6530  -18.5943   21.8081 C.2     1  UNL1        0.2439
     31 N         -10.4310  -17.4982   22.4739 N.am    1  UNL1       -0.2827
     32 H         -10.1442  -16.5615   22.3760 H       1  UNL1        0.1549
     33 C         -11.6461  -17.8293   23.2889 C.ar    1  UNL1        0.0505
     34 C         -11.5012  -18.5740   24.5828 C.ar    1  UNL1        0.0178
     35 C         -12.7162  -18.9051   25.3977 C.ar    1  UNL1        0.0379
     36 C         -14.0761  -18.4914   24.9186 C.ar    1  UNL1        0.1338
     37 O         -15.2912  -18.8225   25.7336 O.3     1  UNL1       -0.5055
     38 C         -14.2210  -17.7466   23.6247 C.ar    1  UNL1        0.0379
     39 C         -13.0060  -17.4156   22.8098 C.ar    1  UNL1        0.0178
     40 H         -15.2007  -19.2877   26.5419 H       1  UNL1        0.2922
@<TRIPOS>BOND
     1    29    30    2
     2    30    28    1
     3    28    26    1
     4    26    23    1
     5    23    24    2
     6    23    25    2
     7    23     1    1
     8     1     2   ar
     9     2     3   ar
    10     3     4   ar
    11     4     5   ar
    12     5     6   ar
    13     6     7    1
    14     7     8    2
    15     7     9   am
    16     9    11    1
    17    11    12    1
    18    12    13    1
    19    13    14   ar
    20    14    15   ar
    21    15    16   ar
    22    16    17    1
    23    16    18   ar
    24    18    19    1
    25    18    20   ar
    26    30    31   am
    27    31    33    1
    28    33    34   ar
    29    34    35   ar
    30    35    36   ar
    31    36    37    1
    32    36    38   ar
    33    38    39   ar
    34     6     1   ar
    35    20    13   ar
    36    39    33   ar
    37    26    27    1
    38     9    10    1
    39    17    21    1
    40    19    22    1
    41    31    32    1
    42    37    40    1
@<TRIPOS>MOLECULE
*****
 40 42 0 0 0
SMALL
GASTEIGER

@<TRIPOS>ATOM
      1 C          -6.9759  -17.2058   23.2082 C.ar    1  UNL1        0.1263
      2 C          -5.5223  -16.8456   23.1233 C.ar    1  UNL1        0.0200
      3 C          -4.9068  -15.9605   24.1662 C.ar    1  UNL1        0.0014
      4 C          -5.7450  -15.4356   25.2941 C.ar    1  UNL1        0.0002
      5 C          -7.1985  -15.7959   25.3790 C.ar    1  UNL1        0.0059
      6 C          -7.8140  -16.6809   24.3361 C.ar    1  UNL1        0.0719
      7 C          -9.2677  -17.0412   24.4210 C.2     1  UNL1        0.2472
      8 O         -10.3087  -16.0795   23.9297 O.2     1  UNL1       -0.2701
      9 N          -9.6803  -18.3632   24.9972 N.am    1  UNL1       -0.3005
     10 H          -8.9971  -18.9945   25.3196 H       1  UNL1        0.1498
     11 C         -11.1339  -18.7235   25.0821 C.3     1  UNL1        0.0944
     12 C         -11.8572  -19.2151   23.8634 C.3     1  UNL1        0.0477
     13 C         -11.9754  -18.3341   22.6551 C.ar    1  UNL1       -0.0173
     14 C         -12.9585  -17.2012   22.6463 C.ar    1  UNL1       -0.0009
     15 C         -13.0768  -16.3202   21.4381 C.ar    1  UNL1        0.0394
     16 C         -12.2120  -16.5721   20.2387 C.ar    1  UNL1        0.1675
     17 O         -12.3303  -15.6911   19.0303 O.3     1  UNL1       -0.5029
     18 C         -11.2289  -17.7051   20.2475 C.ar    1  UNL1        0.1672
     19 O         -10.3641  -17.9570   19.0480 O.3     1  UNL1       -0.5029
     20 C         -11.1107  -18.5860   21.4557 C.ar    1  UNL1        0.0356
     21 H         -12.9443  -14.9834   19.0248 H       1  UNL1        0.2923
     22 H         -10.4380  -17.4066   18.2932 H       1  UNL1        0.2923
     23 S          -7.5915  -18.0909   22.1652 S.O2    1  UNL1        0.0608
     24 O          -7.7671  -16.9056   21.2630 O.2     1  UNL1       -0.1530
     25 O          -7.4159  -19.2763   23.0675 O.2     1  UNL1       -0.1530
     26 N          -8.2070  -18.9759   21.1223 N.3     1  UNL1       -0.1701
     27 H          -8.6681  -19.7387   21.6182 H       1  UNL1        0.1494
     28 C          -7.3448  -19.6039   20.0676 C.3     1  UNL1        0.1763
     29 O          -5.1080  -20.7843   20.6620 O.2     1  UNL1       -0.2732
     30 C          -5.8511  -19.5662   20.1995 C.2     1  UNL1        0.2439
     31 N          -5.1005  -18.3103   19.8689 N.am    1  UNL1       -0.2827
     32 H          -5.5882  -17.5108   19.5654 H       1  UNL1        0.1549
     33 C          -3.6068  -18.2725   20.0009 C.ar    1  UNL1        0.0505
     34 C          -2.7573  -17.9305   18.8129 C.ar    1  UNL1        0.0178
     35 C          -1.2636  -17.8928   18.9449 C.ar    1  UNL1        0.0379
     36 C          -0.6194  -18.1970   20.2648 C.ar    1  UNL1        0.1338
     37 O           0.8744  -18.1593   20.3968 O.3     1  UNL1       -0.5055
     38 C          -1.4689  -18.5390   21.4529 C.ar    1  UNL1        0.0379
     39 C          -2.9625  -18.5768   21.3209 C.ar    1  UNL1        0.0178
     40 H           1.4050  -17.9456   19.6547 H       1  UNL1        0.2922
@<TRIPOS>BOND
     1    29    30    2
     2    30    28    1
     3    28    26    1
     4    26    23    1
     5    23    24    2
     6    23    25    2
     7    23     1    1
     8     1     2   ar
     9     2     3   ar
    10     3     4   ar
    11     4     5   ar
    12     5     6   ar
    13     6     7    1
    14     7     8    2
    15     7     9   am
    16     9    11    1
    17    11    12    1
    18    12    13    1
    19    13    14   ar
    20    14    15   ar
    21    15    16   ar
    22    16    17    1
    23    16    18   ar
    24    18    19    1
    25    18    20   ar
    26    30    31   am
    27    31    33    1
    28    33    34   ar
    29    34    35   ar
    30    35    36   ar
    31    36    37    1
    32    36    38   ar
    33    38    39   ar
    34     6     1   ar
    35    20    13   ar
    36    39    33   ar
    37    26    27    1
    38     9    10    1
    39    17    21    1
    40    19    22    1
    41    31    32    1
    42    37    40    1
@<TRIPOS>MOLECULE
*****
 40 42 0 0 0
SMALL
GASTEIGER

@<TRIPOS>ATOM
      1 C         -10.6167  -17.6425   20.8061 C.ar    1  UNL1        0.1263
      2 C         -10.7752  -17.0491   19.4377 C.ar    1  UNL1        0.0200
      3 C         -11.8957  -16.0910   19.1610 C.ar    1  UNL1        0.0014
      4 C         -12.8575  -15.7263   20.2526 C.ar    1  UNL1        0.0002
      5 C         -12.6990  -16.3197   21.6211 C.ar    1  UNL1        0.0059
      6 C         -11.5786  -17.2778   21.8978 C.ar    1  UNL1        0.0719
      7 C         -11.4201  -17.8713   23.2663 C.2     1  UNL1        0.2472
      8 O         -12.6325  -18.2197   24.0778 O.2     1  UNL1       -0.2701
      9 N         -10.0490  -18.1165   23.8232 N.am    1  UNL1       -0.3005
     10 H          -9.2532  -17.8878   23.2906 H       1  UNL1        0.1498
     11 C          -9.8904  -18.7099   25.1916 C.3     1  UNL1        0.0944
     12 C          -9.5959  -17.8224   26.3645 C.3     1  UNL1        0.0477
     13 C          -8.4443  -16.8628   26.3084 C.ar    1  UNL1       -0.0173
     14 C          -7.7086  -16.5000   27.5642 C.ar    1  UNL1       -0.0009
     15 C          -6.5571  -15.5404   27.5081 C.ar    1  UNL1        0.0394
     16 C          -6.1413  -14.9436   26.1963 C.ar    1  UNL1        0.1675
     17 O          -4.9898  -13.9840   26.1402 O.3     1  UNL1       -0.5029
     18 C          -6.8771  -15.3064   24.9405 C.ar    1  UNL1        0.1672
     19 O          -6.4614  -14.7095   23.6286 O.3     1  UNL1       -0.5029
     20 C          -8.0286  -16.2660   24.9966 C.ar    1  UNL1        0.0356
     21 H          -4.5301  -13.7573   26.9246 H       1  UNL1        0.2923
     22 H          -5.7420  -14.1101   23.5936 H       1  UNL1        0.2923
     23 S          -9.4963  -18.6007   21.0830 S.O2    1  UNL1        0.0608
     24 O          -8.5514  -17.4477   21.2492 O.2     1  UNL1       -0.1530
     25 O         -10.4411  -19.7537   20.9167 O.2     1  UNL1       -0.1530
     26 N          -8.3758  -19.5588   21.3598 N.3     1  UNL1       -0.1701
     27 H          -7.7335  -19.0851   21.9950 H       1  UNL1        0.1494
     28 C          -7.5496  -20.0938   20.2278 C.3     1  UNL1        0.1763
     29 O          -5.1921  -21.1842   20.1714 O.2     1  UNL1       -0.2732
     30 C          -6.0559  -19.9612   20.2616 C.2     1  UNL1        0.2439
     31 N          -5.4259  -18.6055   20.3856 N.am    1  UNL1       -0.2827
     32 H          -5.9929  -17.8028   20.4448 H       1  UNL1        0.1549
     33 C          -3.9321  -18.4729   20.4193 C.ar    1  UNL1        0.0505
     34 C          -3.1749  -18.1966   19.1543 C.ar    1  UNL1        0.0178
     35 C          -1.6812  -18.0640   19.1882 C.ar    1  UNL1        0.0379
     36 C          -0.9447  -18.2075   20.4870 C.ar    1  UNL1        0.1338
     37 O           0.5491  -18.0748   20.5208 O.3     1  UNL1       -0.5055
     38 C          -1.7019  -18.4838   21.7520 C.ar    1  UNL1        0.0379
     39 C          -3.1956  -18.6164   21.7182 C.ar    1  UNL1        0.0178
     40 H           1.0221  -17.9023   19.7305 H       1  UNL1        0.2922
@<TRIPOS>BOND
     1    29    30    2
     2    30    28    1
     3    28    26    1
     4    26    23    1
     5    23    24    2
     6    23    25    2
     7    23     1    1
     8     1     2   ar
     9     2     3   ar
    10     3     4   ar
    11     4     5   ar
    12     5     6   ar
    13     6     7    1
    14     7     8    2
    15     7     9   am
    16     9    11    1
    17    11    12    1
    18    12    13    1
    19    13    14   ar
    20    14    15   ar
    21    15    16   ar
    22    16    17    1
    23    16    18   ar
    24    18    19    1
    25    18    20   ar
    26    30    31   am
    27    31    33    1
    28    33    34   ar
    29    34    35   ar
    30    35    36   ar
    31    36    37    1
    32    36    38   ar
    33    38    39   ar
    34     6     1   ar
    35    20    13   ar
    36    39    33   ar
    37    26    27    1
    38     9    10    1
    39    17    21    1
    40    19    22    1
    41    31    32    1
    42    37    40    1
@<TRIPOS>MOLECULE
*****
 40 42 0 0 0
SMALL
GASTEIGER

@<TRIPOS>ATOM
      1 C          -7.4669  -16.2392   24.0296 C.ar    1  UNL1        0.1263
      2 C          -8.7426  -15.8794   24.7317 C.ar    1  UNL1        0.0200
      3 C          -8.7021  -15.3375   26.1298 C.ar    1  UNL1        0.0014
      4 C          -7.3859  -15.1555   26.8258 C.ar    1  UNL1        0.0002
      5 C          -6.1101  -15.5153   26.1237 C.ar    1  UNL1        0.0059
      6 C          -6.1506  -16.0572   24.7256 C.ar    1  UNL1        0.0719
      7 C          -4.8749  -16.4170   24.0234 C.2     1  UNL1        0.2472
      8 O          -4.2459  -15.4476   23.0671 O.2     1  UNL1       -0.2701
      9 N          -4.2281  -17.7464   24.2776 N.am    1  UNL1       -0.3005
     10 H          -4.6409  -18.3826   24.9053 H       1  UNL1        0.1498
     11 C          -2.9524  -18.1062   23.5755 C.3     1  UNL1        0.0944
     12 C          -2.9611  -19.1368   22.4856 C.3     1  UNL1        0.0477
     13 C          -2.4462  -18.7888   21.1203 C.ar    1  UNL1       -0.0173
     14 C          -3.2511  -19.1382   19.9037 C.ar    1  UNL1       -0.0009
     15 C          -2.7363  -18.7903   18.5385 C.ar    1  UNL1        0.0394
     16 C          -1.4165  -18.0930   18.3899 C.ar    1  UNL1        0.1675
     17 O          -0.9016  -17.7451   17.0246 O.3     1  UNL1       -0.5029
     18 C          -0.6116  -17.7437   19.6065 C.ar    1  UNL1        0.1672
     19 O           0.7082  -17.0465   19.4578 O.3     1  UNL1       -0.5029
     20 C          -1.1265  -18.0916   20.9717 C.ar    1  UNL1        0.0356
     21 H          -1.4044  -17.9633   16.2646 H       1  UNL1        0.2923
     22 H           1.0298  -16.8291   18.6050 H       1  UNL1        0.2923
     23 S          -7.5073  -16.7811   22.6315 S.O2    1  UNL1        0.0608
     24 O          -7.8754  -15.4216   22.1153 O.2     1  UNL1       -0.1530
     25 O          -7.1393  -18.1405   23.1476 O.2     1  UNL1       -0.1530
     26 N          -7.5478  -17.3229   21.2333 N.3     1  UNL1       -0.1701
     27 H          -7.9068  -16.5761   20.6385 H       1  UNL1        0.1494
     28 C          -8.3575  -18.5478   20.9268 C.3     1  UNL1        0.1763
     29 O         -10.3426  -20.1149   21.5216 O.2     1  UNL1       -0.2732
     30 C          -9.6553  -18.7869   21.6400 C.2     1  UNL1        0.2439
     31 N         -10.2657  -17.6979   22.4715 N.am    1  UNL1       -0.2827
     32 H          -9.8146  -16.8263   22.5492 H       1  UNL1        0.1549
     33 C         -11.5635  -17.9370   23.1848 C.ar    1  UNL1        0.0505
     34 C         -12.8556  -17.5094   22.5542 C.ar    1  UNL1        0.0178
     35 C         -14.1534  -17.7485   23.2675 C.ar    1  UNL1        0.0379
     36 C         -14.1590  -18.4150   24.6112 C.ar    1  UNL1        0.1338
     37 O         -15.4568  -18.6540   25.3245 O.3     1  UNL1       -0.5055
     38 C         -12.8668  -18.8425   25.2418 C.ar    1  UNL1        0.0379
     39 C         -11.5691  -18.6035   24.5285 C.ar    1  UNL1        0.0178
     40 H         -16.2639  -18.3870   24.9306 H       1  UNL1        0.2922
@<TRIPOS>BOND
     1    29    30    2
     2    30    28    1
     3    28    26    1
     4    26    23    1
     5    23    24    2
     6    23    25    2
     7    23     1    1
     8     1     2   ar
     9     2     3   ar
    10     3     4   ar
    11     4     5   ar
    12     5     6   ar
    13     6     7    1
    14     7     8    2
    15     7     9   am
    16     9    11    1
    17    11    12    1
    18    12    13    1
    19    13    14   ar
    20    14    15   ar
    21    15    16   ar
    22    16    17    1
    23    16    18   ar
    24    18    19    1
    25    18    20   ar
    26    30    31   am
    27    31    33    1
    28    33    34   ar
    29    34    35   ar
    30    35    36   ar
    31    36    37    1
    32    36    38   ar
    33    38    39   ar
    34     6     1   ar
    35    20    13   ar
    36    39    33   ar
    37    26    27    1
    38     9    10    1
    39    17    21    1
    40    19    22    1
    41    31    32    1
    42    37    40    1
@<TRIPOS>MOLECULE
*****
 40 42 0 0 0
SMALL
GASTEIGER

@<TRIPOS>ATOM
      1 C          -2.8683  -18.5580   20.4675 C.ar    1  UNL1        0.1263
      2 C          -2.0256  -18.5591   19.2266 C.ar    1  UNL1        0.0200
      3 C          -0.8969  -17.5814   19.0857 C.ar    1  UNL1        0.0014
      4 C          -0.6108  -16.6025   20.1857 C.ar    1  UNL1        0.0002
      5 C          -1.4535  -16.6013   21.4265 C.ar    1  UNL1        0.0059
      6 C          -2.5823  -17.5791   21.5674 C.ar    1  UNL1        0.0719
      7 C          -3.4250  -17.5779   22.8084 C.2     1  UNL1        0.2472
      8 O          -4.9195  -17.5090   22.6999 O.2     1  UNL1       -0.2701
      9 N          -2.7732  -17.6457   24.1577 N.am    1  UNL1       -0.3005
     10 H          -1.7924  -17.6909   24.2288 H       1  UNL1        0.1498
     11 C          -3.6159  -17.6445   25.3985 C.3     1  UNL1        0.0944
     12 C          -4.1413  -16.3511   25.9472 C.3     1  UNL1        0.0477
     13 C          -5.5690  -15.9590   25.7063 C.ar    1  UNL1       -0.0173
     14 C          -6.5861  -16.1234   26.7965 C.ar    1  UNL1       -0.0009
     15 C          -8.0138  -15.7314   26.5557 C.ar    1  UNL1        0.0394
     16 C          -8.4244  -15.1750   25.2246 C.ar    1  UNL1        0.1675
     17 O          -9.8521  -14.7830   24.9837 O.3     1  UNL1       -0.5029
     18 C          -7.4073  -15.0106   24.1344 C.ar    1  UNL1        0.1672
     19 O          -7.8180  -14.4542   22.8033 O.3     1  UNL1       -0.5029
     20 C          -5.9797  -15.4026   24.3752 C.ar    1  UNL1        0.0356
     21 H         -10.4874  -14.8857   25.6647 H       1  UNL1        0.2923
     22 H          -8.7099  -14.2093   22.6528 H       1  UNL1        0.2923
     23 S          -3.9972  -19.5357   20.6084 S.O2    1  UNL1        0.0608
     24 O          -4.8575  -18.6677   19.7388 O.2     1  UNL1       -0.1530
     25 O          -3.1368  -20.4037   21.4781 O.2     1  UNL1       -0.1530
     26 N          -5.1260  -20.5134   20.7494 N.3     1  UNL1       -0.1701
     27 H          -5.7485  -20.3608   19.9559 H       1  UNL1        0.1494
     28 C          -5.9823  -20.4978   21.9809 C.3     1  UNL1        0.1763
     29 O          -8.3586  -20.2038   22.9894 O.2     1  UNL1       -0.2732
     30 C          -7.3406  -19.8625   21.9419 C.2     1  UNL1        0.2439
     31 N          -7.6807  -18.8858   20.8555 N.am    1  UNL1       -0.2827
     32 H          -7.0126  -18.6618   20.1680 H       1  UNL1        0.1549
     33 C          -9.0390  -18.2504   20.8165 C.ar    1  UNL1        0.0505
     34 C         -10.0698  -18.7429   19.8445 C.ar    1  UNL1        0.0178
     35 C         -11.4280  -18.1075   19.8056 C.ar    1  UNL1        0.0379
     36 C         -11.7554  -16.9796   20.7386 C.ar    1  UNL1        0.1338
     37 O         -13.1136  -16.3442   20.6996 O.3     1  UNL1       -0.5055
     38 C         -10.7246  -16.4870   21.7106 C.ar    1  UNL1        0.0379
     39 C          -9.3664  -17.1225   21.7496 C.ar    1  UNL1        0.0178
     40 H         -13.7575  -16.6518   20.0924 H       1  UNL1        0.2922
@<TRIPOS>BOND
     1    29    30    2
     2    30    28    1
     3    28    26    1
     4    26    23    1
     5    23    24    2
     6    23    25    2
     7    23     1    1
     8     1     2   ar
     9     2     3   ar
    10     3     4   ar
    11     4     5   ar
    12     5     6   ar
    13     6     7    1
    14     7     8    2
    15     7     9   am
    16     9    11    1
    17    11    12    1
    18    12    13    1
    19    13    14   ar
    20    14    15   ar
    21    15    16   ar
    22    16    17    1
    23    16    18   ar
    24    18    19    1
    25    18    20   ar
    26    30    31   am
    27    31    33    1
    28    33    34   ar
    29    34    35   ar
    30    35    36   ar
    31    36    37    1
    32    36    38   ar
    33    38    39   ar
    34     6     1   ar
    35    20    13   ar
    36    39    33   ar
    37    26    27    1
    38     9    10    1
    39    17    21    1
    40    19    22    1
    41    31    32    1
    42    37    40    1
@<TRIPOS>MOLECULE
*****
 40 42 0 0 0
SMALL
GASTEIGER

@<TRIPOS>ATOM
      1 C         -10.0345  -18.0982   21.9980 C.ar    1  UNL1        0.1263
      2 C         -10.6248  -18.0015   20.6224 C.ar    1  UNL1        0.0200
      3 C         -11.7277  -17.0230   20.3468 C.ar    1  UNL1        0.0014
      4 C         -12.2404  -16.1412   21.4467 C.ar    1  UNL1        0.0002
      5 C         -11.6501  -16.2380   22.8222 C.ar    1  UNL1        0.0059
      6 C         -10.5472  -17.2165   23.0978 C.ar    1  UNL1        0.0719
      7 C          -9.9568  -17.3133   24.4734 C.2     1  UNL1        0.2472
      8 O         -10.2687  -18.4958   25.3419 O.2     1  UNL1       -0.2701
      9 N          -9.0546  -16.2275   24.9805 N.am    1  UNL1       -0.3005
     10 H          -8.8499  -15.4514   24.4104 H       1  UNL1        0.1498
     11 C          -8.4642  -16.3243   26.3560 C.3     1  UNL1        0.0944
     12 C          -7.0868  -15.7923   26.6201 C.3     1  UNL1        0.0477
     13 C          -6.0228  -15.9107   25.5694 C.ar    1  UNL1       -0.0173
     14 C          -4.9910  -16.9952   25.6658 C.ar    1  UNL1       -0.0009
     15 C          -3.9271  -17.1136   24.6151 C.ar    1  UNL1        0.0394
     16 C          -3.8949  -16.1476   23.4681 C.ar    1  UNL1        0.1675
     17 O          -2.8309  -16.2660   22.4173 O.3     1  UNL1       -0.5029
     18 C          -4.9267  -15.0631   23.3717 C.ar    1  UNL1        0.1672
     19 O          -4.8946  -14.0971   22.2246 O.3     1  UNL1       -0.5029
     20 C          -5.9907  -14.9447   24.4224 C.ar    1  UNL1        0.0356
     21 H          -2.1864  -16.9434   22.4775 H       1  UNL1        0.2923
     22 H          -4.2299  -14.1711   21.5683 H       1  UNL1        0.2923
     23 S          -8.9315  -19.0768   22.2737 S.O2    1  UNL1        0.0608
     24 O          -7.9150  -18.0112   21.9886 O.2     1  UNL1       -0.1530
     25 O          -9.9480  -20.1423   22.5587 O.2     1  UNL1       -0.1530
     26 N          -7.8286  -20.0552   22.5494 N.3     1  UNL1       -0.1701
     27 H          -7.2646  -19.6590   23.3013 H       1  UNL1        0.1494
     28 C          -6.8794  -20.4435   21.4546 C.3     1  UNL1        0.1763
     29 O          -4.7326  -19.7684   22.7529 O.2     1  UNL1       -0.2732
     30 C          -5.4749  -19.9169   21.4579 C.2     1  UNL1        0.2439
     31 N          -4.8126  -19.5390   20.1662 N.am    1  UNL1       -0.2827
     32 H          -5.2998  -19.6365   19.3163 H       1  UNL1        0.1549
     33 C          -3.4081  -19.0123   20.1695 C.ar    1  UNL1        0.0505
     34 C          -2.9525  -18.0843   19.0827 C.ar    1  UNL1        0.0178
     35 C          -1.5480  -17.5577   19.0860 C.ar    1  UNL1        0.0379
     36 C          -0.5991  -17.9592   20.1761 C.ar    1  UNL1        0.1338
     37 O           0.8055  -17.4326   20.1793 O.3     1  UNL1       -0.5055
     38 C          -1.0546  -18.8873   21.2628 C.ar    1  UNL1        0.0379
     39 C          -2.4591  -19.4139   21.2595 C.ar    1  UNL1        0.0178
     40 H           1.0901  -16.8529   19.5004 H       1  UNL1        0.2922
@<TRIPOS>BOND
     1    29    30    2
     2    30    28    1
     3    28    26    1
     4    26    23    1
     5    23    24    2
     6    23    25    2
     7    23     1    1
     8     1     2   ar
     9     2     3   ar
    10     3     4   ar
    11     4     5   ar
    12     5     6   ar
    13     6     7    1
    14     7     8    2
    15     7     9   am
    16     9    11    1
    17    11    12    1
    18    12    13    1
    19    13    14   ar
    20    14    15   ar
    21    15    16   ar
    22    16    17    1
    23    16    18   ar
    24    18    19    1
    25    18    20   ar
    26    30    31   am
    27    31    33    1
    28    33    34   ar
    29    34    35   ar
    30    35    36   ar
    31    36    37    1
    32    36    38   ar
    33    38    39   ar
    34     6     1   ar
    35    20    13   ar
    36    39    33   ar
    37    26    27    1
    38     9    10    1
    39    17    21    1
    40    19    22    1
    41    31    32    1
    42    37    40    1
@<TRIPOS>MOLECULE
*****
 40 42 0 0 0
SMALL
GASTEIGER

@<TRIPOS>ATOM
      1 C          -8.0701  -20.0153   19.8981 C.ar    1  UNL1        0.1263
      2 C          -7.1769  -21.0488   19.2783 C.ar    1  UNL1        0.0200
      3 C          -7.6673  -21.8668   18.1207 C.ar    1  UNL1        0.0014
      4 C          -9.0509  -21.6515   17.5828 C.ar    1  UNL1        0.0002
      5 C          -9.9441  -20.6180   18.2026 C.ar    1  UNL1        0.0059
      6 C          -9.4537  -19.8000   19.3603 C.ar    1  UNL1        0.0719
      7 C         -10.3469  -18.7664   19.9801 C.2     1  UNL1        0.2472
      8 O         -10.4412  -17.3969   19.3757 O.2     1  UNL1       -0.2701
      9 N         -11.1457  -19.1026   21.2044 N.am    1  UNL1       -0.3005
     10 H         -11.0837  -20.0014   21.6012 H       1  UNL1        0.1498
     11 C         -12.0388  -18.0691   21.8243 C.3     1  UNL1        0.0944
     12 C         -11.6691  -17.4500   23.1396 C.3     1  UNL1        0.0477
     13 C         -10.3426  -16.7686   23.3013 C.ar    1  UNL1       -0.0173
     14 C          -9.5871  -16.8946   24.5911 C.ar    1  UNL1       -0.0009
     15 C          -8.2606  -16.2134   24.7529 C.ar    1  UNL1        0.0394
     16 C          -7.6896  -15.4061   23.6249 C.ar    1  UNL1        0.1675
     17 O          -6.3630  -14.7248   23.7867 O.3     1  UNL1       -0.5029
     18 C          -8.4450  -15.2802   22.3352 C.ar    1  UNL1        0.1672
     19 O          -7.8739  -14.4729   21.2073 O.3     1  UNL1       -0.5029
     20 C          -9.7715  -15.9614   22.1734 C.ar    1  UNL1        0.0356
     21 H          -5.8910  -14.8035   24.5923 H       1  UNL1        0.2923
     22 H          -7.0453  -14.0473   21.3083 H       1  UNL1        0.2923
     23 S          -7.5797  -19.1972   21.0558 S.O2    1  UNL1        0.0608
     24 O          -8.3354  -20.0827   22.0017 O.2     1  UNL1       -0.1530
     25 O          -6.8239  -18.3117   20.1100 O.2     1  UNL1       -0.1530
     26 N          -7.0893  -18.3791   22.2135 N.3     1  UNL1       -0.1701
     27 H          -6.8390  -17.4629   21.8415 H       1  UNL1        0.1494
     28 C          -5.9188  -18.8520   23.0237 C.3     1  UNL1        0.1763
     29 O          -3.5442  -18.0524   23.7103 O.2     1  UNL1       -0.2732
     30 C          -4.5280  -18.4369   22.6453 C.2     1  UNL1        0.2439
     31 N          -4.1210  -18.4064   21.2020 N.am    1  UNL1       -0.2827
     32 H          -4.7667  -18.6588   20.5030 H       1  UNL1        0.1549
     33 C          -2.7301  -17.9913   20.8235 C.ar    1  UNL1        0.0505
     34 C          -1.8514  -18.9298   20.0509 C.ar    1  UNL1        0.0178
     35 C          -0.4606  -18.5147   19.6725 C.ar    1  UNL1        0.0379
     36 C           0.0515  -17.1610   20.0667 C.ar    1  UNL1        0.1338
     37 O           1.4424  -16.7459   19.6882 O.3     1  UNL1       -0.5055
     38 C          -0.8272  -16.2225   20.8393 C.ar    1  UNL1        0.0379
     39 C          -2.2180  -16.6376   21.2177 C.ar    1  UNL1        0.0178
     40 H           1.9913  -17.3322   19.2056 H       1  UNL1        0.2922
@<TRIPOS>BOND
     1    29    30    2
     2    30    28    1
     3    28    26    1
     4    26    23    1
     5    23    24    2
     6    23    25    2
     7    23     1    1
     8     1     2   ar
     9     2     3   ar
    10     3     4   ar
    11     4     5   ar
    12     5     6   ar
    13     6     7    1
    14     7     8    2
    15     7     9   am
    16     9    11    1
    17    11    12    1
    18    12    13    1
    19    13    14   ar
    20    14    15   ar
    21    15    16   ar
    22    16    17    1
    23    16    18   ar
    24    18    19    1
    25    18    20   ar
    26    30    31   am
    27    31    33    1
    28    33    34   ar
    29    34    35   ar
    30    35    36   ar
    31    36    37    1
    32    36    38   ar
    33    38    39   ar
    34     6     1   ar
    35    20    13   ar
    36    39    33   ar
    37    26    27    1
    38     9    10    1
    39    17    21    1
    40    19    22    1
    41    31    32    1
    42    37    40    1
