@<TRIPOS>MOLECULE
*****
 24 25 0 0 0
SMALL
GASTEIGER

@<TRIPOS>ATOM
      1 C          -8.7430  -17.3373   21.6657 C.ar    1  UNL1        0.1328
      2 N          -8.7981  -16.0759   22.4755 N.ar    1  UNL1       -0.1993
      3 C          -7.6181  -15.6655   23.3057 C.ar    1  UNL1        0.2149
      4 N          -7.6732  -14.4041   24.1155 N.pl3   1  UNL1       -0.3274
      5 N          -6.3831  -16.5165   23.3261 N.ar    1  UNL1       -0.2116
      6 C          -6.3280  -17.7780   22.5163 C.ar    1  UNL1        0.1142
      7 C          -5.0930  -18.6290   22.5368 C.ar    1  UNL1        0.1578
      8 F          -3.9130  -18.2186   23.3670 F       1  UNL1       -0.2026
      9 C          -5.0379  -19.8904   21.7270 C.ar    1  UNL1        0.0312
     10 C          -6.2179  -20.3008   20.8968 C.ar    1  UNL1        0.0025
     11 C          -7.4529  -19.4498   20.8763 C.ar    1  UNL1        0.0044
     12 C          -7.5079  -18.1884   21.6861 C.ar    1  UNL1        0.0514
     13 H          -8.4838  -13.8455   24.1021 H       1  UNL1        0.1452
     14 H          -6.8988  -14.1347   24.6604 H       1  UNL1        0.1452
     15 N          -9.9230  -17.7477   20.8355 N.pl3   1  UNL1       -0.3195
     16 H          -9.9388  -17.5504   19.8711 H       1  UNL1        0.1481
     17 C         -11.0788  -18.4586   21.4746 C.3     1  UNL1        0.0729
     18 C         -10.9073  -19.8570   21.9897 C.3     1  UNL1        0.0196
     19 C          -9.3072  -20.4980   23.9336 C.3     1  UNL1        0.0001
     20 C         -10.6689  -20.0937   23.4516 C.3     1  UNL1        0.0017
     21 C         -12.4063  -17.7713   21.5987 C.3     1  UNL1        0.0512
     22 C         -12.5783  -16.6422   22.5710 C.3     1  UNL1        0.1389
     23 O         -11.5987  -15.5064   22.5823 O.3     1  UNL1       -0.3819
     24 H         -10.7293  -15.8320   22.8636 H       1  UNL1        0.2104
@<TRIPOS>BOND
     1    19    20    1
     2    20    18    1
     3    17    18    1
     4    17    21    1
     5    21    22    1
     6    22    23    1
     7    17    15    1
     8    15     1    1
     9     1     2   ar
    10     2     3   ar
    11     3     4    1
    12     3     5   ar
    13     5     6   ar
    14     6     7   ar
    15     7     8    1
    16     7     9   ar
    17     9    10   ar
    18    10    11   ar
    19    11    12   ar
    20    12     1   ar
    21    12     6   ar
    22    23    24    1
    23    15    16    1
    24     4    13    1
    25     4    14    1
@<TRIPOS>MOLECULE
*****
 24 25 0 0 0
SMALL
GASTEIGER

@<TRIPOS>ATOM
      1 C          -9.1012  -18.5785   22.1036 C.ar    1  UNL1        0.1328
      2 N          -8.1433  -19.3098   21.2107 N.ar    1  UNL1       -0.1993
      3 C          -6.6904  -18.9367   21.2039 C.ar    1  UNL1        0.2149
      4 N          -5.7324  -19.6681   20.3108 N.pl3   1  UNL1       -0.3274
      5 N          -6.1956  -17.8323   22.0900 N.ar    1  UNL1       -0.2116
      6 C          -7.1536  -17.1009   22.9830 C.ar    1  UNL1        0.1142
      7 C          -6.6587  -15.9964   23.8691 C.ar    1  UNL1        0.1578
      8 F          -5.2059  -15.6233   23.8623 F       1  UNL1       -0.2026
      9 C          -7.6167  -15.2651   24.7620 C.ar    1  UNL1        0.0312
     10 C          -9.0695  -15.6382   24.7689 C.ar    1  UNL1        0.0025
     11 C          -9.5644  -16.7427   23.8827 C.ar    1  UNL1        0.0044
     12 C          -8.6064  -17.4740   22.9898 C.ar    1  UNL1        0.0514
     13 H          -6.0572  -20.3930   19.7292 H       1  UNL1        0.1452
     14 H          -4.7789  -19.4232   20.3064 H       1  UNL1        0.1452
     15 N         -10.5541  -18.9516   22.1104 N.pl3   1  UNL1       -0.3195
     16 H         -10.8434  -19.7962   22.5253 H       1  UNL1        0.1481
     17 C         -11.5660  -18.0379   21.4850 C.3     1  UNL1        0.0729
     18 C         -12.8043  -17.6597   22.2424 C.3     1  UNL1        0.0196
     19 C         -14.3042  -18.1549   24.3053 C.3     1  UNL1        0.0001
     20 C         -12.9422  -18.0330   23.6887 C.3     1  UNL1        0.0017
     21 C         -11.3397  -17.5024   20.1023 C.3     1  UNL1        0.0512
     22 C         -11.3598  -16.0225   19.8585 C.3     1  UNL1        0.1389
     23 O         -12.3748  -15.4296   18.9269 O.3     1  UNL1       -0.3819
     24 H         -12.2055  -15.7405   18.0239 H       1  UNL1        0.2104
@<TRIPOS>BOND
     1    19    20    1
     2    20    18    1
     3    17    18    1
     4    17    21    1
     5    21    22    1
     6    22    23    1
     7    17    15    1
     8    15     1    1
     9     1     2   ar
    10     2     3   ar
    11     3     4    1
    12     3     5   ar
    13     5     6   ar
    14     6     7   ar
    15     7     8    1
    16     7     9   ar
    17     9    10   ar
    18    10    11   ar
    19    11    12   ar
    20    12     1   ar
    21    12     6   ar
    22    23    24    1
    23    15    16    1
    24     4    13    1
    25     4    14    1
@<TRIPOS>MOLECULE
*****
 24 25 0 0 0
SMALL
GASTEIGER

@<TRIPOS>ATOM
      1 C          -9.0746  -17.9185   23.1250 C.ar    1  UNL1        0.1328
      2 N          -9.1240  -16.4861   23.5676 N.ar    1  UNL1       -0.1993
      3 C          -7.8632  -15.6757   23.6273 C.ar    1  UNL1        0.2149
      4 N          -7.9126  -14.2433   24.0699 N.pl3   1  UNL1       -0.3274
      5 N          -6.5530  -16.2976   23.2444 N.ar    1  UNL1       -0.2116
      6 C          -6.5036  -17.7300   22.8017 C.ar    1  UNL1        0.1142
      7 C          -5.1934  -18.3518   22.4188 C.ar    1  UNL1        0.1578
      8 F          -3.9326  -17.5414   22.4784 F       1  UNL1       -0.2026
      9 C          -5.1441  -19.7842   21.9762 C.ar    1  UNL1        0.0312
     10 C          -6.4049  -20.5946   21.9165 C.ar    1  UNL1        0.0025
     11 C          -7.7150  -19.9727   22.2994 C.ar    1  UNL1        0.0044
     12 C          -7.7644  -18.5404   22.7420 C.ar    1  UNL1        0.0514
     13 H          -8.7725  -13.8351   24.3213 H       1  UNL1        0.1452
     14 H          -7.0851  -13.7113   24.1091 H       1  UNL1        0.1452
     15 N         -10.3354  -18.7289   23.0653 N.pl3   1  UNL1       -0.3195
     16 H         -10.5871  -19.3042   23.8236 H       1  UNL1        0.1481
     17 C         -11.2127  -18.6629   21.8505 C.3     1  UNL1        0.0729
     18 C         -10.9861  -19.6098   20.7094 C.3     1  UNL1        0.0196
     19 C          -9.2212  -20.1663   18.8858 C.3     1  UNL1        0.0001
     20 C         -10.1508  -19.1860   19.5377 C.3     1  UNL1        0.0017
     21 C         -12.3165  -17.6498   21.7766 C.3     1  UNL1        0.0512
     22 C         -12.1014  -16.3581   21.0451 C.3     1  UNL1        0.1389
     23 O         -10.9053  -15.5090   21.3585 O.3     1  UNL1       -0.3819
     24 H         -10.9766  -15.1721   22.2653 H       1  UNL1        0.2104
@<TRIPOS>BOND
     1    19    20    1
     2    20    18    1
     3    17    18    1
     4    17    21    1
     5    21    22    1
     6    22    23    1
     7    17    15    1
     8    15     1    1
     9     1     2   ar
    10     2     3   ar
    11     3     4    1
    12     3     5   ar
    13     5     6   ar
    14     6     7   ar
    15     7     8    1
    16     7     9   ar
    17     9    10   ar
    18    10    11   ar
    19    11    12   ar
    20    12     1   ar
    21    12     6   ar
    22    23    24    1
    23    15    16    1
    24     4    13    1
    25     4    14    1
@<TRIPOS>MOLECULE
*****
 24 25 0 0 0
SMALL
GASTEIGER

@<TRIPOS>ATOM
      1 C          -8.5068  -17.4702   21.8250 C.ar    1  UNL1        0.1328
      2 N          -8.6922  -16.1711   22.5516 N.ar    1  UNL1       -0.1993
      3 C          -7.5638  -15.5921   23.3526 C.ar    1  UNL1        0.2149
      4 N          -7.7492  -14.2930   24.0793 N.pl3   1  UNL1       -0.3274
      5 N          -6.2501  -16.3121   23.4269 N.ar    1  UNL1       -0.2116
      6 C          -6.0646  -17.6112   22.7002 C.ar    1  UNL1        0.1142
      7 C          -4.7509  -18.3313   22.7745 C.ar    1  UNL1        0.1578
      8 F          -3.6225  -17.7522   23.5755 F       1  UNL1       -0.2026
      9 C          -4.5655  -19.6303   22.0479 C.ar    1  UNL1        0.0312
     10 C          -5.6938  -20.2093   21.2469 C.ar    1  UNL1        0.0025
     11 C          -7.0076  -19.4893   21.1726 C.ar    1  UNL1        0.0044
     12 C          -7.1930  -18.1903   21.8993 C.ar    1  UNL1        0.0514
     13 H          -8.6115  -13.8204   24.0305 H       1  UNL1        0.1452
     14 H          -7.0087  -13.9129   24.6049 H       1  UNL1        0.1452
     15 N          -9.6352  -18.0492   21.0240 N.pl3   1  UNL1       -0.3195
     16 H          -9.6323  -17.9723   20.0426 H       1  UNL1        0.1481
     17 C         -10.7679  -18.7453   21.7185 C.3     1  UNL1        0.0729
     18 C         -12.1732  -18.2514   21.5414 C.3     1  UNL1        0.0196
     19 C         -12.3606  -15.8627   22.5458 C.3     1  UNL1        0.0001
     20 C         -12.4362  -16.7851   21.3654 C.3     1  UNL1        0.0017
     21 C         -10.4954  -19.9353   22.5901 C.3     1  UNL1        0.0512
     22 C         -10.3448  -19.7606   24.0723 C.3     1  UNL1        0.1389
     23 O         -11.4454  -19.1240   24.8680 O.3     1  UNL1       -0.3819
     24 H         -11.5400  -18.1954   24.6039 H       1  UNL1        0.2104
@<TRIPOS>BOND
     1    19    20    1
     2    20    18    1
     3    17    18    1
     4    17    21    1
     5    21    22    1
     6    22    23    1
     7    17    15    1
     8    15     1    1
     9     1     2   ar
    10     2     3   ar
    11     3     4    1
    12     3     5   ar
    13     5     6   ar
    14     6     7   ar
    15     7     8    1
    16     7     9   ar
    17     9    10   ar
    18    10    11   ar
    19    11    12   ar
    20    12     1   ar
    21    12     6   ar
    22    23    24    1
    23    15    16    1
    24     4    13    1
    25     4    14    1
@<TRIPOS>MOLECULE
*****
 24 25 0 0 0
SMALL
GASTEIGER

@<TRIPOS>ATOM
      1 C          -9.2523  -16.6027   22.8367 C.ar    1  UNL1        0.1328
      2 N          -8.7692  -17.3336   21.6192 N.ar    1  UNL1       -0.1993
      3 C          -7.3194  -17.6953   21.4876 C.ar    1  UNL1        0.2149
      4 N          -6.8363  -18.4263   20.2701 N.pl3   1  UNL1       -0.3274
      5 N          -6.3527  -17.3261   22.5735 N.ar    1  UNL1       -0.2116
      6 C          -6.8359  -16.5951   23.7911 C.ar    1  UNL1        0.1142
      7 C          -5.8692  -16.2259   24.8770 C.ar    1  UNL1        0.1578
      8 F          -4.4194  -16.5876   24.7454 F       1  UNL1       -0.2026
      9 C          -6.3523  -15.4950   26.0944 C.ar    1  UNL1        0.0312
     10 C          -7.8021  -15.1333   26.2260 C.ar    1  UNL1        0.0025
     11 C          -8.7688  -15.5025   25.1401 C.ar    1  UNL1        0.0044
     12 C          -8.2856  -16.2334   23.9226 C.ar    1  UNL1        0.0514
     13 H          -7.4707  -18.6686   19.5573 H       1  UNL1        0.1452
     14 H          -5.8847  -18.6637   20.1837 H       1  UNL1        0.1452
     15 N         -10.7021  -16.2409   22.9682 N.pl3   1  UNL1       -0.3195
     16 H         -10.9600  -15.3238   23.2163 H       1  UNL1        0.1481
     17 C         -11.7588  -17.2766   22.7219 C.3     1  UNL1        0.0729
     18 C         -11.9951  -18.3616   23.7302 C.3     1  UNL1        0.0196
     19 C         -10.0448  -19.5916   24.9276 C.3     1  UNL1        0.0001
     20 C         -11.0505  -19.5237   23.8168 C.3     1  UNL1        0.0017
     21 C         -12.5793  -17.2272   21.4671 C.3     1  UNL1        0.0512
     22 C         -12.2115  -16.2758   20.3674 C.3     1  UNL1        0.1389
     23 O         -10.8508  -16.3448   19.7399 O.3     1  UNL1       -0.3819
     24 H         -10.1793  -16.1017   20.3963 H       1  UNL1        0.2104
@<TRIPOS>BOND
     1    19    20    1
     2    20    18    1
     3    17    18    1
     4    17    21    1
     5    21    22    1
     6    22    23    1
     7    17    15    1
     8    15     1    1
     9     1     2   ar
    10     2     3   ar
    11     3     4    1
    12     3     5   ar
    13     5     6   ar
    14     6     7   ar
    15     7     8    1
    16     7     9   ar
    17     9    10   ar
    18    10    11   ar
    19    11    12   ar
    20    12     1   ar
    21    12     6   ar
    22    23    24    1
    23    15    16    1
    24     4    13    1
    25     4    14    1
@<TRIPOS>MOLECULE
*****
 24 25 0 0 0
SMALL
GASTEIGER

@<TRIPOS>ATOM
      1 C          -8.1794  -17.4434   22.4916 C.ar    1  UNL1        0.1328
      2 N          -9.5749  -17.9732   22.6393 N.ar    1  UNL1       -0.1993
      3 C         -10.3260  -17.7614   23.9203 C.ar    1  UNL1        0.2149
      4 N         -11.7215  -18.2912   24.0679 N.pl3   1  UNL1       -0.3274
      5 N          -9.6815  -17.0197   25.0537 N.ar    1  UNL1       -0.2116
      6 C          -8.2859  -16.4898   24.9060 C.ar    1  UNL1        0.1142
      7 C          -7.6415  -15.7481   26.0394 C.ar    1  UNL1        0.1578
      8 F          -8.3925  -15.5363   27.3204 F       1  UNL1       -0.2026
      9 C          -6.2460  -15.2183   25.8917 C.ar    1  UNL1        0.0312
     10 C          -5.4950  -15.4301   24.6107 C.ar    1  UNL1        0.0025
     11 C          -6.1394  -16.1718   23.4773 C.ar    1  UNL1        0.0044
     12 C          -7.5349  -16.7016   23.6250 C.ar    1  UNL1        0.0514
     13 H         -12.1445  -18.7780   23.3241 H       1  UNL1        0.1452
     14 H         -12.2145  -18.1522   24.9087 H       1  UNL1        0.1452
     15 N          -7.4284  -17.6552   21.2105 N.pl3   1  UNL1       -0.3195
     16 H          -7.1160  -16.8807   20.6892 H       1  UNL1        0.1481
     17 C          -7.1533  -19.0471   20.7238 C.3     1  UNL1        0.0729
     18 C          -6.1505  -19.9061   21.4355 C.3     1  UNL1        0.0196
     19 C          -4.0665  -19.0192   22.7085 C.3     1  UNL1        0.0001
     20 C          -4.7018  -19.5172   21.4442 C.3     1  UNL1        0.0017
     21 C          -7.8811  -19.5800   19.5252 C.3     1  UNL1        0.0512
     22 C          -9.3766  -19.4892   19.4543 C.3     1  UNL1        0.1389
     23 O         -10.0553  -18.1603   19.6072 O.3     1  UNL1       -0.3819
     24 H          -9.9150  -17.8273   20.5074 H       1  UNL1        0.2104
@<TRIPOS>BOND
     1    19    20    1
     2    20    18    1
     3    17    18    1
     4    17    21    1
     5    21    22    1
     6    22    23    1
     7    17    15    1
     8    15     1    1
     9     1     2   ar
    10     2     3   ar
    11     3     4    1
    12     3     5   ar
    13     5     6   ar
    14     6     7   ar
    15     7     8    1
    16     7     9   ar
    17     9    10   ar
    18    10    11   ar
    19    11    12   ar
    20    12     1   ar
    21    12     6   ar
    22    23    24    1
    23    15    16    1
    24     4    13    1
    25     4    14    1
@<TRIPOS>MOLECULE
*****
 24 25 0 0 0
SMALL
GASTEIGER

@<TRIPOS>ATOM
      1 C          -7.9483  -17.9028   21.7517 C.ar    1  UNL1        0.1328
      2 N          -8.8605  -18.4997   20.7214 N.ar    1  UNL1       -0.1993
      3 C          -8.3541  -19.5711   19.8019 C.ar    1  UNL1        0.2149
      4 N          -9.2663  -20.1681   18.7716 N.pl3   1  UNL1       -0.3274
      5 N          -6.9354  -20.0456   19.9126 N.ar    1  UNL1       -0.2116
      6 C          -6.0231  -19.4487   20.9429 C.ar    1  UNL1        0.1142
      7 C          -4.6045  -19.9232   21.0536 C.ar    1  UNL1        0.1578
      8 F          -4.0981  -20.9946   20.1341 F       1  UNL1       -0.2026
      9 C          -3.6923  -19.3263   22.0839 C.ar    1  UNL1        0.0312
     10 C          -4.1987  -18.2549   23.0035 C.ar    1  UNL1        0.0025
     11 C          -5.6174  -17.7804   22.8927 C.ar    1  UNL1        0.0044
     12 C          -6.5296  -18.3773   21.8625 C.ar    1  UNL1        0.0514
     13 H         -10.1975  -19.8566   18.6989 H       1  UNL1        0.1452
     14 H          -8.9340  -20.8713   18.1680 H       1  UNL1        0.1452
     15 N          -8.4547  -16.8314   22.6713 N.pl3   1  UNL1       -0.3195
     16 H          -8.4319  -15.8887   22.3884 H       1  UNL1        0.1481
     17 C          -8.9959  -17.1962   24.0218 C.3     1  UNL1        0.0729
     18 C          -9.8794  -18.3986   24.1759 C.3     1  UNL1        0.0196
     19 C         -12.0116  -18.2419   22.6998 C.3     1  UNL1        0.0001
     20 C         -11.3677  -18.2562   24.0544 C.3     1  UNL1        0.0017
     21 C          -8.6535  -16.3587   25.2183 C.3     1  UNL1        0.0512
     22 C          -7.6056  -15.2909   25.1113 C.3     1  UNL1        0.1389
     23 O          -7.7730  -14.1718   24.1266 O.3     1  UNL1       -0.3819
     24 H          -7.7359  -14.5266   23.2246 H       1  UNL1        0.2104
@<TRIPOS>BOND
     1    19    20    1
     2    20    18    1
     3    17    18    1
     4    17    21    1
     5    21    22    1
     6    22    23    1
     7    17    15    1
     8    15     1    1
     9     1     2   ar
    10     2     3   ar
    11     3     4    1
    12     3     5   ar
    13     5     6   ar
    14     6     7   ar
    15     7     8    1
    16     7     9   ar
    17     9    10   ar
    18    10    11   ar
    19    11    12   ar
    20    12     1   ar
    21    12     6   ar
    22    23    24    1
    23    15    16    1
    24     4    13    1
    25     4    14    1
@<TRIPOS>MOLECULE
*****
 24 25 0 0 0
SMALL
GASTEIGER

@<TRIPOS>ATOM
      1 C          -9.0561  -17.9482   22.7326 C.ar    1  UNL1        0.1328
      2 N          -9.7413  -19.2052   23.1803 N.ar    1  UNL1       -0.1993
      3 C          -9.9505  -19.4653   24.6426 C.ar    1  UNL1        0.2149
      4 N         -10.6357  -20.7223   25.0903 N.pl3   1  UNL1       -0.3274
      5 N          -9.4746  -18.4684   25.6573 N.ar    1  UNL1       -0.2116
      6 C          -8.7894  -17.2113   25.2096 C.ar    1  UNL1        0.1142
      7 C          -8.3134  -16.2144   26.2243 C.ar    1  UNL1        0.1578
      8 F          -8.5227  -16.4745   27.6867 F       1  UNL1       -0.2026
      9 C          -7.6283  -14.9574   25.7766 C.ar    1  UNL1        0.0312
     10 C          -7.4190  -14.6973   24.3142 C.ar    1  UNL1        0.0025
     11 C          -7.8949  -15.6942   23.2996 C.ar    1  UNL1        0.0044
     12 C          -8.5801  -16.9512   23.7473 C.ar    1  UNL1        0.0514
     13 H         -10.9481  -21.3766   24.4243 H       1  UNL1        0.1452
     14 H         -10.7731  -20.8930   26.0501 H       1  UNL1        0.1452
     15 N          -8.8468  -17.6881   21.2702 N.pl3   1  UNL1       -0.3195
     16 H          -8.3625  -16.8824   20.9779 H       1  UNL1        0.1481
     17 C          -9.3755  -18.6556   20.2532 C.3     1  UNL1        0.0729
     18 C         -10.8154  -18.5944   19.8373 C.3     1  UNL1        0.0196
     19 C         -12.6092  -17.6411   21.4571 C.3     1  UNL1        0.0001
     20 C         -11.6802  -17.4570   20.2938 C.3     1  UNL1        0.0017
     21 C          -8.4643  -19.6844   19.6519 C.3     1  UNL1        0.0512
     22 C          -7.0052  -19.6887   19.9996 C.3     1  UNL1        0.1389
     23 O          -6.2053  -18.4242   19.8940 O.3     1  UNL1       -0.3819
     24 H          -6.1499  -18.1534   18.9642 H       1  UNL1        0.2104
@<TRIPOS>BOND
     1    19    20    1
     2    20    18    1
     3    17    18    1
     4    17    21    1
     5    21    22    1
     6    22    23    1
     7    17    15    1
     8    15     1    1
     9     1     2   ar
    10     2     3   ar
    11     3     4    1
    12     3     5   ar
    13     5     6   ar
    14     6     7   ar
    15     7     8    1
    16     7     9   ar
    17     9    10   ar
    18    10    11   ar
    19    11    12   ar
    20    12     1   ar
    21    12     6   ar
    22    23    24    1
    23    15    16    1
    24     4    13    1
    25     4    14    1
@<TRIPOS>MOLECULE
*****
 24 25 0 0 0
SMALL
GASTEIGER

@<TRIPOS>ATOM
      1 C          -8.3381  -17.5901   22.8101 C.ar    1  UNL1        0.1328
      2 N          -9.6238  -18.3015   23.1111 N.ar    1  UNL1       -0.1993
      3 C         -10.2396  -18.1932   24.4746 C.ar    1  UNL1        0.2149
      4 N         -11.5254  -18.9046   24.7755 N.pl3   1  UNL1       -0.3274
      5 N          -9.5695  -17.3735   25.5372 N.ar    1  UNL1       -0.2116
      6 C          -8.2837  -16.6620   25.2362 C.ar    1  UNL1        0.1142
      7 C          -7.6136  -15.8423   26.2988 C.ar    1  UNL1        0.1578
      8 F          -8.2293  -15.7340   27.6623 F       1  UNL1       -0.2026
      9 C          -6.3278  -15.1309   25.9978 C.ar    1  UNL1        0.0312
     10 C          -5.7121  -15.2392   24.6343 C.ar    1  UNL1        0.0025
     11 C          -6.3822  -16.0589   23.5717 C.ar    1  UNL1        0.0044
     12 C          -7.6679  -16.7703   23.8727 C.ar    1  UNL1        0.0514
     13 H         -11.9652  -19.4427   24.0781 H       1  UNL1        0.1452
     14 H         -11.9295  -18.8336   25.6705 H       1  UNL1        0.1452
     15 N          -7.7223  -17.6984   21.4466 N.pl3   1  UNL1       -0.3195
     16 H          -7.4355  -16.8861   20.9701 H       1  UNL1        0.1481
     17 C          -7.5437  -19.0444   20.8091 C.3     1  UNL1        0.0729
     18 C          -8.3298  -19.4039   19.5833 C.3     1  UNL1        0.0196
     19 C         -10.7439  -18.4482   19.6784 C.3     1  UNL1        0.0001
     20 C          -9.8107  -19.6226   19.6794 C.3     1  UNL1        0.0017
     21 C          -6.5789  -20.0308   21.3975 C.3     1  UNL1        0.0512
     22 C          -5.1102  -19.7265   21.4115 C.3     1  UNL1        0.1389
     23 O          -4.6384  -18.3157   21.6032 O.3     1  UNL1       -0.3819
     24 H          -4.9083  -17.7782   20.8422 H       1  UNL1        0.2104
@<TRIPOS>BOND
     1    19    20    1
     2    20    18    1
     3    17    18    1
     4    17    21    1
     5    21    22    1
     6    22    23    1
     7    17    15    1
     8    15     1    1
     9     1     2   ar
    10     2     3   ar
    11     3     4    1
    12     3     5   ar
    13     5     6   ar
    14     6     7   ar
    15     7     8    1
    16     7     9   ar
    17     9    10   ar
    18    10    11   ar
    19    11    12   ar
    20    12     1   ar
    21    12     6   ar
    22    23    24    1
    23    15    16    1
    24     4    13    1
    25     4    14    1
