@<TRIPOS>MOLECULE
*****
 25 28 0 0 0
SMALL
GASTEIGER

@<TRIPOS>ATOM
      1 C          -5.0139  -17.0359   23.8728 C.3     1  UNL1        0.0564
      2 C          -4.4041  -17.6921   22.6697 C.3     1  UNL1        0.1119
      3 C          -4.9360  -18.9025   21.9611 C.ar    1  UNL1       -0.0002
      4 C          -6.1392  -19.7630   22.2094 C.ar    1  UNL1       -0.0024
      5 C          -6.4223  -20.9327   21.3141 C.ar    1  UNL1       -0.0003
      6 C          -5.5023  -21.2418   20.1705 C.ar    1  UNL1        0.0000
      7 C          -4.2991  -20.3813   19.9221 C.ar    1  UNL1        0.0012
      8 C          -4.0159  -19.2116   20.8174 C.ar    1  UNL1        0.0152
      9 C          -2.9155  -18.1923   20.8193 C.ar    1  UNL1        0.0804
     10 C          -1.6667  -17.7534   20.1135 C.ar    1  UNL1        0.1177
     11 N          -1.1348  -16.5430   20.8223 N.ar    1  UNL1       -0.2223
     12 C          -2.0549  -16.2339   21.9659 C.ar    1  UNL1        0.1788
     13 N          -3.1554  -17.2532   21.9641 N.ar    1  UNL1       -0.3069
     14 C          -6.1151  -16.0317   23.7021 C.3     1  UNL1        0.1128
     15 O          -5.8130  -14.5651   23.7902 O.3     1  UNL1       -0.3844
     16 H          -4.8663  -14.4397   23.9605 H       1  UNL1        0.2103
     17 C         -12.6495  -18.1621   23.8163 C.3     1  UNL1        0.0948
     18 C         -11.7281  -17.8814   22.6664 C.2     1  UNL1        0.2261
     19 O         -12.2100  -18.0631   21.2576 O.2     1  UNL1       -0.2749
     20 N         -10.3248  -17.4189   22.9253 N.am    1  UNL1       -0.2795
     21 C          -9.8429  -17.2372   24.3341 C.3     1  UNL1        0.0935
     22 C          -8.4397  -16.7748   24.5930 C.3     1  UNL1        0.0240
     23 C          -7.5184  -16.4941   23.4431 C.3     1  UNL1        0.0304
     24 C          -8.0002  -16.6759   22.0343 C.3     1  UNL1        0.0240
     25 C          -9.4035  -17.1383   21.7754 C.3     1  UNL1        0.0935
@<TRIPOS>BOND
     1    17    18    1
     2    18    19    2
     3    18    20   am
     4    20    21    1
     5    21    22    1
     6    22    23    1
     7    23    14    1
     8    14    15    1
     9    14     1    1
    10     1     2    1
    11     2     3    1
    12     3     4   ar
    13     4     5   ar
    14     5     6   ar
    15     6     7   ar
    16     7     8   ar
    17     8     9    1
    18     9    10   ar
    19    10    11   ar
    20    11    12   ar
    21    12    13   ar
    22    23    24    1
    23    24    25    1
    24    25    20    1
    25    13     2    1
    26     8     3   ar
    27    13     9   ar
    28    15    16    1
@<TRIPOS>MOLECULE
*****
 25 28 0 0 0
SMALL
GASTEIGER

@<TRIPOS>ATOM
      1 C          -5.0923  -17.2289   23.7875 C.3     1  UNL1        0.0564
      2 C          -4.5442  -17.9555   22.5952 C.3     1  UNL1        0.1119
      3 C          -3.2944  -17.6018   21.8450 C.ar    1  UNL1       -0.0002
      4 C          -2.2868  -16.5066   22.0332 C.ar    1  UNL1       -0.0024
      5 C          -1.1122  -16.4008   21.1063 C.ar    1  UNL1       -0.0003
      6 C          -0.9452  -17.3902   19.9913 C.ar    1  UNL1        0.0000
      7 C          -1.9528  -18.4853   19.8031 C.ar    1  UNL1        0.0012
      8 C          -3.1274  -18.5911   20.7299 C.ar    1  UNL1        0.0152
      9 C          -4.2740  -19.5562   20.7910 C.ar    1  UNL1        0.0804
     10 C          -4.8795  -20.7642   20.1395 C.ar    1  UNL1        0.1177
     11 N          -6.1294  -21.1179   20.8898 N.ar    1  UNL1       -0.2223
     12 C          -6.2963  -20.1285   22.0049 C.ar    1  UNL1        0.1788
     13 N          -5.1497  -19.1634   21.9438 N.ar    1  UNL1       -0.3069
     14 C          -6.1698  -16.2006   23.6091 C.3     1  UNL1        0.1128
     15 O          -5.8331  -14.7407   23.6832 O.3     1  UNL1       -0.3844
     16 H          -4.8834  -14.6361   23.8509 H       1  UNL1        0.2103
     17 C         -12.7779  -18.0883   23.7472 C.3     1  UNL1        0.0948
     18 C         -11.8265  -17.9270   22.5988 C.2     1  UNL1        0.2261
     19 O         -12.2893  -18.1973   21.1979 O.2     1  UNL1       -0.2749
     20 N         -10.4123  -17.4954   22.8513 N.am    1  UNL1       -0.2795
     21 C          -9.9495  -17.2251   24.2523 C.3     1  UNL1        0.0935
     22 C          -8.5353  -16.7934   24.5049 C.3     1  UNL1        0.0240
     23 C          -7.5840  -16.6322   23.3565 C.3     1  UNL1        0.0304
     24 C          -8.0468  -16.9025   21.9555 C.3     1  UNL1        0.0240
     25 C          -9.4610  -17.3341   21.7029 C.3     1  UNL1        0.0935
@<TRIPOS>BOND
     1    17    18    1
     2    18    19    2
     3    18    20   am
     4    20    21    1
     5    21    22    1
     6    22    23    1
     7    23    14    1
     8    14    15    1
     9    14     1    1
    10     1     2    1
    11     2     3    1
    12     3     4   ar
    13     4     5   ar
    14     5     6   ar
    15     6     7   ar
    16     7     8   ar
    17     8     9    1
    18     9    10   ar
    19    10    11   ar
    20    11    12   ar
    21    12    13   ar
    22    23    24    1
    23    24    25    1
    24    25    20    1
    25    13     2    1
    26     8     3   ar
    27    13     9   ar
    28    15    16    1
@<TRIPOS>MOLECULE
*****
 25 28 0 0 0
SMALL
GASTEIGER

@<TRIPOS>ATOM
      1 C          -7.7053  -19.1805   21.0722 C.3     1  UNL1        0.0564
      2 C          -8.4082  -18.1233   21.8711 C.3     1  UNL1        0.1119
      3 C          -9.8826  -17.8475   21.8642 C.ar    1  UNL1       -0.0002
      4 C         -11.0196  -18.4851   21.1220 C.ar    1  UNL1       -0.0024
      5 C         -12.4196  -17.9852   21.3217 C.ar    1  UNL1       -0.0003
      6 C         -12.6828  -16.8478   22.2634 C.ar    1  UNL1        0.0000
      7 C         -11.5459  -16.2101   23.0056 C.ar    1  UNL1        0.0012
      8 C         -10.1458  -16.7100   22.8059 C.ar    1  UNL1        0.0152
      9 C          -8.8340  -16.2828   23.3948 C.ar    1  UNL1        0.0804
     10 C          -8.1859  -15.3158   24.3409 C.ar    1  UNL1        0.1177
     11 N          -6.7115  -15.5917   24.3477 N.ar    1  UNL1       -0.2223
     12 C          -6.4483  -16.7292   23.4059 C.ar    1  UNL1        0.1788
     13 N          -7.7601  -17.1563   22.8170 N.ar    1  UNL1       -0.3069
     14 C          -6.4424  -19.7993   21.5940 C.3     1  UNL1        0.1128
     15 O          -6.5083  -20.8558   22.6567 O.3     1  UNL1       -0.3844
     16 H          -7.4348  -21.0198   22.8926 H       1  UNL1        0.2103
     17 C           0.0123  -17.7789   20.3675 C.3     1  UNL1        0.0948
     18 C          -1.1272  -18.0483   19.4301 C.2     1  UNL1        0.2261
     19 O          -0.9380  -17.8799   17.9516 O.2     1  UNL1       -0.2749
     20 N          -2.4561  -18.4860   19.9710 N.am    1  UNL1       -0.2795
     21 C          -2.6453  -18.6544   21.4495 C.3     1  UNL1        0.0935
     22 C          -3.9741  -19.0921   21.9905 C.3     1  UNL1        0.0240
     23 C          -5.1136  -19.3615   21.0530 C.3     1  UNL1        0.0304
     24 C          -4.9243  -19.1932   19.5745 C.3     1  UNL1        0.0240
     25 C          -3.5955  -18.7554   19.0335 C.3     1  UNL1        0.0935
@<TRIPOS>BOND
     1    17    18    1
     2    18    19    2
     3    18    20   am
     4    20    21    1
     5    21    22    1
     6    22    23    1
     7    23    14    1
     8    14    15    1
     9    14     1    1
    10     1     2    1
    11     2     3    1
    12     3     4   ar
    13     4     5   ar
    14     5     6   ar
    15     6     7   ar
    16     7     8   ar
    17     8     9    1
    18     9    10   ar
    19    10    11   ar
    20    11    12   ar
    21    12    13   ar
    22    23    24    1
    23    24    25    1
    24    25    20    1
    25    13     2    1
    26     8     3   ar
    27    13     9   ar
    28    15    16    1
@<TRIPOS>MOLECULE
*****
 25 28 0 0 0
SMALL
GASTEIGER

@<TRIPOS>ATOM
      1 C          -7.7994  -18.9971   21.0144 C.3     1  UNL1        0.0564
      2 C          -8.6460  -18.1475   21.9152 C.3     1  UNL1        0.1119
      3 C          -8.1418  -17.1889   22.9530 C.ar    1  UNL1       -0.0002
      4 C          -6.7547  -16.8103   23.3802 C.ar    1  UNL1       -0.0024
      5 C          -6.5553  -15.7991   24.4700 C.ar    1  UNL1       -0.0003
      6 C          -7.7431  -15.1665   25.1326 C.ar    1  UNL1        0.0000
      7 C          -9.1302  -15.5451   24.7054 C.ar    1  UNL1        0.0012
      8 C          -9.3296  -16.5563   23.6156 C.ar    1  UNL1        0.0152
      9 C         -10.5677  -17.1239   22.9873 C.ar    1  UNL1        0.0804
     10 C         -12.0671  -17.0837   23.0086 C.ar    1  UNL1        0.1177
     11 N         -12.5712  -18.0424   21.9708 N.ar    1  UNL1       -0.2223
     12 C         -11.3834  -18.6750   21.3082 C.ar    1  UNL1        0.1788
     13 N         -10.1453  -18.1073   21.9365 N.ar    1  UNL1       -0.3069
     14 C          -6.5599  -19.6521   21.5482 C.3     1  UNL1        0.1128
     15 O          -6.6676  -20.7172   22.5989 O.3     1  UNL1       -0.3844
     16 H          -7.6012  -20.8605   22.8195 H       1  UNL1        0.2103
     17 C          -0.0662  -17.6887   20.4409 C.3     1  UNL1        0.0948
     18 C          -1.1717  -18.0121   19.4801 C.2     1  UNL1        0.2261
     19 O          -0.9302  -17.9255   18.0022 O.2     1  UNL1       -0.2749
     20 N          -2.5188  -18.4221   19.9971 N.am    1  UNL1       -0.2795
     21 C          -2.7603  -18.5087   21.4749 C.3     1  UNL1        0.0935
     22 C          -4.1074  -18.9187   21.9920 C.3     1  UNL1        0.0240
     23 C          -5.2128  -19.2421   21.0311 C.3     1  UNL1        0.0304
     24 C          -4.9713  -19.1555   19.5532 C.3     1  UNL1        0.0240
     25 C          -3.6243  -18.7455   19.0362 C.3     1  UNL1        0.0935
@<TRIPOS>BOND
     1    17    18    1
     2    18    19    2
     3    18    20   am
     4    20    21    1
     5    21    22    1
     6    22    23    1
     7    23    14    1
     8    14    15    1
     9    14     1    1
    10     1     2    1
    11     2     3    1
    12     3     4   ar
    13     4     5   ar
    14     5     6   ar
    15     6     7   ar
    16     7     8   ar
    17     8     9    1
    18     9    10   ar
    19    10    11   ar
    20    11    12   ar
    21    12    13   ar
    22    23    24    1
    23    24    25    1
    24    25    20    1
    25    13     2    1
    26     8     3   ar
    27    13     9   ar
    28    15    16    1
@<TRIPOS>MOLECULE
*****
 25 28 0 0 0
SMALL
GASTEIGER

@<TRIPOS>ATOM
      1 C          -5.0748  -16.8672   23.9249 C.3     1  UNL1        0.0564
      2 C          -4.6639  -17.6827   22.7348 C.3     1  UNL1        0.1119
      3 C          -3.4283  -17.4775   21.9096 C.ar    1  UNL1       -0.0002
      4 C          -2.3118  -16.4804   22.0049 C.ar    1  UNL1       -0.0024
      5 C          -1.1842  -16.5203   21.0165 C.ar    1  UNL1       -0.0003
      6 C          -1.1732  -17.5573   19.9328 C.ar    1  UNL1        0.0000
      7 C          -2.2897  -18.5544   19.8374 C.ar    1  UNL1        0.0012
      8 C          -3.4172  -18.5145   20.8258 C.ar    1  UNL1        0.0152
      9 C          -4.6461  -19.3605   20.9813 C.ar    1  UNL1        0.0804
     10 C          -5.3987  -20.5244   20.4076 C.ar    1  UNL1        0.1177
     11 N          -6.6344  -20.7295   21.2329 N.ar    1  UNL1       -0.2223
     12 C          -6.6454  -19.6925   22.3167 C.ar    1  UNL1        0.1788
     13 N          -5.4166  -18.8465   22.1612 N.ar    1  UNL1       -0.3069
     14 C          -6.1639  -15.8441   23.7932 C.3     1  UNL1        0.1128
     15 O          -5.8422  -14.3850   23.9253 O.3     1  UNL1       -0.3844
     16 H          -4.8929  -14.2771   24.0930 H       1  UNL1        0.2103
     17 C         -12.3831  -17.4695   21.3581 C.3     1  UNL1        0.0948
     18 C         -11.8069  -17.5885   22.7379 C.2     1  UNL1        0.2261
     19 O         -12.6414  -18.1436   23.8538 O.2     1  UNL1       -0.2749
     20 N         -10.3961  -17.1524   23.0018 N.am    1  UNL1       -0.2795
     21 C          -9.5616  -16.5973   21.8858 C.3     1  UNL1        0.0935
     22 C          -8.1508  -16.1612   22.1496 C.3     1  UNL1        0.0240
     23 C          -7.5747  -16.2802   23.5294 C.3     1  UNL1        0.0304
     24 C          -8.4092  -16.8354   24.6454 C.3     1  UNL1        0.0240
     25 C          -9.8200  -17.2715   24.3816 C.3     1  UNL1        0.0935
@<TRIPOS>BOND
     1    17    18    1
     2    18    19    2
     3    18    20   am
     4    20    21    1
     5    21    22    1
     6    22    23    1
     7    23    14    1
     8    14    15    1
     9    14     1    1
    10     1     2    1
    11     2     3    1
    12     3     4   ar
    13     4     5   ar
    14     5     6   ar
    15     6     7   ar
    16     7     8   ar
    17     8     9    1
    18     9    10   ar
    19    10    11   ar
    20    11    12   ar
    21    12    13   ar
    22    23    24    1
    23    24    25    1
    24    25    20    1
    25    13     2    1
    26     8     3   ar
    27    13     9   ar
    28    15    16    1
@<TRIPOS>MOLECULE
*****
 25 28 0 0 0
SMALL
GASTEIGER

@<TRIPOS>ATOM
      1 C          -7.1968  -18.3197   22.3107 C.3     1  UNL1        0.0564
      2 C          -8.4891  -18.3999   21.5533 C.3     1  UNL1        0.1119
      3 C          -9.7605  -17.6836   21.9007 C.ar    1  UNL1       -0.0002
      4 C         -10.1105  -16.7440   23.0163 C.ar    1  UNL1       -0.0024
      5 C         -11.4941  -16.1723   23.1090 C.ar    1  UNL1       -0.0003
      6 C         -12.5277  -16.5401   22.0860 C.ar    1  UNL1        0.0000
      7 C         -12.1777  -17.4797   20.9704 C.ar    1  UNL1        0.0012
      8 C         -10.7941  -18.0514   20.8778 C.ar    1  UNL1        0.0152
      9 C         -10.1615  -18.9950   19.8982 C.ar    1  UNL1        0.0804
     10 C         -10.4093  -19.8055   18.6605 C.ar    1  UNL1        0.1177
     11 N          -9.1379  -20.5217   18.3132 N.ar    1  UNL1       -0.2223
     12 C          -8.1043  -20.1539   19.3361 C.ar    1  UNL1        0.1788
     13 N          -8.7369  -19.2103   20.3157 N.ar    1  UNL1       -0.3069
     14 C          -6.1377  -19.3607   22.0991 C.3     1  UNL1        0.1128
     15 O          -6.3649  -20.7676   22.5670 O.3     1  UNL1       -0.3844
     16 H          -7.2395  -20.8333   22.9814 H       1  UNL1        0.2103
     17 C           0.2056  -17.5152   20.1999 C.3     1  UNL1        0.0948
     18 C          -0.9925  -17.8967   19.3819 C.2     1  UNL1        0.2261
     19 O          -0.9043  -17.9123   17.8846 O.2     1  UNL1       -0.2749
     20 N          -2.2789  -18.2627   20.0612 N.am    1  UNL1       -0.2795
     21 C          -2.3671  -18.2472   21.5585 C.3     1  UNL1        0.0935
     22 C          -3.6534  -18.6132   22.2378 C.3     1  UNL1        0.0240
     23 C          -4.8514  -18.9947   21.4198 C.3     1  UNL1        0.0304
     24 C          -4.7631  -19.0102   19.9225 C.3     1  UNL1        0.0240
     25 C          -3.4768  -18.6442   19.2431 C.3     1  UNL1        0.0935
@<TRIPOS>BOND
     1    17    18    1
     2    18    19    2
     3    18    20   am
     4    20    21    1
     5    21    22    1
     6    22    23    1
     7    23    14    1
     8    14    15    1
     9    14     1    1
    10     1     2    1
    11     2     3    1
    12     3     4   ar
    13     4     5   ar
    14     5     6   ar
    15     6     7   ar
    16     7     8   ar
    17     8     9    1
    18     9    10   ar
    19    10    11   ar
    20    11    12   ar
    21    12    13   ar
    22    23    24    1
    23    24    25    1
    24    25    20    1
    25    13     2    1
    26     8     3   ar
    27    13     9   ar
    28    15    16    1
@<TRIPOS>MOLECULE
*****
 25 28 0 0 0
SMALL
GASTEIGER

@<TRIPOS>ATOM
      1 C          -7.2923  -19.5179   22.0637 C.3     1  UNL1        0.0564
      2 C          -6.2040  -18.5739   22.4811 C.3     1  UNL1        0.1119
      3 C          -4.7357  -18.7567   22.2345 C.ar    1  UNL1       -0.0002
      4 C          -3.9603  -19.8449   21.5529 C.ar    1  UNL1       -0.0024
      5 C          -2.4663  -19.7534   21.4563 C.ar    1  UNL1       -0.0003
      6 C          -1.7476  -18.5738   22.0411 C.ar    1  UNL1        0.0000
      7 C          -2.5230  -17.4856   22.7226 C.ar    1  UNL1        0.0012
      8 C          -4.0171  -17.5771   22.8193 C.ar    1  UNL1        0.0152
      9 C          -5.0412  -16.6652   23.4274 C.ar    1  UNL1        0.0804
     10 C          -5.2300  -15.3726   24.1647 C.ar    1  UNL1        0.1177
     11 N          -6.6983  -15.1898   24.4113 N.ar    1  UNL1       -0.2223
     12 C          -7.4169  -16.3695   23.8264 C.ar    1  UNL1        0.1788
     13 N          -6.3928  -17.2813   23.2184 N.ar    1  UNL1       -0.3069
     14 C          -8.5370  -18.9881   21.4155 C.3     1  UNL1        0.1128
     15 O          -8.5171  -18.5856   19.9706 O.3     1  UNL1       -0.3844
     16 H          -7.6296  -18.7302   19.6069 H       1  UNL1        0.2103
     17 C         -14.8759  -18.0973   23.9204 C.3     1  UNL1        0.0948
     18 C         -13.5953  -18.4787   24.6020 C.2     1  UNL1        0.2261
     19 O         -13.5793  -18.7327   26.0802 O.2     1  UNL1       -0.2749
     20 N         -12.3307  -18.6060   23.8054 N.am    1  UNL1       -0.2795
     21 C         -12.3467  -18.3520   22.3272 C.3     1  UNL1        0.0935
     22 C         -11.0822  -18.4794   21.5305 C.3     1  UNL1        0.0240
     23 C          -9.8016  -18.8608   22.2121 C.3     1  UNL1        0.0304
     24 C          -9.7856  -19.1148   23.6904 C.3     1  UNL1        0.0240
     25 C         -11.0501  -18.9874   24.4870 C.3     1  UNL1        0.0935
@<TRIPOS>BOND
     1    17    18    1
     2    18    19    2
     3    18    20   am
     4    20    21    1
     5    21    22    1
     6    22    23    1
     7    23    14    1
     8    14    15    1
     9    14     1    1
    10     1     2    1
    11     2     3    1
    12     3     4   ar
    13     4     5   ar
    14     5     6   ar
    15     6     7   ar
    16     7     8   ar
    17     8     9    1
    18     9    10   ar
    19    10    11   ar
    20    11    12   ar
    21    12    13   ar
    22    23    24    1
    23    24    25    1
    24    25    20    1
    25    13     2    1
    26     8     3   ar
    27    13     9   ar
    28    15    16    1
@<TRIPOS>MOLECULE
*****
 25 28 0 0 0
SMALL
GASTEIGER

@<TRIPOS>ATOM
      1 C          -6.7147  -19.8624   21.6068 C.3     1  UNL1        0.0564
      2 C          -5.7290  -18.8963   22.1943 C.3     1  UNL1        0.1119
      3 C          -6.0634  -17.6784   23.0036 C.ar    1  UNL1       -0.0002
      4 C          -7.3730  -17.0933   23.4422 C.ar    1  UNL1       -0.0024
      5 C          -7.3963  -15.8377   24.2625 C.ar    1  UNL1       -0.0003
      6 C          -6.1099  -15.1672   24.6441 C.ar    1  UNL1        0.0000
      7 C          -4.8003  -15.7523   24.2055 C.ar    1  UNL1        0.0012
      8 C          -4.7770  -17.0079   23.3852 C.ar    1  UNL1        0.0152
      9 C          -3.6476  -17.8115   22.8118 C.ar    1  UNL1        0.0804
     10 C          -2.1545  -17.8937   22.6934 C.ar    1  UNL1        0.1177
     11 N          -1.8202  -19.1117   21.8841 N.ar    1  UNL1       -0.2223
     12 C          -3.1066  -19.7822   21.5025 C.ar    1  UNL1        0.1788
     13 N          -4.2360  -18.9786   22.0758 N.ar    1  UNL1       -0.3069
     14 C          -7.8112  -19.3642   20.7125 C.3     1  UNL1        0.1128
     15 O          -7.6354  -19.3924   19.2231 O.3     1  UNL1       -0.3844
     16 H          -6.7637  -19.7590   19.0073 H       1  UNL1        0.2103
     17 C         -13.6879  -18.1062   24.0489 C.3     1  UNL1        0.0948
     18 C         -12.9005  -17.2595   23.0934 C.2     1  UNL1        0.2261
     19 O         -13.3855  -15.8865   22.7331 O.2     1  UNL1       -0.2749
     20 N         -11.6281  -17.7856   22.4981 N.am    1  UNL1       -0.2795
     21 C         -11.1432  -19.1586   22.8584 C.3     1  UNL1        0.0935
     22 C          -9.8709  -19.6848   22.2632 C.3     1  UNL1        0.0240
     23 C          -9.0836  -18.8380   21.3077 C.3     1  UNL1        0.0304
     24 C          -9.5685  -17.4651   20.9474 C.3     1  UNL1        0.0240
     25 C         -10.8408  -16.9388   21.5426 C.3     1  UNL1        0.0935
@<TRIPOS>BOND
     1    17    18    1
     2    18    19    2
     3    18    20   am
     4    20    21    1
     5    21    22    1
     6    22    23    1
     7    23    14    1
     8    14    15    1
     9    14     1    1
    10     1     2    1
    11     2     3    1
    12     3     4   ar
    13     4     5   ar
    14     5     6   ar
    15     6     7   ar
    16     7     8   ar
    17     8     9    1
    18     9    10   ar
    19    10    11   ar
    20    11    12   ar
    21    12    13   ar
    22    23    24    1
    23    24    25    1
    24    25    20    1
    25    13     2    1
    26     8     3   ar
    27    13     9   ar
    28    15    16    1
@<TRIPOS>MOLECULE
*****
 25 28 0 0 0
SMALL
GASTEIGER

@<TRIPOS>ATOM
      1 C          -5.1391  -17.0400   23.8632 C.3     1  UNL1        0.0564
      2 C          -4.6542  -17.9423   22.7673 C.3     1  UNL1        0.1119
      3 C          -5.4852  -18.9361   22.0111 C.ar    1  UNL1       -0.0002
      4 C          -6.9352  -19.3088   22.1033 C.ar    1  UNL1       -0.0024
      5 C          -7.4978  -20.3626   21.1962 C.ar    1  UNL1       -0.0003
      6 C          -6.6104  -21.0437   20.1968 C.ar    1  UNL1        0.0000
      7 C          -5.1604  -20.6709   20.1046 C.ar    1  UNL1        0.0012
      8 C          -4.5978  -19.6171   21.0117 C.ar    1  UNL1        0.0152
      9 C          -3.2185  -19.0442   21.1503 C.ar    1  UNL1        0.0804
     10 C          -1.8175  -19.1111   20.6183 C.ar    1  UNL1        0.1177
     11 N          -0.9866  -18.1172   21.3746 N.ar    1  UNL1       -0.2223
     12 C          -1.8740  -17.4362   22.3740 C.ar    1  UNL1        0.1788
     13 N          -3.2533  -18.0091   22.2354 N.ar    1  UNL1       -0.3069
     14 C          -6.1549  -15.9772   23.5653 C.3     1  UNL1        0.1128
     15 O          -5.7283  -14.5440   23.4476 O.3     1  UNL1       -0.3844
     16 H          -4.7711  -14.4787   23.5905 H       1  UNL1        0.2103
     17 C         -12.6534  -17.0507   21.5990 C.3     1  UNL1        0.0948
     18 C         -11.9242  -17.4589   22.8446 C.2     1  UNL1        0.2261
     19 O         -12.6373  -18.2375   23.9100 O.2     1  UNL1       -0.2749
     20 N         -10.4818  -17.0885   23.0248 N.am    1  UNL1       -0.2795
     21 C          -9.7687  -16.3099   21.9594 C.3     1  UNL1        0.0935
     22 C          -8.3264  -15.9394   22.1395 C.3     1  UNL1        0.0240
     23 C          -7.5972  -16.3476   23.3852 C.3     1  UNL1        0.0304
     24 C          -8.3103  -17.1263   24.4506 C.3     1  UNL1        0.0240
     25 C          -9.7527  -17.4967   24.2705 C.3     1  UNL1        0.0935
@<TRIPOS>BOND
     1    17    18    1
     2    18    19    2
     3    18    20   am
     4    20    21    1
     5    21    22    1
     6    22    23    1
     7    23    14    1
     8    14    15    1
     9    14     1    1
    10     1     2    1
    11     2     3    1
    12     3     4   ar
    13     4     5   ar
    14     5     6   ar
    15     6     7   ar
    16     7     8   ar
    17     8     9    1
    18     9    10   ar
    19    10    11   ar
    20    11    12   ar
    21    12    13   ar
    22    23    24    1
    23    24    25    1
    24    25    20    1
    25    13     2    1
    26     8     3   ar
    27    13     9   ar
    28    15    16    1
