@<TRIPOS>MOLECULE
*****
 30 33 0 0 0
SMALL
GASTEIGER

@<TRIPOS>ATOM
      1 C          -6.4225  -15.1774   25.2975 C.3     1  UNL1        0.0407
      2 C         -11.4728  -16.6595   21.5690 C.ar    1  UNL1        0.1721
      3 C         -10.1711  -15.9145   21.5908 C.ar    1  UNL1        0.0359
      4 C          -9.3311  -15.9086   22.8335 C.ar    1  UNL1       -0.0158
      5 C          -9.7928  -16.6476   24.0544 C.ar    1  UNL1        0.0340
      6 C         -11.0945  -17.3926   24.0326 C.ar    1  UNL1        0.0426
      7 C         -11.9345  -17.3985   22.7899 C.ar    1  UNL1        0.1725
      8 C          -8.7594  -16.4637   25.1260 C.2     1  UNL1        0.1728
      9 O          -8.8164  -17.0326   26.5127 O.2     1  UNL1       -0.2913
     10 C          -7.6591  -15.6109   24.5674 C.3     1  UNL1        0.0689
     11 C          -8.0124  -15.2678   23.1505 C.3     1  UNL1        0.0343
     12 C         -11.9699  -15.7547   19.1848 C.3     1  UNL1        0.2526
     13 O         -12.3129  -16.6654   20.3263 O.3     1  UNL1       -0.4684
     14 O         -13.2363  -18.1436   22.7681 O.3     1  UNL1       -0.4684
     15 C         -14.1149  -18.1539   23.9837 C.3     1  UNL1        0.2526
     16 C          -5.2722  -16.1272   25.4543 C.3     1  UNL1        0.1369
     17 F          -5.7406  -16.0482   26.8771 F       1  UNL1       -0.2399
     18 C          -5.2034  -15.8763   23.9770 C.3     1  UNL1        0.0500
     19 C          -4.1470  -16.5478   23.1506 C.3     1  UNL1        0.0751
     20 N          -3.1593  -17.4703   23.8015 N.3     1  UNL1       -0.2687
     21 C          -3.2281  -17.7212   25.2788 C.3     1  UNL1        0.0751
     22 C          -4.2846  -17.0497   26.1052 C.3     1  UNL1        0.0500
     23 C          -2.1028  -18.1418   22.9751 C.3     1  UNL1        0.1014
     24 C          -2.3250  -18.3611   21.5080 C.ar    1  UNL1        0.0213
     25 C          -3.1402  -19.5297   21.0393 C.ar    1  UNL1       -0.0007
     26 C          -3.3624  -19.7490   19.5721 C.ar    1  UNL1       -0.0001
     27 C          -2.7694  -18.7996   18.5736 C.ar    1  UNL1        0.0023
     28 C          -1.9543  -17.6309   19.0423 C.ar    1  UNL1        0.0294
     29 C          -1.7321  -17.4116   20.5095 C.ar    1  UNL1        0.1374
     30 F          -0.9169  -16.2430   20.9782 F       1  UNL1       -0.2045
@<TRIPOS>BOND
     1    12    13    1
     2    13     2    1
     3     2     3   ar
     4     3     4   ar
     5     4     5   ar
     6     5     6   ar
     7     6     7   ar
     8     7    14    1
     9    14    15    1
    10     5     8    1
    11     8     9    2
    12     8    10    1
    13    10     1    1
    14     1    16    1
    15    16    17    1
    16    16    18    1
    17    18    19    1
    18    19    20    1
    19    20    23    1
    20    23    24    1
    21    24    25   ar
    22    25    26   ar
    23    26    27   ar
    24    27    28   ar
    25    28    29   ar
    26    29    30    1
    27    20    21    1
    28    21    22    1
    29    10    11    1
    30     7     2   ar
    31    22    16    1
    32    11     4    1
    33    29    24   ar
@<TRIPOS>MOLECULE
*****
 30 33 0 0 0
SMALL
GASTEIGER

@<TRIPOS>ATOM
      1 C           4.9393   -3.3373   19.0422 C.3     1  UNL1        0.0407
      2 C           0.3499    1.0852   20.0338 C.ar    1  UNL1        0.1721
      3 C           0.9316   -0.1870   20.5750 C.ar    1  UNL1        0.0359
      4 C           2.0934   -0.8348   19.8819 C.ar    1  UNL1       -0.0158
      5 C           2.6735   -0.2105   18.6476 C.ar    1  UNL1        0.0340
      6 C           2.0918    1.0617   18.1063 C.ar    1  UNL1        0.0426
      7 C           0.9299    1.7096   18.7995 C.ar    1  UNL1        0.1725
      8 C           3.8101   -1.0719   18.1828 C.2     1  UNL1        0.1728
      9 O           4.6729   -0.8207   16.9818 O.2     1  UNL1       -0.2913
     10 C           3.9326   -2.2287   19.1299 C.3     1  UNL1        0.0689
     11 C           2.8716   -2.0822   20.1801 C.3     1  UNL1        0.0343
     12 C          -0.5772    2.8530   21.6968 C.3     1  UNL1        0.2526
     13 O          -0.8120    1.7331   20.7269 O.3     1  UNL1       -0.4684
     14 O           0.3482    2.9819   18.2581 O.3     1  UNL1       -0.4684
     15 C           1.2274    4.1788   18.0481 C.3     1  UNL1        0.2526
     16 C           6.2585   -3.2097   19.7446 C.3     1  UNL1        0.1369
     17 F           6.6558   -2.7786   18.3639 F       1  UNL1       -0.2399
     18 C           5.4030   -3.6851   20.8813 C.3     1  UNL1        0.0500
     19 C           6.0048   -3.8832   22.2410 C.3     1  UNL1        0.0751
     20 N           7.4620   -3.6059   22.4639 N.3     1  UNL1       -0.2687
     21 C           8.3174   -3.1305   21.3272 C.3     1  UNL1        0.0751
     22 C           7.7157   -2.9324   19.9675 C.3     1  UNL1        0.0500
     23 C           8.0637   -3.8041   23.8235 C.3     1  UNL1        0.1014
     24 C           7.8498   -5.0946   24.5575 C.ar    1  UNL1        0.0213
     25 C           7.0974   -5.1036   25.8551 C.ar    1  UNL1       -0.0007
     26 C           6.8835   -6.3942   26.5891 C.ar    1  UNL1       -0.0001
     27 C           7.4219   -7.6758   26.0255 C.ar    1  UNL1        0.0023
     28 C           8.1742   -7.6668   24.7278 C.ar    1  UNL1        0.0294
     29 C           8.3882   -6.3762   23.9938 C.ar    1  UNL1        0.1374
     30 F           9.1405   -6.3672   22.6962 F       1  UNL1       -0.2045
@<TRIPOS>BOND
     1    12    13    1
     2    13     2    1
     3     2     3   ar
     4     3     4   ar
     5     4     5   ar
     6     5     6   ar
     7     6     7   ar
     8     7    14    1
     9    14    15    1
    10     5     8    1
    11     8     9    2
    12     8    10    1
    13    10     1    1
    14     1    16    1
    15    16    17    1
    16    16    18    1
    17    18    19    1
    18    19    20    1
    19    20    23    1
    20    23    24    1
    21    24    25   ar
    22    25    26   ar
    23    26    27   ar
    24    27    28   ar
    25    28    29   ar
    26    29    30    1
    27    20    21    1
    28    21    22    1
    29    10    11    1
    30     7     2   ar
    31    22    16    1
    32    11     4    1
    33    29    24   ar
@<TRIPOS>MOLECULE
*****
 30 33 0 0 0
SMALL
GASTEIGER

@<TRIPOS>ATOM
      1 C           8.9031   -4.8009   23.1683 C.3     1  UNL1        0.0407
      2 C           4.9249   -2.3520   18.7207 C.ar    1  UNL1        0.1721
      3 C           6.3174   -2.8657   18.9369 C.ar    1  UNL1        0.0359
      4 C           6.7357   -3.3509   20.2932 C.ar    1  UNL1       -0.0158
      5 C           5.7614   -3.3225   21.4333 C.ar    1  UNL1        0.0340
      6 C           4.3688   -2.8088   21.2171 C.ar    1  UNL1        0.0426
      7 C           3.9506   -2.3236   19.8608 C.ar    1  UNL1        0.1725
      8 C           6.4547   -3.8622   22.6491 C.2     1  UNL1        0.1728
      9 O           5.8511   -4.0133   24.0139 O.2     1  UNL1       -0.2913
     10 C           7.8575   -4.2242   22.2604 C.3     1  UNL1        0.0689
     11 C           8.0312   -3.9082   20.8044 C.3     1  UNL1        0.0343
     12 C           4.4275   -0.3950   17.0858 C.3     1  UNL1        0.2526
     13 O           4.5066   -1.8668   17.3644 O.3     1  UNL1       -0.4684
     14 O           2.5579   -1.8099   19.6446 O.3     1  UNL1       -0.4684
     15 C           2.0612   -0.6345   20.4330 C.3     1  UNL1        0.2526
     16 C           8.5845   -5.9984   24.0136 C.3     1  UNL1        0.1369
     17 F           8.4086   -6.5904   22.6466 F       1  UNL1       -0.2399
     18 C           8.8709   -4.9905   25.0870 C.3     1  UNL1        0.0500
     19 C           8.7777   -5.3857   26.5310 C.3     1  UNL1        0.0751
     20 N           8.3981   -6.7888   26.9016 N.3     1  UNL1       -0.2687
     21 C           8.1116   -7.7966   25.8282 C.3     1  UNL1        0.0751
     22 C           8.2048   -7.4014   24.3842 C.3     1  UNL1        0.0500
     23 C           8.3049   -7.1839   28.3456 C.3     1  UNL1        0.1014
     24 C           8.1500   -6.1311   29.4028 C.ar    1  UNL1        0.0213
     25 C           9.2571   -5.8855   30.3846 C.ar    1  UNL1       -0.0007
     26 C           9.1022   -4.8327   31.4418 C.ar    1  UNL1       -0.0001
     27 C           7.8402   -4.0254   31.5171 C.ar    1  UNL1        0.0023
     28 C           6.7331   -4.2710   30.5353 C.ar    1  UNL1        0.0294
     29 C           6.8880   -5.3239   29.4781 C.ar    1  UNL1        0.1374
     30 F           5.7809   -5.5694   28.4963 F       1  UNL1       -0.2045
@<TRIPOS>BOND
     1    12    13    1
     2    13     2    1
     3     2     3   ar
     4     3     4   ar
     5     4     5   ar
     6     5     6   ar
     7     6     7   ar
     8     7    14    1
     9    14    15    1
    10     5     8    1
    11     8     9    2
    12     8    10    1
    13    10     1    1
    14     1    16    1
    15    16    17    1
    16    16    18    1
    17    18    19    1
    18    19    20    1
    19    20    23    1
    20    23    24    1
    21    24    25   ar
    22    25    26   ar
    23    26    27   ar
    24    27    28   ar
    25    28    29   ar
    26    29    30    1
    27    20    21    1
    28    21    22    1
    29    10    11    1
    30     7     2   ar
    31    22    16    1
    32    11     4    1
    33    29    24   ar
@<TRIPOS>MOLECULE
*****
 30 33 0 0 0
SMALL
GASTEIGER

@<TRIPOS>ATOM
      1 C          -9.7015  -20.0697   21.2959 C.3     1  UNL1        0.0407
      2 C          -3.2591  -19.7917   21.1459 C.ar    1  UNL1        0.1721
      3 C          -4.4286  -20.1275   22.0230 C.ar    1  UNL1        0.0359
      4 C          -5.8256  -19.9986   21.4922 C.ar    1  UNL1       -0.0158
      5 C          -6.0531  -19.5339   20.0843 C.ar    1  UNL1        0.0340
      6 C          -4.8836  -19.1980   19.2072 C.ar    1  UNL1        0.0426
      7 C          -3.4866  -19.3269   19.7380 C.ar    1  UNL1        0.1725
      8 C          -7.5327  -19.5039   19.8394 C.2     1  UNL1        0.1728
      9 O          -8.2069  -19.0989   18.5622 O.2     1  UNL1       -0.2913
     10 C          -8.2196  -19.9502   21.0960 C.3     1  UNL1        0.0689
     11 C          -7.1647  -20.2559   22.1175 C.3     1  UNL1        0.0343
     12 C          -1.1057  -18.6972   22.1024 C.3     1  UNL1        0.2526
     13 O          -1.8621  -19.9205   21.6767 O.3     1  UNL1       -0.4684
     14 O          -2.3170  -18.9911   18.8608 O.3     1  UNL1       -0.4684
     15 C          -1.9770  -17.5573   18.5806 C.3     1  UNL1        0.2526
     16 C         -10.4590  -18.9639   21.9692 C.3     1  UNL1        0.1369
     17 F         -11.5750  -19.6208   21.2121 F       1  UNL1       -0.2399
     18 C          -9.0800  -18.6911   22.4924 C.3     1  UNL1        0.0500
     19 C          -8.8460  -17.5405   23.4259 C.3     1  UNL1        0.0751
     20 N          -9.9912  -16.6628   23.8363 N.3     1  UNL1       -0.2687
     21 C         -11.3702  -16.9357   23.3131 C.3     1  UNL1        0.0751
     22 C         -11.6042  -18.0862   22.3795 C.3     1  UNL1        0.0500
     23 C          -9.7572  -15.5123   24.7699 C.3     1  UNL1        0.1014
     24 C          -8.4307  -15.3588   25.4533 C.ar    1  UNL1        0.0213
     25 C          -8.3320  -15.5114   26.9422 C.ar    1  UNL1       -0.0007
     26 C          -7.0055  -15.3579   27.6255 C.ar    1  UNL1       -0.0001
     27 C          -5.7778  -15.0518   26.8199 C.ar    1  UNL1        0.0023
     28 C          -5.8765  -14.8993   25.3310 C.ar    1  UNL1        0.0294
     29 C          -7.2030  -15.0528   24.6476 C.ar    1  UNL1        0.1374
     30 F          -7.3017  -14.9002   23.1587 F       1  UNL1       -0.2045
@<TRIPOS>BOND
     1    12    13    1
     2    13     2    1
     3     2     3   ar
     4     3     4   ar
     5     4     5   ar
     6     5     6   ar
     7     6     7   ar
     8     7    14    1
     9    14    15    1
    10     5     8    1
    11     8     9    2
    12     8    10    1
    13    10     1    1
    14     1    16    1
    15    16    17    1
    16    16    18    1
    17    18    19    1
    18    19    20    1
    19    20    23    1
    20    23    24    1
    21    24    25   ar
    22    25    26   ar
    23    26    27   ar
    24    27    28   ar
    25    28    29   ar
    26    29    30    1
    27    20    21    1
    28    21    22    1
    29    10    11    1
    30     7     2   ar
    31    22    16    1
    32    11     4    1
    33    29    24   ar
@<TRIPOS>MOLECULE
*****
 30 33 0 0 0
SMALL
GASTEIGER

@<TRIPOS>ATOM
      1 C           8.8950   -3.2887   20.8069 C.3     1  UNL1        0.0407
      2 C           7.5205   -7.2598   25.7003 C.ar    1  UNL1        0.1721
      3 C           8.1930   -7.1884   24.3615 C.ar    1  UNL1        0.0359
      4 C           8.2107   -5.8968   23.5990 C.ar    1  UNL1       -0.0158
      5 C           7.5559   -4.6766   24.1754 C.ar    1  UNL1        0.0340
      6 C           6.8834   -4.7480   25.5142 C.ar    1  UNL1        0.0426
      7 C           6.8657   -6.0396   26.2767 C.ar    1  UNL1        0.1725
      8 C           7.7325   -3.5511   23.1996 C.2     1  UNL1        0.1728
      9 O           7.2329   -2.1474   23.3729 O.2     1  UNL1       -0.2913
     10 C           8.4965   -4.0757   22.0202 C.3     1  UNL1        0.0689
     11 C           8.7921   -5.5255   22.2670 C.3     1  UNL1        0.0343
     12 C           8.5374   -8.8146   27.5165 C.3     1  UNL1        0.2526
     13 O           7.5028   -8.5515   26.4628 O.3     1  UNL1       -0.4684
     14 O           6.1932   -6.1110   27.6157 O.3     1  UNL1       -0.4684
     15 C           6.3972   -5.0129   28.6169 C.3     1  UNL1        0.2526
     16 C           8.0759   -2.1083   20.3763 C.3     1  UNL1        0.1369
     17 F           9.1213   -1.4140   21.1980 F       1  UNL1       -0.2399
     18 C           7.3150   -3.2125   19.7042 C.3     1  UNL1        0.0500
     19 C           6.0980   -2.8951   18.8868 C.3     1  UNL1        0.0751
     20 N           5.6418   -1.4735   18.7416 N.3     1  UNL1       -0.2687
     21 C           6.4027   -0.3694   19.4137 C.3     1  UNL1        0.0751
     22 C           7.6197   -0.6867   20.2311 C.3     1  UNL1        0.0500
     23 C           4.4248   -1.1562   17.9242 C.3     1  UNL1        0.1014
     24 C           3.1978   -0.6055   18.5885 C.ar    1  UNL1        0.0213
     25 C           2.5963    0.6806   18.1048 C.ar    1  UNL1       -0.0007
     26 C           1.3693    1.2314   18.7692 C.ar    1  UNL1       -0.0001
     27 C           0.7440    0.4960   19.9173 C.ar    1  UNL1        0.0023
     28 C           1.3455   -0.7901   20.4010 C.ar    1  UNL1        0.0294
     29 C           2.5725   -1.3409   19.7366 C.ar    1  UNL1        0.1374
     30 F           3.1740   -2.6270   20.2203 F       1  UNL1       -0.2045
@<TRIPOS>BOND
     1    12    13    1
     2    13     2    1
     3     2     3   ar
     4     3     4   ar
     5     4     5   ar
     6     5     6   ar
     7     6     7   ar
     8     7    14    1
     9    14    15    1
    10     5     8    1
    11     8     9    2
    12     8    10    1
    13    10     1    1
    14     1    16    1
    15    16    17    1
    16    16    18    1
    17    18    19    1
    18    19    20    1
    19    20    23    1
    20    23    24    1
    21    24    25   ar
    22    25    26   ar
    23    26    27   ar
    24    27    28   ar
    25    28    29   ar
    26    29    30    1
    27    20    21    1
    28    21    22    1
    29    10    11    1
    30     7     2   ar
    31    22    16    1
    32    11     4    1
    33    29    24   ar
@<TRIPOS>MOLECULE
*****
 30 33 0 0 0
SMALL
GASTEIGER

@<TRIPOS>ATOM
      1 C          -5.8381  -15.0826   25.2880 C.3     1  UNL1        0.0407
      2 C          -2.2684  -18.9636   21.5734 C.ar    1  UNL1        0.1721
      3 C          -3.1680  -18.9403   22.7734 C.ar    1  UNL1        0.0359
      4 C          -3.7753  -17.6471   23.2304 C.ar    1  UNL1       -0.0158
      5 C          -3.4831  -16.3773   22.4875 C.ar    1  UNL1        0.0340
      6 C          -2.5834  -16.4006   21.2874 C.ar    1  UNL1        0.0426
      7 C          -1.9761  -17.6938   20.8304 C.ar    1  UNL1        0.1725
      8 C          -4.2202  -15.2621   23.1678 C.2     1  UNL1        0.1728
      9 O          -4.2111  -13.8195   22.7568 O.2     1  UNL1       -0.2913
     10 C          -4.9681  -15.8427   24.3313 C.3     1  UNL1        0.0689
     11 C          -4.6931  -17.3167   24.3700 C.3     1  UNL1        0.0343
     12 C          -2.3569  -21.0868   20.0787 C.3     1  UNL1        0.2526
     13 O          -1.6610  -20.2568   21.1163 O.3     1  UNL1       -0.4684
     14 O          -1.0764  -17.7170   19.6303 O.3     1  UNL1       -0.4684
     15 C          -1.6658  -17.7139   18.2510 C.3     1  UNL1        0.2526
     16 C          -6.9688  -15.7771   25.9874 C.3     1  UNL1        0.1369
     17 F          -6.2322  -15.2222   27.1705 F       1  UNL1       -0.2399
     18 C          -7.3127  -16.0906   24.5615 C.3     1  UNL1        0.0500
     19 C          -8.5314  -16.9061   24.2458 C.3     1  UNL1        0.0751
     20 N          -9.4063  -17.4079   25.3561 N.3     1  UNL1       -0.2687
     21 C          -9.0625  -17.0943   26.7820 C.3     1  UNL1        0.0751
     22 C          -7.8437  -16.2789   27.0977 C.3     1  UNL1        0.0500
     23 C         -10.6251  -18.2233   25.0404 C.3     1  UNL1        0.1014
     24 C         -11.0296  -18.4457   23.6131 C.ar    1  UNL1        0.0213
     25 C         -11.9985  -17.5097   22.9536 C.ar    1  UNL1       -0.0007
     26 C         -12.4030  -17.7321   21.5264 C.ar    1  UNL1       -0.0001
     27 C         -11.8386  -18.8906   20.7587 C.ar    1  UNL1        0.0023
     28 C         -10.8697  -19.8266   21.4182 C.ar    1  UNL1        0.0294
     29 C         -10.4652  -19.6042   22.8454 C.ar    1  UNL1        0.1374
     30 F          -9.4963  -20.5403   23.5049 F       1  UNL1       -0.2045
@<TRIPOS>BOND
     1    12    13    1
     2    13     2    1
     3     2     3   ar
     4     3     4   ar
     5     4     5   ar
     6     5     6   ar
     7     6     7   ar
     8     7    14    1
     9    14    15    1
    10     5     8    1
    11     8     9    2
    12     8    10    1
    13    10     1    1
    14     1    16    1
    15    16    17    1
    16    16    18    1
    17    18    19    1
    18    19    20    1
    19    20    23    1
    20    23    24    1
    21    24    25   ar
    22    25    26   ar
    23    26    27   ar
    24    27    28   ar
    25    28    29   ar
    26    29    30    1
    27    20    21    1
    28    21    22    1
    29    10    11    1
    30     7     2   ar
    31    22    16    1
    32    11     4    1
    33    29    24   ar
@<TRIPOS>MOLECULE
*****
 30 33 0 0 0
SMALL
GASTEIGER

@<TRIPOS>ATOM
      1 C           0.8681    1.9476   23.6205 C.3     1  UNL1        0.0407
      2 C           4.4281   -2.9676   21.4361 C.ar    1  UNL1        0.1721
      3 C           4.0998   -2.1729   22.6651 C.ar    1  UNL1        0.0359
      4 C           3.1170   -1.0424   22.5870 C.ar    1  UNL1       -0.0158
      5 C           2.4626   -0.7065   21.2797 C.ar    1  UNL1        0.0340
      6 C           2.7909   -1.5012   20.0507 C.ar    1  UNL1        0.0426
      7 C           3.7736   -2.6318   20.1288 C.ar    1  UNL1        0.1725
      8 C           1.5405    0.4544   21.5078 C.2     1  UNL1        0.1728
      9 O           0.6842    1.1173   20.4698 O.2     1  UNL1       -0.2913
     10 C           1.6251    0.8360   22.9560 C.3     1  UNL1        0.0689
     11 C           2.5994   -0.0890   23.6230 C.3     1  UNL1        0.0343
     12 C           6.8835   -3.8153   21.4825 C.3     1  UNL1        0.2526
     13 O           5.4108   -4.0982   21.5142 O.3     1  UNL1       -0.4684
     14 O           4.1019   -3.4265   18.8997 O.3     1  UNL1       -0.4684
     15 C           5.3467   -3.1221   18.1200 C.3     1  UNL1        0.2526
     16 C           1.2452    2.3899   25.0033 C.3     1  UNL1        0.1369
     17 F           2.2031    3.2148   24.1957 F       1  UNL1       -0.2399
     18 C           0.1565    1.4114   25.3305 C.3     1  UNL1        0.0500
     19 C          -0.2226    1.1617   26.7602 C.3     1  UNL1        0.0751
     20 N           0.4871    1.8904   27.8626 N.3     1  UNL1       -0.2687
     21 C           1.5759    2.8689   27.5353 C.3     1  UNL1        0.0751
     22 C           1.9550    3.1187   26.1057 C.3     1  UNL1        0.0500
     23 C           0.1081    1.6407   29.2922 C.3     1  UNL1        0.1014
     24 C           1.1403    1.1605   30.2689 C.ar    1  UNL1        0.0213
     25 C           1.3886    1.9260   31.5347 C.ar    1  UNL1       -0.0007
     26 C           2.4209    1.4458   32.5114 C.ar    1  UNL1       -0.0001
     27 C           3.2048    0.2001   32.2223 C.ar    1  UNL1        0.0023
     28 C           2.9565   -0.5654   30.9565 C.ar    1  UNL1        0.0294
     29 C           1.9243   -0.0852   29.9798 C.ar    1  UNL1        0.1374
     30 F           1.6760   -0.8507   28.7140 F       1  UNL1       -0.2045
@<TRIPOS>BOND
     1    12    13    1
     2    13     2    1
     3     2     3   ar
     4     3     4   ar
     5     4     5   ar
     6     5     6   ar
     7     6     7   ar
     8     7    14    1
     9    14    15    1
    10     5     8    1
    11     8     9    2
    12     8    10    1
    13    10     1    1
    14     1    16    1
    15    16    17    1
    16    16    18    1
    17    18    19    1
    18    19    20    1
    19    20    23    1
    20    23    24    1
    21    24    25   ar
    22    25    26   ar
    23    26    27   ar
    24    27    28   ar
    25    28    29   ar
    26    29    30    1
    27    20    21    1
    28    21    22    1
    29    10    11    1
    30     7     2   ar
    31    22    16    1
    32    11     4    1
    33    29    24   ar
@<TRIPOS>MOLECULE
*****
 30 33 0 0 0
SMALL
GASTEIGER

@<TRIPOS>ATOM
      1 C           0.4495    3.8026   19.7839 C.3     1  UNL1        0.0407
      2 C           4.0293   -1.3335   18.2313 C.ar    1  UNL1        0.1721
      3 C           3.7899    0.1101   17.9017 C.ar    1  UNL1        0.0359
      4 C           2.7416    0.8850   18.6437 C.ar    1  UNL1       -0.0158
      5 C           1.9326    0.2163   19.7153 C.ar    1  UNL1        0.0340
      6 C           2.1720   -1.2273   20.0449 C.ar    1  UNL1        0.0426
      7 C           3.2203   -2.0022   19.3029 C.ar    1  UNL1        0.1725
      8 C           0.9756    1.2278   20.2728 C.2     1  UNL1        0.1728
      9 O          -0.0235    0.9876   21.3656 O.2     1  UNL1       -0.2913
     10 C           1.1930    2.5217   19.5458 C.3     1  UNL1        0.0689
     11 C           2.2845    2.3099   18.5389 C.3     1  UNL1        0.0343
     12 C           6.4675   -2.2111   18.0441 C.3     1  UNL1        0.2526
     13 O           5.0776   -2.1083   17.4894 O.3     1  UNL1       -0.4684
     14 O           3.4597   -3.4458   19.6326 O.3     1  UNL1       -0.4684
     15 C           4.4034   -3.8162   20.7381 C.3     1  UNL1        0.2526
     16 C          -1.0272    3.8710   19.5297 C.3     1  UNL1        0.1369
     17 F          -0.5549    3.3834   18.1920 F       1  UNL1       -0.2399
     18 C          -0.9866    4.3348   20.9555 C.3     1  UNL1        0.0500
     19 C          -2.2586    4.6977   21.6627 C.3     1  UNL1        0.0751
     20 N          -3.5714    4.5968   20.9439 N.3     1  UNL1       -0.2687
     21 C          -3.6120    4.1330   19.5180 C.3     1  UNL1        0.0751
     22 C          -2.3399    3.7701   18.8109 C.3     1  UNL1        0.0500
     23 C          -4.8435    4.9597   21.6511 C.3     1  UNL1        0.1014
     24 C          -4.8796    5.0127   23.1497 C.ar    1  UNL1        0.0213
     25 C          -4.8291    6.3356   23.8548 C.ar    1  UNL1       -0.0007
     26 C          -4.8652    6.3887   25.3535 C.ar    1  UNL1       -0.0001
     27 C          -4.9518    5.1187   26.1470 C.ar    1  UNL1        0.0023
     28 C          -5.0022    3.7958   25.4419 C.ar    1  UNL1        0.0294
     29 C          -4.9661    3.7427   23.9432 C.ar    1  UNL1        0.1374
     30 F          -5.0166    2.4198   23.2382 F       1  UNL1       -0.2045
@<TRIPOS>BOND
     1    12    13    1
     2    13     2    1
     3     2     3   ar
     4     3     4   ar
     5     4     5   ar
     6     5     6   ar
     7     6     7   ar
     8     7    14    1
     9    14    15    1
    10     5     8    1
    11     8     9    2
    12     8    10    1
    13    10     1    1
    14     1    16    1
    15    16    17    1
    16    16    18    1
    17    18    19    1
    18    19    20    1
    19    20    23    1
    20    23    24    1
    21    24    25   ar
    22    25    26   ar
    23    26    27   ar
    24    27    28   ar
    25    28    29   ar
    26    29    30    1
    27    20    21    1
    28    21    22    1
    29    10    11    1
    30     7     2   ar
    31    22    16    1
    32    11     4    1
    33    29    24   ar
@<TRIPOS>MOLECULE
*****
 30 33 0 0 0
SMALL
GASTEIGER

@<TRIPOS>ATOM
      1 C           0.0830    3.5951   19.9323 C.3     1  UNL1        0.0407
      2 C           4.0031   -1.2549   18.2843 C.ar    1  UNL1        0.1721
      3 C           3.5816    0.1336   17.9041 C.ar    1  UNL1        0.0359
      4 C           2.5392    0.8485   18.7118 C.ar    1  UNL1       -0.0158
      5 C           1.9183    0.1751   19.8996 C.ar    1  UNL1        0.0340
      6 C           2.3398   -1.2134   20.2797 C.ar    1  UNL1        0.0426
      7 C           3.3822   -1.9283   19.4721 C.ar    1  UNL1        0.1725
      8 C           0.9227    1.1219   20.5013 C.2     1  UNL1        0.1728
      9 O           0.0710    0.8567   21.7073 O.2     1  UNL1       -0.2913
     10 C           0.9282    2.3806   19.6854 C.3     1  UNL1        0.0689
     11 C           1.9273    2.2117   18.5794 C.3     1  UNL1        0.0343
     12 C           6.4570   -2.0509   17.9773 C.3     1  UNL1        0.2526
     13 O           5.0454   -1.9698   17.4766 O.3     1  UNL1       -0.4684
     14 O           3.8037   -3.3168   19.8523 O.3     1  UNL1       -0.4684
     15 C           3.2517   -4.4978   19.1103 C.3     1  UNL1        0.2526
     16 C          -0.7670    3.6793   21.1653 C.3     1  UNL1        0.1369
     17 F           0.5575    4.0955   21.7331 F       1  UNL1       -0.2399
     18 C          -1.7962    3.2338   20.1692 C.3     1  UNL1        0.0500
     19 C          -3.2156    3.0170   20.6034 C.3     1  UNL1        0.0751
     20 N          -3.6056    3.2458   22.0336 N.3     1  UNL1       -0.2687
     21 C          -2.5764    3.6913   23.0297 C.3     1  UNL1        0.0751
     22 C          -1.1571    3.9080   22.5955 C.3     1  UNL1        0.0500
     23 C          -5.0250    3.0290   22.4678 C.3     1  UNL1        0.1014
     24 C          -5.9251    4.2056   22.7038 C.ar    1  UNL1        0.0213
     25 C          -6.4653    4.9820   21.5397 C.ar    1  UNL1       -0.0007
     26 C          -7.3654    6.1586   21.7757 C.ar    1  UNL1       -0.0001
     27 C          -7.7252    6.5586   23.1758 C.ar    1  UNL1        0.0023
     28 C          -7.1850    5.7822   24.3399 C.ar    1  UNL1        0.0294
     29 C          -6.2849    4.6056   24.1039 C.ar    1  UNL1        0.1374
     30 F          -5.7446    3.8292   25.2681 F       1  UNL1       -0.2045
@<TRIPOS>BOND
     1    12    13    1
     2    13     2    1
     3     2     3   ar
     4     3     4   ar
     5     4     5   ar
     6     5     6   ar
     7     6     7   ar
     8     7    14    1
     9    14    15    1
    10     5     8    1
    11     8     9    2
    12     8    10    1
    13    10     1    1
    14     1    16    1
    15    16    17    1
    16    16    18    1
    17    18    19    1
    18    19    20    1
    19    20    23    1
    20    23    24    1
    21    24    25   ar
    22    25    26   ar
    23    26    27   ar
    24    27    28   ar
    25    28    29   ar
    26    29    30    1
    27    20    21    1
    28    21    22    1
    29    10    11    1
    30     7     2   ar
    31    22    16    1
    32    11     4    1
    33    29    24   ar
