@<TRIPOS>MOLECULE
*****
 20 22 0 0 0
SMALL
GASTEIGER

@<TRIPOS>ATOM
      1 C         -12.1825  -15.9381   22.4306 C.3     1  UNL1        0.0952
      2 C         -10.9121  -16.6304   22.0345 C.2     1  UNL1        0.2309
      3 O         -10.0808  -16.0868   20.9105 O.2     1  UNL1       -0.2745
      4 N         -10.4732  -17.8663   22.7623 N.am    1  UNL1       -0.2440
      5 C         -11.3045  -18.4099   23.8863 C.3     1  UNL1        0.1017
      6 C         -10.8656  -19.6459   24.6141 C.3     1  UNL1        0.0483
      7 C          -9.5953  -20.3382   24.2180 C.3     1  UNL1        0.1306
      8 N          -8.7639  -19.7946   23.0941 N.ar    1  UNL1       -0.2376
      9 N          -7.4742  -20.2582   22.4843 N.ar    1  UNL1       -0.1688
     10 C          -7.1161  -19.3088   21.3796 C.ar    1  UNL1        0.1250
     11 C          -8.1845  -18.2584   21.3066 C.ar    1  UNL1        0.0545
     12 C          -9.2029  -18.5587   22.3662 C.ar    1  UNL1        0.1356
     13 C          -5.9027  -19.3947   20.5020 C.3     1  UNL1        0.2526
     14 O          -4.5567  -19.6623   21.1073 O.3     1  UNL1       -0.4689
     15 C          -3.4059  -18.7466   20.8120 C.ar    1  UNL1        0.1391
     16 C          -2.9278  -17.7820   21.8565 C.ar    1  UNL1        0.0369
     17 C          -1.7771  -16.8662   21.5611 C.ar    1  UNL1        0.0031
     18 C          -1.1045  -16.9151   20.2212 C.ar    1  UNL1        0.0002
     19 C          -1.5826  -17.8797   19.1767 C.ar    1  UNL1        0.0031
     20 C          -2.7333  -18.7954   19.4721 C.ar    1  UNL1        0.0369
@<TRIPOS>BOND
     1     1     2    1
     2     2     3    2
     3     2     4   am
     4     4     5    1
     5     5     6    1
     6     6     7    1
     7     7     8    1
     8     8     9   ar
     9     9    10   ar
    10    10    13    1
    11    13    14    1
    12    14    15    1
    13    15    16   ar
    14    16    17   ar
    15    17    18   ar
    16    18    19   ar
    17    19    20   ar
    18    10    11   ar
    19    11    12   ar
    20    12     4    1
    21    12     8   ar
    22    20    15   ar
@<TRIPOS>MOLECULE
*****
 20 22 0 0 0
SMALL
GASTEIGER

@<TRIPOS>ATOM
      1 C         -13.5054  -18.1974   24.5870 C.3     1  UNL1        0.0952
      2 C         -12.1477  -18.5764   24.0743 C.2     1  UNL1        0.2309
      3 O         -11.2174  -19.3776   24.9360 O.2     1  UNL1       -0.2745
      4 N         -11.7204  -18.1543   22.6998 N.am    1  UNL1       -0.2440
      5 C         -12.6507  -17.3531   21.8381 C.3     1  UNL1        0.1017
      6 C         -12.2233  -16.9310   20.4636 C.3     1  UNL1        0.0483
      7 C         -10.8657  -17.3101   19.9508 C.3     1  UNL1        0.1306
      8 N          -9.9353  -18.1112   20.8125 N.ar    1  UNL1       -0.2376
      9 N          -8.5469  -18.6289   20.5794 N.ar    1  UNL1       -0.1688
     10 C          -8.1161  -19.3709   21.8098 C.ar    1  UNL1        0.1250
     11 C          -9.2384  -19.3119   22.8033 C.ar    1  UNL1        0.0545
     12 C         -10.3627  -18.5334   22.1870 C.ar    1  UNL1        0.1356
     13 C          -6.7951  -20.0523   22.0112 C.3     1  UNL1        0.2526
     14 O          -5.8301  -20.1702   20.8690 O.3     1  UNL1       -0.4689
     15 C          -4.4911  -19.4985   20.9460 C.ar    1  UNL1        0.1391
     16 C          -3.9728  -19.0081   22.2655 C.ar    1  UNL1        0.0369
     17 C          -2.6339  -18.3364   22.3424 C.ar    1  UNL1        0.0031
     18 C          -1.8132  -18.1550   21.1000 C.ar    1  UNL1        0.0002
     19 C          -2.3316  -18.6453   19.7806 C.ar    1  UNL1        0.0031
     20 C          -3.6705  -19.3170   19.7036 C.ar    1  UNL1        0.0369
@<TRIPOS>BOND
     1     1     2    1
     2     2     3    2
     3     2     4   am
     4     4     5    1
     5     5     6    1
     6     6     7    1
     7     7     8    1
     8     8     9   ar
     9     9    10   ar
    10    10    13    1
    11    13    14    1
    12    14    15    1
    13    15    16   ar
    14    16    17   ar
    15    17    18   ar
    16    18    19   ar
    17    19    20   ar
    18    10    11   ar
    19    11    12   ar
    20    12     4    1
    21    12     8   ar
    22    20    15   ar
@<TRIPOS>MOLECULE
*****
 20 22 0 0 0
SMALL
GASTEIGER

@<TRIPOS>ATOM
      1 C         -12.5397  -18.1326   23.3521 C.3     1  UNL1        0.0952
      2 C         -11.2569  -18.5617   22.7039 C.2     1  UNL1        0.2309
      3 O         -11.2492  -19.7194   21.7502 O.2     1  UNL1       -0.2745
      4 N          -9.9819  -17.8331   23.0093 N.am    1  UNL1       -0.2440
      5 C          -9.9896  -16.6753   23.9630 C.3     1  UNL1        0.1017
      6 C          -8.7145  -15.9467   24.2685 C.3     1  UNL1        0.0483
      7 C          -7.4317  -16.3758   23.6203 C.3     1  UNL1        0.1306
      8 N          -7.4240  -17.5336   22.6666 N.ar    1  UNL1       -0.2376
      9 N          -6.3213  -18.1798   21.8814 N.ar    1  UNL1       -0.1688
     10 C          -6.9149  -19.3078   21.0906 C.ar    1  UNL1        0.1250
     11 C          -8.3844  -19.3587   21.3871 C.ar    1  UNL1        0.0545
     12 C          -8.6991  -18.2622   22.3611 C.ar    1  UNL1        0.1356
     13 C          -6.1698  -20.2240   20.1657 C.3     1  UNL1        0.2526
     14 O          -4.7967  -20.7044   20.5315 O.3     1  UNL1       -0.4689
     15 C          -3.6407  -19.7486   20.5229 C.ar    1  UNL1        0.1391
     16 C          -3.2484  -19.0574   19.2507 C.ar    1  UNL1        0.0369
     17 C          -2.0924  -18.1017   19.2422 C.ar    1  UNL1        0.0031
     18 C          -1.3286  -17.8371   20.5058 C.ar    1  UNL1        0.0002
     19 C          -1.7209  -18.5283   21.7779 C.ar    1  UNL1        0.0031
     20 C          -2.8769  -19.4841   21.7865 C.ar    1  UNL1        0.0369
@<TRIPOS>BOND
     1     1     2    1
     2     2     3    2
     3     2     4   am
     4     4     5    1
     5     5     6    1
     6     6     7    1
     7     7     8    1
     8     8     9   ar
     9     9    10   ar
    10    10    13    1
    11    13    14    1
    12    14    15    1
    13    15    16   ar
    14    16    17   ar
    15    17    18   ar
    16    18    19   ar
    17    19    20   ar
    18    10    11   ar
    19    11    12   ar
    20    12     4    1
    21    12     8   ar
    22    20    15   ar
@<TRIPOS>MOLECULE
*****
 20 22 0 0 0
SMALL
GASTEIGER

@<TRIPOS>ATOM
      1 C         -11.9164  -16.1009   22.6573 C.3     1  UNL1        0.0952
      2 C         -10.5441  -16.7050   22.6155 C.2     1  UNL1        0.2309
      3 O          -9.5212  -16.3144   23.6407 O.2     1  UNL1       -0.2745
      4 N         -10.1947  -17.6998   21.5485 N.am    1  UNL1       -0.2440
      5 C         -11.2176  -18.0904   20.5234 C.3     1  UNL1        0.1017
      6 C         -10.8683  -19.0852   19.4564 C.3     1  UNL1        0.0483
      7 C          -9.4959  -19.6893   19.4146 C.3     1  UNL1        0.1306
      8 N          -8.4730  -19.2986   20.4398 N.ar    1  UNL1       -0.2376
      9 N          -7.0498  -19.7232   20.6501 N.ar    1  UNL1       -0.1688
     10 C          -6.5196  -18.9909   21.8470 C.ar    1  UNL1        0.1250
     11 C          -7.6152  -18.1137   22.3764 C.ar    1  UNL1        0.0545
     12 C          -8.8224  -18.3039   21.5067 C.ar    1  UNL1        0.1356
     13 C          -5.1367  -19.1142   22.4147 C.3     1  UNL1        0.2526
     14 O          -4.0035  -19.5606   21.5392 O.3     1  UNL1       -0.4689
     15 C          -2.9236  -18.5918   21.1580 C.ar    1  UNL1        0.1391
     16 C          -2.8044  -17.2806   21.8767 C.ar    1  UNL1        0.0369
     17 C          -1.7245  -16.3118   21.4955 C.ar    1  UNL1        0.0031
     18 C          -0.7638  -16.6543   20.3955 C.ar    1  UNL1        0.0002
     19 C          -0.8831  -17.9655   19.6769 C.ar    1  UNL1        0.0031
     20 C          -1.9630  -18.9343   20.0581 C.ar    1  UNL1        0.0369
@<TRIPOS>BOND
     1     1     2    1
     2     2     3    2
     3     2     4   am
     4     4     5    1
     5     5     6    1
     6     6     7    1
     7     7     8    1
     8     8     9   ar
     9     9    10   ar
    10    10    13    1
    11    13    14    1
    12    14    15    1
    13    15    16   ar
    14    16    17   ar
    15    17    18   ar
    16    18    19   ar
    17    19    20   ar
    18    10    11   ar
    19    11    12   ar
    20    12     4    1
    21    12     8   ar
    22    20    15   ar
@<TRIPOS>MOLECULE
*****
 20 22 0 0 0
SMALL
GASTEIGER

@<TRIPOS>ATOM
      1 C          -5.8513  -15.4271   24.8766 C.3     1  UNL1        0.0952
      2 C          -6.5358  -16.2617   23.8351 C.2     1  UNL1        0.2309
      3 O          -7.9819  -16.0243   23.5152 O.2     1  UNL1       -0.2745
      4 N          -5.7742  -17.3338   23.1136 N.am    1  UNL1       -0.2440
      5 C          -4.3281  -17.5713   23.4336 C.3     1  UNL1        0.1017
      6 C          -3.5666  -18.6434   22.7120 C.3     1  UNL1        0.0483
      7 C          -4.2511  -19.4780   21.6705 C.3     1  UNL1        0.1306
      8 N          -5.6971  -19.2406   21.3506 N.ar    1  UNL1       -0.2376
      9 N          -6.6317  -19.8998   20.3800 N.ar    1  UNL1       -0.1688
     10 C          -7.9709  -19.2352   20.5017 C.ar    1  UNL1        0.1250
     11 C          -7.8640  -18.1652   21.5475 C.ar    1  UNL1        0.0545
     12 C          -6.4587  -18.1685   22.0721 C.ar    1  UNL1        0.1356
     13 C          -9.2011  -19.5800   19.7156 C.3     1  UNL1        0.2526
     14 O         -10.4829  -19.8944   20.4283 O.3     1  UNL1       -0.4689
     15 C         -11.2195  -18.8117   21.1598 C.ar    1  UNL1        0.1391
     16 C         -11.6201  -17.5585   20.4393 C.ar    1  UNL1        0.0369
     17 C         -12.3567  -16.4757   21.1708 C.ar    1  UNL1        0.0031
     18 C         -12.6926  -16.6461   22.6227 C.ar    1  UNL1        0.0002
     19 C         -12.2920  -17.8993   23.3432 C.ar    1  UNL1        0.0031
     20 C         -11.5554  -18.9821   22.6117 C.ar    1  UNL1        0.0369
@<TRIPOS>BOND
     1     1     2    1
     2     2     3    2
     3     2     4   am
     4     4     5    1
     5     5     6    1
     6     6     7    1
     7     7     8    1
     8     8     9   ar
     9     9    10   ar
    10    10    13    1
    11    13    14    1
    12    14    15    1
    13    15    16   ar
    14    16    17   ar
    15    17    18   ar
    16    18    19   ar
    17    19    20   ar
    18    10    11   ar
    19    11    12   ar
    20    12     4    1
    21    12     8   ar
    22    20    15   ar
@<TRIPOS>MOLECULE
*****
 20 22 0 0 0
SMALL
GASTEIGER

@<TRIPOS>ATOM
      1 C          -2.0959  -19.6947   21.6003 C.3     1  UNL1        0.0952
      2 C          -3.5458  -19.6404   21.2197 C.2     1  UNL1        0.2309
      3 O          -4.0721  -20.5397   20.1408 O.2     1  UNL1       -0.2745
      4 N          -4.4693  -18.6868   21.9181 N.am    1  UNL1       -0.2440
      5 C          -3.9430  -17.7875   22.9970 C.3     1  UNL1        0.1017
      6 C          -4.8665  -16.8339   23.6954 C.3     1  UNL1        0.0483
      7 C          -6.3164  -16.7796   23.3149 C.3     1  UNL1        0.1306
      8 N          -6.8427  -17.6789   22.2359 N.ar    1  UNL1       -0.2376
      9 N          -8.2133  -17.8482   21.6503 N.ar    1  UNL1       -0.1688
     10 C          -8.1368  -18.9065   20.5899 C.ar    1  UNL1        0.1250
     11 C          -6.7190  -19.3912   20.5203 C.ar    1  UNL1        0.0545
     12 C          -5.9192  -18.6325   21.5375 C.ar    1  UNL1        0.1356
     13 C          -9.2778  -19.3943   19.7473 C.3     1  UNL1        0.2526
     14 O         -10.4551  -20.0626   20.3932 O.3     1  UNL1       -0.4689
     15 C         -11.1574  -19.3994   21.5409 C.ar    1  UNL1        0.1391
     16 C         -10.9312  -19.8871   22.9413 C.ar    1  UNL1        0.0369
     17 C         -11.6334  -19.2239   24.0890 C.ar    1  UNL1        0.0031
     18 C         -12.5618  -18.0732   23.8362 C.ar    1  UNL1        0.0002
     19 C         -12.7880  -17.5856   22.4359 C.ar    1  UNL1        0.0031
     20 C         -12.0858  -18.2487   21.2882 C.ar    1  UNL1        0.0369
@<TRIPOS>BOND
     1     1     2    1
     2     2     3    2
     3     2     4   am
     4     4     5    1
     5     5     6    1
     6     6     7    1
     7     7     8    1
     8     8     9   ar
     9     9    10   ar
    10    10    13    1
    11    13    14    1
    12    14    15    1
    13    15    16   ar
    14    16    17   ar
    15    17    18   ar
    16    18    19   ar
    17    19    20   ar
    18    10    11   ar
    19    11    12   ar
    20    12     4    1
    21    12     8   ar
    22    20    15   ar
@<TRIPOS>MOLECULE
*****
 20 22 0 0 0
SMALL
GASTEIGER

@<TRIPOS>ATOM
      1 C          -0.4312  -18.1513   19.7449 C.3     1  UNL1        0.0952
      2 C          -1.8884  -18.5065   19.7358 C.2     1  UNL1        0.2309
      3 O          -2.5263  -19.0248   18.4811 O.2     1  UNL1       -0.2745
      4 N          -2.7079  -18.3433   20.9816 N.am    1  UNL1       -0.2440
      5 C          -2.0701  -17.8250   22.2363 C.3     1  UNL1        0.1017
      6 C          -2.8895  -17.6619   23.4821 C.3     1  UNL1        0.0483
      7 C          -4.3468  -18.0170   23.4731 C.3     1  UNL1        0.1306
      8 N          -4.9846  -18.5354   22.2183 N.ar    1  UNL1       -0.2376
      9 N          -6.3883  -18.9646   21.9093 N.ar    1  UNL1       -0.1688
     10 C          -6.4364  -19.3931   20.4726 C.ar    1  UNL1        0.1250
     11 C          -5.0624  -19.2286   19.8937 C.ar    1  UNL1        0.0545
     12 C          -4.1652  -18.6985   20.9726 C.ar    1  UNL1        0.1356
     13 C          -7.6460  -19.8974   19.7429 C.3     1  UNL1        0.2526
     14 O          -8.7497  -18.9502   19.3760 O.3     1  UNL1       -0.4689
     15 C          -9.9013  -18.7409   20.3141 C.ar    1  UNL1        0.1391
     16 C          -9.9697  -19.5091   21.6007 C.ar    1  UNL1        0.0369
     17 C         -11.1213  -19.2999   22.5388 C.ar    1  UNL1        0.0031
     18 C         -12.2045  -18.3225   22.1903 C.ar    1  UNL1        0.0002
     19 C         -12.1361  -17.5543   20.9037 C.ar    1  UNL1        0.0031
     20 C         -10.9844  -17.7636   19.9657 C.ar    1  UNL1        0.0369
@<TRIPOS>BOND
     1     1     2    1
     2     2     3    2
     3     2     4   am
     4     4     5    1
     5     5     6    1
     6     6     7    1
     7     7     8    1
     8     8     9   ar
     9     9    10   ar
    10    10    13    1
    11    13    14    1
    12    14    15    1
    13    15    16   ar
    14    16    17   ar
    15    17    18   ar
    16    18    19   ar
    17    19    20   ar
    18    10    11   ar
    19    11    12   ar
    20    12     4    1
    21    12     8   ar
    22    20    15   ar
@<TRIPOS>MOLECULE
*****
 20 22 0 0 0
SMALL
GASTEIGER

@<TRIPOS>ATOM
      1 C          -5.8256  -21.3944   20.1209 C.3     1  UNL1        0.0952
      2 C          -6.1698  -20.1940   20.9520 C.2     1  UNL1        0.2309
      3 O          -7.6052  -19.8090   21.1549 O.2     1  UNL1       -0.2745
      4 N          -5.0785  -19.3787   21.5800 N.am    1  UNL1       -0.2440
      5 C          -3.6431  -19.7637   21.3770 C.3     1  UNL1        0.1017
      6 C          -2.5519  -18.9484   22.0050 C.3     1  UNL1        0.0483
      7 C          -2.8960  -17.7480   22.8361 C.3     1  UNL1        0.1306
      8 N          -4.3315  -17.3630   23.0390 N.ar    1  UNL1       -0.2376
      9 N          -4.9715  -16.2405   23.8009 N.ar    1  UNL1       -0.1688
     10 C          -6.4582  -16.3620   23.6437 C.ar    1  UNL1        0.1250
     11 C          -6.7371  -17.5597   22.7847 C.ar    1  UNL1        0.0545
     12 C          -5.4227  -18.1783   22.4110 C.ar    1  UNL1        0.1356
     13 C          -7.4857  -15.4467   24.2407 C.3     1  UNL1        0.2526
     14 O          -8.5786  -16.0063   25.1023 O.3     1  UNL1       -0.4689
     15 C          -9.6031  -16.9279   24.5099 C.ar    1  UNL1        0.1391
     16 C          -9.7961  -18.3014   25.0813 C.ar    1  UNL1        0.0369
     17 C         -10.8206  -19.2230   24.4889 C.ar    1  UNL1        0.0031
     18 C         -11.6522  -18.7711   23.3251 C.ar    1  UNL1        0.0002
     19 C         -11.4592  -17.3977   22.7538 C.ar    1  UNL1        0.0031
     20 C         -10.4347  -16.4761   23.3462 C.ar    1  UNL1        0.0369
@<TRIPOS>BOND
     1     1     2    1
     2     2     3    2
     3     2     4   am
     4     4     5    1
     5     5     6    1
     6     6     7    1
     7     7     8    1
     8     8     9   ar
     9     9    10   ar
    10    10    13    1
    11    13    14    1
    12    14    15    1
    13    15    16   ar
    14    16    17   ar
    15    17    18   ar
    16    18    19   ar
    17    19    20   ar
    18    10    11   ar
    19    11    12   ar
    20    12     4    1
    21    12     8   ar
    22    20    15   ar
@<TRIPOS>MOLECULE
*****
 20 22 0 0 0
SMALL
GASTEIGER

@<TRIPOS>ATOM
      1 C          -4.9193  -20.7468   20.1921 C.3     1  UNL1        0.0952
      2 C          -5.7958  -19.8259   20.9880 C.2     1  UNL1        0.2309
      3 O          -7.2876  -19.9687   20.9237 O.2     1  UNL1       -0.2745
      4 N          -5.1806  -18.7621   21.8482 N.am    1  UNL1       -0.2440
      5 C          -3.6888  -18.6193   21.9124 C.3     1  UNL1        0.1017
      6 C          -3.0735  -17.5556   22.7726 C.3     1  UNL1        0.0483
      7 C          -3.9500  -16.6346   23.5685 C.3     1  UNL1        0.1306
      8 N          -5.4418  -16.7774   23.5042 N.ar    1  UNL1       -0.2376
      9 N          -6.5521  -16.0214   24.1718 N.ar    1  UNL1       -0.1688
     10 C          -7.8536  -16.6179   23.7242 C.ar    1  UNL1        0.1250
     11 C          -7.5476  -17.7426   22.7800 C.ar    1  UNL1        0.0545
     12 C          -6.0571  -17.8412   22.6441 C.ar    1  UNL1        0.1356
     13 C          -9.2210  -16.1686   24.1467 C.3     1  UNL1        0.2526
     14 O         -10.3666  -16.2434   23.1813 O.3     1  UNL1       -0.4689
     15 C         -10.5856  -17.4874   22.3723 C.ar    1  UNL1        0.1391
     16 C         -10.5654  -17.4209   20.8739 C.ar    1  UNL1        0.0369
     17 C         -10.7845  -18.6649   20.0649 C.ar    1  UNL1        0.0031
     18 C         -11.0237  -19.9755   20.7543 C.ar    1  UNL1        0.0002
     19 C         -11.0439  -20.0419   22.2527 C.ar    1  UNL1        0.0031
     20 C         -10.8249  -18.7979   23.0617 C.ar    1  UNL1        0.0369
@<TRIPOS>BOND
     1     1     2    1
     2     2     3    2
     3     2     4   am
     4     4     5    1
     5     5     6    1
     6     6     7    1
     7     7     8    1
     8     8     9   ar
     9     9    10   ar
    10    10    13    1
    11    13    14    1
    12    14    15    1
    13    15    16   ar
    14    16    17   ar
    15    17    18   ar
    16    18    19   ar
    17    19    20   ar
    18    10    11   ar
    19    11    12   ar
    20    12     4    1
    21    12     8   ar
    22    20    15   ar
