@<TRIPOS>MOLECULE
*****
 28 31 0 0 0
SMALL
GASTEIGER

@<TRIPOS>ATOM
      1 C          -6.1469  -15.3452   26.6139 C.3     1  UNL1        0.0233
      2 C          -6.0563  -16.0530   25.2945 C.3     1  UNL1        0.0956
      3 C          -4.7212  -16.4870   24.7663 C.3     1  UNL1        0.1135
      4 N          -4.6307  -17.1947   23.4469 N.am    1  UNL1       -0.2726
      5 C          -3.2955  -17.6288   22.9187 C.2     1  UNL1        0.2491
      6 O          -2.0509  -17.3552   23.7100 O.2     1  UNL1       -0.2699
      7 C          -5.8752  -17.4684   22.6556 C.3     1  UNL1        0.1152
      8 C          -7.2103  -17.0343   23.1838 C.3     1  UNL1        0.1153
      9 N          -7.3009  -16.3266   24.5032 N.am    1  UNL1       -0.2716
     10 C          -8.6360  -15.8925   25.0314 C.2     1  UNL1        0.2883
     11 O          -8.7266  -15.1848   26.3509 O.2     1  UNL1       -0.2664
     12 C          -3.2049  -18.3365   21.5993 C.ar    1  UNL1        0.0536
     13 C          -2.4778  -17.6973   20.4536 C.ar    1  UNL1        0.0045
     14 C          -2.3873  -18.4050   19.1342 C.ar    1  UNL1        0.0001
     15 C          -3.0239  -19.7520   18.9604 C.ar    1  UNL1        0.0000
     16 C          -3.7510  -20.3913   20.1060 C.ar    1  UNL1        0.0001
     17 C          -3.8415  -19.6835   21.4255 C.ar    1  UNL1        0.0045
     18 C          -9.8807  -16.1662   24.2401 C.2     1  UNL1        0.2502
     19 O         -10.8091  -15.0414   23.8899 O.2     1  UNL1       -0.2816
     20 C         -10.1968  -17.5646   23.7992 C.2     1  UNL1        0.0653
     21 C         -10.4229  -18.7431   24.6993 C.2     1  UNL1        0.1018
     22 N         -10.7081  -19.9369   23.8370 N.2     1  UNL1       -0.2476
     23 C         -10.6583  -19.4963   22.4041 C.2     1  UNL1        0.0666
     24 C         -10.8598  -20.2407   21.1176 C.3     1  UNL1        0.0927
     25 C         -10.7453  -19.5190   19.8076 C.2     1  UNL1        0.0788
     26 N         -10.4293  -18.0528   19.7842 N.2     1  UNL1       -0.2465
     27 C         -10.2278  -17.3084   21.0707 C.2     1  UNL1        0.0998
     28 C         -10.3422  -18.0301   22.3807 C.2     1  UNL1        0.0378
@<TRIPOS>BOND
     1     2     1    1
     2     2     3    1
     3     3     4    1
     4     4     5   am
     5     5     6    2
     6     5    12    1
     7    12    13   ar
     8    13    14   ar
     9    14    15   ar
    10    15    16   ar
    11    16    17   ar
    12     4     7    1
    13     7     8    1
    14     8     9    1
    15     9    10   am
    16    10    11    2
    17    10    18    1
    18    18    19    2
    19    18    20    1
    20    20    21    2
    21    21    22    1
    22    22    23    2
    23    23    24    1
    24    24    25    1
    25    25    26    2
    26    26    27    1
    27    27    28    2
    28     9     2    1
    29    28    20    1
    30    17    12   ar
    31    28    23    1
@<TRIPOS>MOLECULE
*****
 28 31 0 0 0
SMALL
GASTEIGER

@<TRIPOS>ATOM
      1 C           7.3903   -7.1563   26.8268 C.3     1  UNL1        0.0233
      2 C           7.2413   -5.8762   27.5944 C.3     1  UNL1        0.0956
      3 C           7.1133   -5.9081   29.0885 C.3     1  UNL1        0.1135
      4 N           6.9643   -4.6280   29.8561 N.am    1  UNL1       -0.2726
      5 C           6.8363   -4.6600   31.3503 C.2     1  UNL1        0.2491
      6 O           6.8571   -5.9721   32.0770 O.2     1  UNL1       -0.2699
      7 C           6.9434   -3.3159   29.1295 C.3     1  UNL1        0.1152
      8 C           7.0715   -3.2840   27.6353 C.3     1  UNL1        0.1153
      9 N           7.2204   -4.5641   26.8678 N.am    1  UNL1       -0.2716
     10 C           7.3485   -4.5321   25.3736 C.2     1  UNL1        0.2883
     11 O           7.4974   -5.8123   24.6061 O.2     1  UNL1       -0.2664
     12 C           6.6873   -3.3799   32.1178 C.ar    1  UNL1        0.0536
     13 C           5.3285   -2.9247   32.5608 C.ar    1  UNL1        0.0045
     14 C           5.1795   -1.6446   33.3283 C.ar    1  UNL1        0.0001
     15 C           6.3895   -0.8196   33.6529 C.ar    1  UNL1        0.0000
     16 C           7.7483   -1.2748   33.2099 C.ar    1  UNL1        0.0001
     17 C           7.8973   -2.5549   32.4424 C.ar    1  UNL1        0.0045
     18 C           7.3276   -3.2200   24.6469 C.2     1  UNL1        0.2502
     19 O           8.5309   -2.3251   24.6802 O.2     1  UNL1       -0.2816
     20 C           6.1034   -2.8029   23.8870 C.2     1  UNL1        0.0653
     21 C           4.9907   -1.9440   24.4106 C.2     1  UNL1        0.1018
     22 N           3.9767   -1.7819   23.3172 N.2     1  UNL1       -0.2476
     23 C           4.4627   -2.5405   22.1179 C.2     1  UNL1        0.0666
     24 C           3.8782   -2.7382   20.7508 C.3     1  UNL1        0.0927
     25 C           4.6081   -3.5669   19.7357 C.2     1  UNL1        0.0788
     26 N           5.9225   -4.1980   20.0879 N.2     1  UNL1       -0.2465
     27 C           6.5071   -4.0003   21.4550 C.2     1  UNL1        0.0998
     28 C           5.7771   -3.1716   22.4701 C.2     1  UNL1        0.0378
@<TRIPOS>BOND
     1     2     1    1
     2     2     3    1
     3     3     4    1
     4     4     5   am
     5     5     6    2
     6     5    12    1
     7    12    13   ar
     8    13    14   ar
     9    14    15   ar
    10    15    16   ar
    11    16    17   ar
    12     4     7    1
    13     7     8    1
    14     8     9    1
    15     9    10   am
    16    10    11    2
    17    10    18    1
    18    18    19    2
    19    18    20    1
    20    20    21    2
    21    21    22    1
    22    22    23    2
    23    23    24    1
    24    24    25    1
    25    25    26    2
    26    26    27    1
    27    27    28    2
    28     9     2    1
    29    28    20    1
    30    17    12   ar
    31    28    23    1
@<TRIPOS>MOLECULE
*****
 28 31 0 0 0
SMALL
GASTEIGER

@<TRIPOS>ATOM
      1 C           6.1605   -3.5490   25.2303 C.3     1  UNL1        0.0233
      2 C           5.3110   -2.5644   24.4827 C.3     1  UNL1        0.0956
      3 C           5.0032   -2.7890   23.0319 C.3     1  UNL1        0.1135
      4 N           4.1538   -1.8044   22.2842 N.am    1  UNL1       -0.2726
      5 C           3.8460   -2.0291   20.8334 C.2     1  UNL1        0.2491
      6 O           4.3877   -3.2383   20.1302 O.2     1  UNL1       -0.2699
      7 C           3.6121   -0.5952   22.9872 C.3     1  UNL1        0.1152
      8 C           3.9199   -0.3706   24.4380 C.3     1  UNL1        0.1153
      9 N           4.7694   -1.3552   25.1857 N.am    1  UNL1       -0.2716
     10 C           5.0772   -1.1306   26.6365 C.2     1  UNL1        0.2883
     11 O           5.9266   -2.1151   27.3842 O.2     1  UNL1       -0.2664
     12 C           2.9966   -1.0445   20.0857 C.ar    1  UNL1        0.0536
     13 C           3.5911   -0.2346   18.9719 C.ar    1  UNL1        0.0045
     14 C           2.7417    0.7499   18.2243 C.ar    1  UNL1        0.0001
     15 C           1.2976    0.9247   18.5904 C.ar    1  UNL1        0.0000
     16 C           0.7030    0.1148   19.7041 C.ar    1  UNL1        0.0001
     17 C           1.5525   -0.8698   20.4518 C.ar    1  UNL1        0.0045
     18 C           4.5355    0.0787   27.3397 C.2     1  UNL1        0.2502
     19 O           5.1908    1.4142   27.1477 O.2     1  UNL1       -0.2816
     20 C           3.3385   -0.0476   28.2348 C.2     1  UNL1        0.0653
     21 C           3.3207   -0.6658   29.6013 C.2     1  UNL1        0.1018
     22 N           1.9203   -0.5782   30.1315 N.2     1  UNL1       -0.2476
     23 C           1.0725    0.0942   29.0927 C.2     1  UNL1        0.0666
     24 C          -0.3843    0.4503   29.0628 C.3     1  UNL1        0.0927
     25 C          -0.9646    1.1342   27.8605 C.2     1  UNL1        0.0788
     26 N          -0.0881    1.4621   26.6882 N.2     1  UNL1       -0.2465
     27 C           1.3687    1.1061   26.7182 C.2     1  UNL1        0.0998
     28 C           1.9490    0.4222   27.9204 C.2     1  UNL1        0.0378
@<TRIPOS>BOND
     1     2     1    1
     2     2     3    1
     3     3     4    1
     4     4     5   am
     5     5     6    2
     6     5    12    1
     7    12    13   ar
     8    13    14   ar
     9    14    15   ar
    10    15    16   ar
    11    16    17   ar
    12     4     7    1
    13     7     8    1
    14     8     9    1
    15     9    10   am
    16    10    11    2
    17    10    18    1
    18    18    19    2
    19    18    20    1
    20    20    21    2
    21    21    22    1
    22    22    23    2
    23    23    24    1
    24    24    25    1
    25    25    26    2
    26    26    27    1
    27    27    28    2
    28     9     2    1
    29    28    20    1
    30    17    12   ar
    31    28    23    1
@<TRIPOS>MOLECULE
*****
 28 31 0 0 0
SMALL
GASTEIGER

@<TRIPOS>ATOM
      1 C           8.4572   -3.9283   23.0951 C.3     1  UNL1        0.0233
      2 C           7.1878   -3.2483   23.5149 C.3     1  UNL1        0.0956
      3 C           7.1153   -2.5463   24.8385 C.3     1  UNL1        0.1135
      4 N           5.8459   -1.8663   25.2583 N.am    1  UNL1       -0.2726
      5 C           5.7735   -1.1643   26.5819 C.2     1  UNL1        0.2491
      6 O           6.9704   -1.1423   27.4858 O.2     1  UNL1       -0.2699
      7 C           4.6490   -1.8882   24.3545 C.3     1  UNL1        0.1152
      8 C           4.7215   -2.5902   23.0309 C.3     1  UNL1        0.1153
      9 N           5.9909   -3.2703   22.6111 N.am    1  UNL1       -0.2716
     10 C           6.0634   -3.9723   21.2875 C.2     1  UNL1        0.2883
     11 O           7.3327   -4.6523   20.8677 O.2     1  UNL1       -0.2664
     12 C           4.5042   -0.4843   27.0017 C.ar    1  UNL1        0.0536
     13 C           4.1928    0.8961   26.5042 C.ar    1  UNL1        0.0045
     14 C           2.9234    1.5761   26.9239 C.ar    1  UNL1        0.0001
     15 C           1.9653    0.8757   27.8413 C.ar    1  UNL1        0.0000
     16 C           2.2767   -0.5046   28.3389 C.ar    1  UNL1        0.0001
     17 C           3.5461   -1.1846   27.9191 C.ar    1  UNL1        0.0045
     18 C           4.8664   -3.9943   20.3837 C.2     1  UNL1        0.2502
     19 O           3.8235   -5.0600   20.5461 O.2     1  UNL1       -0.2816
     20 C           4.7124   -2.9505   19.3174 C.2     1  UNL1        0.0653
     21 C           5.5859   -2.7895   18.1086 C.2     1  UNL1        0.1018
     22 N           5.0713   -1.6240   17.3169 N.2     1  UNL1       -0.2476
     23 C           3.8798   -1.0647   18.0364 C.2     1  UNL1        0.0666
     24 C           2.9682    0.0851   17.7254 C.3     1  UNL1        0.0927
     25 C           1.8348    0.4151   18.6508 C.2     1  UNL1        0.0788
     26 N           1.6130   -0.4047   19.8872 N.2     1  UNL1       -0.2465
     27 C           2.5246   -1.5546   20.1982 C.2     1  UNL1        0.0998
     28 C           3.6580   -1.8846   19.2728 C.2     1  UNL1        0.0378
@<TRIPOS>BOND
     1     2     1    1
     2     2     3    1
     3     3     4    1
     4     4     5   am
     5     5     6    2
     6     5    12    1
     7    12    13   ar
     8    13    14   ar
     9    14    15   ar
    10    15    16   ar
    11    16    17   ar
    12     4     7    1
    13     7     8    1
    14     8     9    1
    15     9    10   am
    16    10    11    2
    17    10    18    1
    18    18    19    2
    19    18    20    1
    20    20    21    2
    21    21    22    1
    22    22    23    2
    23    23    24    1
    24    24    25    1
    25    25    26    2
    26    26    27    1
    27    27    28    2
    28     9     2    1
    29    28    20    1
    30    17    12   ar
    31    28    23    1
@<TRIPOS>MOLECULE
*****
 28 31 0 0 0
SMALL
GASTEIGER

@<TRIPOS>ATOM
      1 C           5.8086   -3.5459   24.1265 C.3     1  UNL1        0.0233
      2 C           4.8053   -2.4664   23.8473 C.3     1  UNL1        0.0956
      3 C           4.2889   -1.6143   24.9686 C.3     1  UNL1        0.1135
      4 N           3.2856   -0.5347   24.6894 N.am    1  UNL1       -0.2726
      5 C           2.7693    0.3174   25.8108 C.2     1  UNL1        0.2491
      6 O           3.2562    0.0900   27.2112 O.2     1  UNL1       -0.2699
      7 C           2.7987   -0.3072   23.2891 C.3     1  UNL1        0.1152
      8 C           3.3151   -1.1594   22.1678 C.3     1  UNL1        0.1153
      9 N           4.3184   -2.2389   22.4470 N.am    1  UNL1       -0.2716
     10 C           4.8348   -3.0911   21.3257 C.2     1  UNL1        0.2883
     11 O           5.8381   -4.1706   21.6049 O.2     1  UNL1       -0.2664
     12 C           1.7659    1.3969   25.5316 C.ar    1  UNL1        0.0536
     13 C           2.2298    2.7729   25.1553 C.ar    1  UNL1        0.0045
     14 C           1.2265    3.8524   24.8761 C.ar    1  UNL1        0.0001
     15 C          -0.2408    3.5560   24.9733 C.ar    1  UNL1        0.0000
     16 C          -0.7046    2.1801   25.3496 C.ar    1  UNL1        0.0001
     17 C           0.2987    1.1006   25.6288 C.ar    1  UNL1        0.0045
     18 C           4.3478   -2.8636   19.9252 C.2     1  UNL1        0.2502
     19 O           3.0286   -3.4286   19.4889 O.2     1  UNL1       -0.2816
     20 C           5.1801   -2.0712   18.9612 C.2     1  UNL1        0.0653
     21 C           6.2927   -2.6069   18.1096 C.2     1  UNL1        0.1018
     22 N           6.8462   -1.4708   17.3016 N.2     1  UNL1       -0.2476
     23 C           6.0757   -0.2329   17.6538 C.2     1  UNL1        0.0666
     24 C           6.1786    1.1842   17.1731 C.3     1  UNL1        0.0927
     25 C           5.2519    2.2302   17.7181 C.2     1  UNL1        0.0788
     26 N           4.2222    1.8591   18.7437 N.2     1  UNL1       -0.2465
     27 C           4.1192    0.4420   19.2245 C.2     1  UNL1        0.0998
     28 C           5.0460   -0.6040   18.6795 C.2     1  UNL1        0.0378
@<TRIPOS>BOND
     1     2     1    1
     2     2     3    1
     3     3     4    1
     4     4     5   am
     5     5     6    2
     6     5    12    1
     7    12    13   ar
     8    13    14   ar
     9    14    15   ar
    10    15    16   ar
    11    16    17   ar
    12     4     7    1
    13     7     8    1
    14     8     9    1
    15     9    10   am
    16    10    11    2
    17    10    18    1
    18    18    19    2
    19    18    20    1
    20    20    21    2
    21    21    22    1
    22    22    23    2
    23    23    24    1
    24    24    25    1
    25    25    26    2
    26    26    27    1
    27    27    28    2
    28     9     2    1
    29    28    20    1
    30    17    12   ar
    31    28    23    1
@<TRIPOS>MOLECULE
*****
 28 31 0 0 0
SMALL
GASTEIGER

@<TRIPOS>ATOM
      1 C           2.8055    0.1253   26.4572 C.3     1  UNL1        0.0233
      2 C           3.5496   -0.5311   25.3322 C.3     1  UNL1        0.0956
      3 C           2.9658   -0.5388   23.9505 C.3     1  UNL1        0.1135
      4 N           3.7098   -1.1952   22.8256 N.am    1  UNL1       -0.2726
      5 C           3.1259   -1.2029   21.4439 C.2     1  UNL1        0.2491
      6 O           1.7981   -0.5542   21.1871 O.2     1  UNL1       -0.2699
      7 C           5.0377   -1.8440   23.0823 C.3     1  UNL1        0.1152
      8 C           5.6215   -1.8363   24.4640 C.3     1  UNL1        0.1153
      9 N           4.8774   -1.1799   25.5889 N.am    1  UNL1       -0.2716
     10 C           5.4612   -1.1722   26.9706 C.2     1  UNL1        0.2883
     11 O           4.7172   -0.5158   28.0956 O.2     1  UNL1       -0.2664
     12 C           3.8700   -1.8593   20.3189 C.ar    1  UNL1        0.0536
     13 C           3.6800   -3.3221   20.0467 C.ar    1  UNL1        0.0045
     14 C           4.4241   -3.9785   18.9217 C.ar    1  UNL1        0.0001
     15 C           5.3582   -3.1721   18.0690 C.ar    1  UNL1        0.0000
     16 C           5.5482   -1.7093   18.3412 C.ar    1  UNL1        0.0001
     17 C           4.8041   -1.0529   19.4662 C.ar    1  UNL1        0.0045
     18 C           6.7892   -1.8209   27.2274 C.2     1  UNL1        0.2502
     19 O           8.0572   -1.0708   26.9458 O.2     1  UNL1       -0.2816
     20 C           6.8490   -3.2197   27.7657 C.2     1  UNL1        0.0653
     21 C           6.9059   -4.4769   26.9495 C.2     1  UNL1        0.1018
     22 N           6.9544   -5.6410   27.8941 N.2     1  UNL1       -0.2476
     23 C           6.9274   -5.1034   29.2942 C.2     1  UNL1        0.0666
     24 C           6.9538   -5.7831   30.6311 C.3     1  UNL1        0.0927
     25 C           6.9151   -4.9663   31.8886 C.2     1  UNL1        0.0788
     26 N           6.8499   -3.4698   31.8092 N.2     1  UNL1       -0.2465
     27 C           6.8235   -2.7901   30.4723 C.2     1  UNL1        0.0998
     28 C           6.8623   -3.6069   29.2148 C.2     1  UNL1        0.0378
@<TRIPOS>BOND
     1     2     1    1
     2     2     3    1
     3     3     4    1
     4     4     5   am
     5     5     6    2
     6     5    12    1
     7    12    13   ar
     8    13    14   ar
     9    14    15   ar
    10    15    16   ar
    11    16    17   ar
    12     4     7    1
    13     7     8    1
    14     8     9    1
    15     9    10   am
    16    10    11    2
    17    10    18    1
    18    18    19    2
    19    18    20    1
    20    20    21    2
    21    21    22    1
    22    22    23    2
    23    23    24    1
    24    24    25    1
    25    25    26    2
    26    26    27    1
    27    27    28    2
    28     9     2    1
    29    28    20    1
    30    17    12   ar
    31    28    23    1
@<TRIPOS>MOLECULE
*****
 28 31 0 0 0
SMALL
GASTEIGER

@<TRIPOS>ATOM
      1 C           7.3468   -3.4845   27.4951 C.3     1  UNL1        0.0233
      2 C           6.6331   -3.0072   26.2652 C.3     1  UNL1        0.0956
      3 C           6.8448   -3.7078   24.9558 C.3     1  UNL1        0.1135
      4 N           6.1311   -3.2305   23.7258 N.am    1  UNL1       -0.2726
      5 C           6.3429   -3.9311   22.4165 C.2     1  UNL1        0.2491
      6 O           7.2683   -5.1090   22.3371 O.2     1  UNL1       -0.2699
      7 C           5.2057   -2.0527   23.8051 C.3     1  UNL1        0.1152
      8 C           4.9940   -1.3522   25.1145 C.3     1  UNL1        0.1153
      9 N           5.7077   -1.8294   26.3445 N.am    1  UNL1       -0.2716
     10 C           5.4960   -1.1289   27.6538 C.2     1  UNL1        0.2883
     11 O           6.2097   -1.6061   28.8838 O.2     1  UNL1       -0.2664
     12 C           5.6291   -3.4539   21.1865 C.ar    1  UNL1        0.0536
     13 C           4.3138   -4.0619   20.7992 C.ar    1  UNL1        0.0045
     14 C           3.6001   -3.5846   19.5692 C.ar    1  UNL1        0.0001
     15 C           4.2017   -2.4993   18.7265 C.ar    1  UNL1        0.0000
     16 C           5.5171   -1.8913   19.1139 C.ar    1  UNL1        0.0001
     17 C           6.2308   -2.3686   20.3439 C.ar    1  UNL1        0.0045
     18 C           4.5705    0.0490   27.7332 C.2     1  UNL1        0.2502
     19 O           4.9157    1.3233   27.0213 O.2     1  UNL1       -0.2816
     20 C           3.2999   -0.0475   28.5245 C.2     1  UNL1        0.0653
     21 C           3.1572   -0.6423   29.8941 C.2     1  UNL1        0.1018
     22 N           1.7180   -0.5286   30.3012 N.2     1  UNL1       -0.2476
     23 C           0.9712    0.1365   29.1832 C.2     1  UNL1        0.0666
     24 C          -0.4728    0.5098   29.0232 C.3     1  UNL1        0.0927
     25 C          -0.9390    1.1804   27.7651 C.2     1  UNL1        0.0788
     26 N           0.0387    1.4777   26.6670 N.2     1  UNL1       -0.2465
     27 C           1.4826    1.1044   26.8270 C.2     1  UNL1        0.0998
     28 C           1.9489    0.4338   28.0851 C.2     1  UNL1        0.0378
@<TRIPOS>BOND
     1     2     1    1
     2     2     3    1
     3     3     4    1
     4     4     5   am
     5     5     6    2
     6     5    12    1
     7    12    13   ar
     8    13    14   ar
     9    14    15   ar
    10    15    16   ar
    11    16    17   ar
    12     4     7    1
    13     7     8    1
    14     8     9    1
    15     9    10   am
    16    10    11    2
    17    10    18    1
    18    18    19    2
    19    18    20    1
    20    20    21    2
    21    21    22    1
    22    22    23    2
    23    23    24    1
    24    24    25    1
    25    25    26    2
    26    26    27    1
    27    27    28    2
    28     9     2    1
    29    28    20    1
    30    17    12   ar
    31    28    23    1
@<TRIPOS>MOLECULE
*****
 28 31 0 0 0
SMALL
GASTEIGER

@<TRIPOS>ATOM
      1 C           2.8380    4.6503   20.2299 C.3     1  UNL1        0.0233
      2 C           2.6074    3.1775   20.3957 C.3     1  UNL1        0.0956
      3 C           3.6952    2.2043   20.0498 C.3     1  UNL1        0.1135
      4 N           3.4646    0.7315   20.2156 N.am    1  UNL1       -0.2726
      5 C           4.5525   -0.2416   19.8697 C.2     1  UNL1        0.2491
      6 O           5.8710    0.2582   19.3579 O.2     1  UNL1       -0.2699
      7 C           2.1462    0.2317   20.7274 C.3     1  UNL1        0.1152
      8 C           1.0584    1.2048   21.0733 C.3     1  UNL1        0.1153
      9 N           1.2890    2.6777   20.9075 N.am    1  UNL1       -0.2716
     10 C           0.2011    3.6508   21.2534 C.2     1  UNL1        0.2883
     11 O           0.4318    5.1236   21.0876 O.2     1  UNL1       -0.2664
     12 C           4.3219   -1.7144   20.0355 C.ar    1  UNL1        0.0536
     13 C           4.6119   -2.3757   21.3502 C.ar    1  UNL1        0.0045
     14 C           4.3813   -3.8485   21.5161 C.ar    1  UNL1        0.0001
     15 C           3.8606   -4.6602   20.3671 C.ar    1  UNL1        0.0000
     16 C           3.5706   -3.9989   19.0524 C.ar    1  UNL1        0.0001
     17 C           3.8012   -2.5261   18.8865 C.ar    1  UNL1        0.0045
     18 C          -1.1174    3.1510   21.7652 C.2     1  UNL1        0.2502
     19 O          -2.0952    2.5144   20.8226 O.2     1  UNL1       -0.2816
     20 C          -1.4580    3.2878   23.2196 C.2     1  UNL1        0.0653
     21 C          -0.5020    3.1432   24.3664 C.2     1  UNL1        0.1018
     22 N          -1.2676    3.3593   25.6381 N.2     1  UNL1       -0.2476
     23 C          -2.6967    3.6375   25.2772 C.2     1  UNL1        0.0666
     24 C          -3.9061    3.9254   26.1166 C.3     1  UNL1        0.0927
     25 C          -5.2331    4.1691   25.4612 C.2     1  UNL1        0.0788
     26 N          -5.3508    4.1250   23.9665 N.2     1  UNL1       -0.2465
     27 C          -4.1414    3.8371   23.1271 C.2     1  UNL1        0.0998
     28 C          -2.8144    3.5934   23.7825 C.2     1  UNL1        0.0378
@<TRIPOS>BOND
     1     2     1    1
     2     2     3    1
     3     3     4    1
     4     4     5   am
     5     5     6    2
     6     5    12    1
     7    12    13   ar
     8    13    14   ar
     9    14    15   ar
    10    15    16   ar
    11    16    17   ar
    12     4     7    1
    13     7     8    1
    14     8     9    1
    15     9    10   am
    16    10    11    2
    17    10    18    1
    18    18    19    2
    19    18    20    1
    20    20    21    2
    21    21    22    1
    22    22    23    2
    23    23    24    1
    24    24    25    1
    25    25    26    2
    26    26    27    1
    27    27    28    2
    28     9     2    1
    29    28    20    1
    30    17    12   ar
    31    28    23    1
@<TRIPOS>MOLECULE
*****
 28 31 0 0 0
SMALL
GASTEIGER

@<TRIPOS>ATOM
      1 C           1.5661    1.0806   25.8936 C.3     1  UNL1        0.0233
      2 C           1.9463    0.7744   24.4752 C.3     1  UNL1        0.0956
      3 C           2.8301   -0.3992   24.1724 C.3     1  UNL1        0.1135
      4 N           3.2103   -0.7054   22.7540 N.am    1  UNL1       -0.2726
      5 C           4.0941   -1.8790   22.4512 C.2     1  UNL1        0.2491
      6 O           4.5976   -2.7464   23.5667 O.2     1  UNL1       -0.2699
      7 C           2.7069    0.1619   21.6386 C.3     1  UNL1        0.1152
      8 C           1.8231    1.3354   21.9415 C.3     1  UNL1        0.1153
      9 N           1.4429    1.6417   23.3598 N.am    1  UNL1       -0.2716
     10 C           0.5591    2.8152   23.6627 C.2     1  UNL1        0.2883
     11 O           0.1789    3.1215   25.0810 O.2     1  UNL1       -0.2664
     12 C           4.4743   -2.1853   21.0329 C.ar    1  UNL1        0.0536
     13 C           5.6364   -1.4799   20.3989 C.ar    1  UNL1        0.0045
     14 C           6.0166   -1.7861   18.9806 C.ar    1  UNL1        0.0001
     15 C           5.2348   -2.7978   18.1962 C.ar    1  UNL1        0.0000
     16 C           4.0727   -3.5031   18.8302 C.ar    1  UNL1        0.0001
     17 C           3.6925   -3.1969   20.2485 C.ar    1  UNL1        0.0045
     18 C           0.0556    3.6826   22.5471 C.2     1  UNL1        0.2502
     19 O           0.9291    4.7652   21.9862 O.2     1  UNL1       -0.2816
     20 C          -1.3214    3.4672   21.9927 C.2     1  UNL1        0.0653
     21 C          -1.6500    2.9859   20.6106 C.2     1  UNL1        0.1018
     22 N          -3.1433    2.9165   20.4867 N.2     1  UNL1       -0.2476
     23 C          -3.7376    3.3551   21.7923 C.2     1  UNL1        0.0666
     24 C          -5.1585    3.4884   22.2539 C.3     1  UNL1        0.0927
     25 C          -5.4535    3.9621   23.6462 C.2     1  UNL1        0.0788
     26 N          -4.3275    4.3025   24.5769 N.2     1  UNL1       -0.2465
     27 C          -2.9065    4.1691   24.1154 C.2     1  UNL1        0.0998
     28 C          -2.6116    3.6954   22.7231 C.2     1  UNL1        0.0378
@<TRIPOS>BOND
     1     2     1    1
     2     2     3    1
     3     3     4    1
     4     4     5   am
     5     5     6    2
     6     5    12    1
     7    12    13   ar
     8    13    14   ar
     9    14    15   ar
    10    15    16   ar
    11    16    17   ar
    12     4     7    1
    13     7     8    1
    14     8     9    1
    15     9    10   am
    16    10    11    2
    17    10    18    1
    18    18    19    2
    19    18    20    1
    20    20    21    2
    21    21    22    1
    22    22    23    2
    23    23    24    1
    24    24    25    1
    25    25    26    2
    26    26    27    1
    27    27    28    2
    28     9     2    1
    29    28    20    1
    30    17    12   ar
    31    28    23    1
