@<TRIPOS>MOLECULE
*****
 32 35 0 0 0
SMALL
GASTEIGER

@<TRIPOS>ATOM
      1 C          -7.4864  -19.6689   20.7477 C.ar    1  UNL1        0.1488
      2 C          -8.4578  -19.7012   19.6052 C.ar    1  UNL1        0.0390
      3 C          -9.7625  -18.9686   19.7092 C.ar    1  UNL1        0.0417
      4 C         -10.0958  -18.2036   20.9557 C.ar    1  UNL1        0.1640
      5 N         -11.2956  -17.3912   21.3441 N.ar    1  UNL1       -0.2234
      6 C         -11.0656  -16.8569   22.7267 C.ar    1  UNL1        0.1197
      7 C          -9.7237  -17.3390   23.1927 C.ar    1  UNL1        0.1036
      8 N          -9.1244  -18.1713   22.0982 N.ar    1  UNL1       -0.2096
      9 N          -7.8197  -18.9039   21.9942 N.ar    1  UNL1       -0.1489
     10 C          -9.0921  -17.0410   24.5202 C.ar    1  UNL1        0.0192
     11 C          -9.6945  -17.5929   25.7782 C.ar    1  UNL1        0.0015
     12 C          -9.0629  -17.2950   27.1057 C.ar    1  UNL1       -0.0000
     13 C          -7.8289  -16.4452   27.1753 C.ar    1  UNL1        0.0039
     14 C          -7.2264  -15.8933   25.9173 C.ar    1  UNL1        0.0715
     15 C          -7.8581  -16.1912   24.5898 C.ar    1  UNL1        0.0054
     16 C          -5.9923  -15.0434   25.9869 C.3     1  UNL1        0.4186
     17 F          -4.7582  -14.1936   26.0565 F       1  UNL1       -0.1659
     18 F          -6.2561  -14.7794   27.4397 F       1  UNL1       -0.1659
     19 F          -5.7286  -15.3075   24.5341 F       1  UNL1       -0.1659
     20 N          -6.1815  -20.4016   20.6437 N.pl3   1  UNL1       -0.3184
     21 H          -6.1706  -21.3855   20.6132 H       1  UNL1        0.1482
     22 C          -2.3173  -18.1020   20.4716 C.3     1  UNL1        0.0248
     23 C          -3.2230  -18.1371   19.2765 C.3     1  UNL1        0.0040
     24 C          -4.5112  -18.9036   19.3338 C.3     1  UNL1        0.0196
     25 C          -4.8935  -19.6351   20.5864 C.3     1  UNL1        0.0704
     26 C          -3.9877  -19.6000   21.7815 C.3     1  UNL1        0.0196
     27 C          -2.6996  -18.8334   21.7241 C.3     1  UNL1        0.0040
     28 C          -1.6071  -16.2961   21.3284 C.3     1  UNL1        0.0293
     29 C          -1.0293  -17.3355   20.4142 C.3     1  UNL1        0.0884
     30 C          -0.4515  -18.3749   19.5001 C.3     1  UNL1        0.0293
     31 O           0.2589  -16.5690   20.3568 O.3     1  UNL1       -0.3867
     32 H           0.1843  -15.7700   20.9018 H       1  UNL1        0.2102
@<TRIPOS>BOND
     1    28    29    1
     2    29    30    1
     3    29    31    1
     4    22    29    1
     5    22    23    1
     6    23    24    1
     7    24    25    1
     8    25    20    1
     9    20     1    1
    10     1     2   ar
    11     2     3   ar
    12     3     4   ar
    13     4     5   ar
    14     5     6   ar
    15     6     7   ar
    16     7    10    1
    17    10    11   ar
    18    11    12   ar
    19    12    13   ar
    20    13    14   ar
    21    14    16    1
    22    16    17    1
    23    16    18    1
    24    16    19    1
    25    14    15   ar
    26     7     8   ar
    27     8     9   ar
    28    25    26    1
    29    26    27    1
    30    27    22    1
    31     9     1   ar
    32     8     4   ar
    33    15    10   ar
    34    31    32    1
    35    20    21    1
@<TRIPOS>MOLECULE
*****
 32 35 0 0 0
SMALL
GASTEIGER

@<TRIPOS>ATOM
      1 C          -6.0691  -19.7479   20.4041 C.ar    1  UNL1        0.1488
      2 C          -4.8493  -20.3604   19.7822 C.ar    1  UNL1        0.0390
      3 C          -3.4867  -20.0136   20.3045 C.ar    1  UNL1        0.0417
      4 C          -3.3439  -19.0542   21.4488 C.ar    1  UNL1        0.1640
      5 N          -2.1402  -18.5263   22.1717 N.ar    1  UNL1       -0.2234
      6 C          -2.6162  -17.5875   23.2404 C.ar    1  UNL1        0.1197
      7 C          -4.1140  -17.5352   23.1779 C.ar    1  UNL1        0.1036
      8 N          -4.5637  -18.4417   22.0706 N.ar    1  UNL1       -0.2096
      9 N          -5.9263  -18.7885   21.5483 N.ar    1  UNL1       -0.1489
     10 C          -5.0055  -16.7197   24.0667 C.ar    1  UNL1        0.0192
     11 C          -4.4263  -15.9841   25.2386 C.ar    1  UNL1        0.0015
     12 C          -5.3179  -15.1686   26.1274 C.ar    1  UNL1       -0.0000
     13 C          -6.7887  -15.0884   25.8443 C.ar    1  UNL1        0.0039
     14 C          -7.3679  -15.8240   24.6723 C.ar    1  UNL1        0.0715
     15 C          -6.4764  -16.6395   23.7836 C.ar    1  UNL1        0.0054
     16 C          -8.8389  -15.7439   24.3891 C.3     1  UNL1        0.4186
     17 F         -10.3097  -15.6638   24.1059 F       1  UNL1       -0.1659
     18 F          -8.6023  -16.2812   23.0088 F       1  UNL1       -0.1659
     19 F          -9.0754  -15.2066   25.7695 F       1  UNL1       -0.1659
     20 N          -7.4319  -20.0947   19.8817 N.pl3   1  UNL1       -0.3184
     21 H          -7.5227  -20.6371   19.0652 H       1  UNL1        0.1482
     22 C         -11.1048  -18.6555   22.0470 C.3     1  UNL1        0.0248
     23 C         -11.0303  -18.5610   20.5518 C.3     1  UNL1        0.0040
     24 C          -9.8060  -19.0407   19.8300 C.3     1  UNL1        0.0196
     25 C          -8.6561  -19.6150   20.6034 C.3     1  UNL1        0.0704
     26 C          -8.7307  -19.7095   22.0986 C.3     1  UNL1        0.0196
     27 C          -9.9550  -19.2298   22.8204 C.3     1  UNL1        0.0040
     28 C         -11.7566  -18.6660   24.0656 C.3     1  UNL1        0.0293
     29 C         -12.3291  -18.1758   22.7687 C.3     1  UNL1        0.0884
     30 C         -12.9016  -17.6857   21.4718 C.3     1  UNL1        0.0293
     31 O         -13.5535  -17.6961   23.4904 O.3     1  UNL1       -0.3867
     32 H         -13.4684  -17.8915   24.4367 H       1  UNL1        0.2102
@<TRIPOS>BOND
     1    28    29    1
     2    29    30    1
     3    29    31    1
     4    22    29    1
     5    22    23    1
     6    23    24    1
     7    24    25    1
     8    25    20    1
     9    20     1    1
    10     1     2   ar
    11     2     3   ar
    12     3     4   ar
    13     4     5   ar
    14     5     6   ar
    15     6     7   ar
    16     7    10    1
    17    10    11   ar
    18    11    12   ar
    19    12    13   ar
    20    13    14   ar
    21    14    16    1
    22    16    17    1
    23    16    18    1
    24    16    19    1
    25    14    15   ar
    26     7     8   ar
    27     8     9   ar
    28    25    26    1
    29    26    27    1
    30    27    22    1
    31     9     1   ar
    32     8     4   ar
    33    15    10   ar
    34    31    32    1
    35    20    21    1
@<TRIPOS>MOLECULE
*****
 32 35 0 0 0
SMALL
GASTEIGER

@<TRIPOS>ATOM
      1 C          -7.2439  -19.9652   20.1413 C.ar    1  UNL1        0.1488
      2 C          -8.3450  -20.3303   19.1904 C.ar    1  UNL1        0.0390
      3 C          -9.6743  -19.6415   19.2822 C.ar    1  UNL1        0.0417
      4 C          -9.9025  -18.5876   20.3249 C.ar    1  UNL1        0.1640
      5 N         -11.0980  -17.7434   20.6539 N.ar    1  UNL1       -0.2234
      6 C         -10.7357  -16.8566   21.8082 C.ar    1  UNL1        0.1197
      7 C          -9.3163  -17.1527   22.1925 C.ar    1  UNL1        0.1036
      8 N          -8.8014  -18.2225   21.2758 N.ar    1  UNL1       -0.2096
      9 N          -7.4721  -18.9113   21.1840 N.ar    1  UNL1       -0.1489
     10 C          -8.5469  -16.4946   23.2992 C.ar    1  UNL1        0.0192
     11 C          -7.3508  -15.6474   22.9804 C.ar    1  UNL1        0.0015
     12 C          -6.5814  -14.9893   24.0872 C.ar    1  UNL1       -0.0000
     13 C          -7.0081  -15.1782   25.5127 C.ar    1  UNL1        0.0039
     14 C          -8.2043  -16.0254   25.8315 C.ar    1  UNL1        0.0715
     15 C          -8.9736  -16.6835   24.7248 C.ar    1  UNL1        0.0054
     16 C          -8.6310  -16.2144   27.2571 C.3     1  UNL1        0.4186
     17 F          -9.0578  -16.4033   28.6826 F       1  UNL1       -0.1659
     18 F          -8.3106  -14.7773   27.5435 F       1  UNL1       -0.1659
     19 F          -8.9515  -17.6514   26.9707 F       1  UNL1       -0.1659
     20 N          -5.9145  -20.6541   20.0495 N.pl3   1  UNL1       -0.3184
     21 H          -5.8730  -21.6328   19.9518 H       1  UNL1        0.1482
     22 C          -2.1164  -18.2469   20.2211 C.3     1  UNL1        0.0248
     23 C          -3.2207  -17.8401   19.2911 C.3     1  UNL1        0.0040
     24 C          -4.4868  -18.6425   19.2339 C.3     1  UNL1        0.0196
     25 C          -4.6485  -19.8517   20.1067 C.3     1  UNL1        0.0704
     26 C          -3.5441  -20.2584   21.0368 C.3     1  UNL1        0.0196
     27 C          -2.2781  -19.4560   21.0939 C.3     1  UNL1        0.0040
     28 C          -1.5266  -16.4407   21.1644 C.3     1  UNL1        0.0293
     29 C          -0.8504  -17.4445   20.2783 C.3     1  UNL1        0.0884
     30 C          -0.1742  -18.4482   19.3921 C.3     1  UNL1        0.0293
     31 O           0.4157  -16.6421   20.3354 O.3     1  UNL1       -0.3867
     32 H           0.2764  -15.8571   20.8880 H       1  UNL1        0.2102
@<TRIPOS>BOND
     1    28    29    1
     2    29    30    1
     3    29    31    1
     4    22    29    1
     5    22    23    1
     6    23    24    1
     7    24    25    1
     8    25    20    1
     9    20     1    1
    10     1     2   ar
    11     2     3   ar
    12     3     4   ar
    13     4     5   ar
    14     5     6   ar
    15     6     7   ar
    16     7    10    1
    17    10    11   ar
    18    11    12   ar
    19    12    13   ar
    20    13    14   ar
    21    14    16    1
    22    16    17    1
    23    16    18    1
    24    16    19    1
    25    14    15   ar
    26     7     8   ar
    27     8     9   ar
    28    25    26    1
    29    26    27    1
    30    27    22    1
    31     9     1   ar
    32     8     4   ar
    33    15    10   ar
    34    31    32    1
    35    20    21    1
@<TRIPOS>MOLECULE
*****
 32 35 0 0 0
SMALL
GASTEIGER

@<TRIPOS>ATOM
      1 C          -6.6765  -15.9751   24.3057 C.ar    1  UNL1        0.1488
      2 C          -7.6414  -15.2591   25.2037 C.ar    1  UNL1        0.0390
      3 C          -9.1179  -15.4531   25.0245 C.ar    1  UNL1        0.0417
      4 C          -9.6296  -16.3630   23.9474 C.ar    1  UNL1        0.1640
      5 N         -11.0196  -16.7479   23.5351 N.ar    1  UNL1       -0.2234
      6 C         -10.9137  -17.7017   22.3823 C.ar    1  UNL1        0.1197
      7 C          -9.4584  -17.9063   22.0821 C.ar    1  UNL1        0.1036
      8 N          -8.6648  -17.0790   23.0494 N.ar    1  UNL1       -0.2096
      9 N          -7.1882  -16.8850   23.2286 N.ar    1  UNL1       -0.1489
     10 C          -8.8954  -18.7842   21.0040 C.ar    1  UNL1        0.0192
     11 C          -9.7529  -19.1874   19.8411 C.ar    1  UNL1        0.0015
     12 C          -9.1899  -20.0653   18.7630 C.ar    1  UNL1       -0.0000
     13 C          -7.7696  -20.5400   18.8476 C.ar    1  UNL1        0.0039
     14 C          -6.9121  -20.1367   20.0104 C.ar    1  UNL1        0.0715
     15 C          -7.4751  -19.2589   21.0886 C.ar    1  UNL1        0.0054
     16 C          -5.4917  -20.6114   20.0951 C.3     1  UNL1        0.4186
     17 F          -4.0713  -21.0861   20.1798 F       1  UNL1       -0.1659
     18 F          -5.9737  -22.0023   20.3834 F       1  UNL1       -0.1659
     19 F          -5.0097  -19.2205   19.8068 F       1  UNL1       -0.1659
     20 N          -5.1999  -15.7812   24.4848 N.pl3   1  UNL1       -0.3184
     21 H          -4.8621  -15.2336   25.2300 H       1  UNL1        0.1482
     22 C          -2.3139  -17.7024   21.6161 C.3     1  UNL1        0.0248
     23 C          -2.4143  -16.2076   21.6905 C.3     1  UNL1        0.0040
     24 C          -3.3763  -15.5672   22.6467 C.3     1  UNL1        0.0196
     25 C          -4.2379  -16.4215   23.5286 C.3     1  UNL1        0.0704
     26 C          -4.1375  -17.9164   23.4541 C.3     1  UNL1        0.0196
     27 C          -3.1755  -18.5567   22.4979 C.3     1  UNL1        0.0040
     28 C          -0.8868  -16.9864   20.2194 C.3     1  UNL1        0.0293
     29 C          -1.3519  -18.3427   20.6598 C.3     1  UNL1        0.0884
     30 C          -1.8170  -19.6991   21.1002 C.3     1  UNL1        0.0293
     31 O          -0.3899  -18.9832   19.7035 O.3     1  UNL1       -0.3867
     32 H           0.1011  -18.2943   19.2289 H       1  UNL1        0.2102
@<TRIPOS>BOND
     1    28    29    1
     2    29    30    1
     3    29    31    1
     4    22    29    1
     5    22    23    1
     6    23    24    1
     7    24    25    1
     8    25    20    1
     9    20     1    1
    10     1     2   ar
    11     2     3   ar
    12     3     4   ar
    13     4     5   ar
    14     5     6   ar
    15     6     7   ar
    16     7    10    1
    17    10    11   ar
    18    11    12   ar
    19    12    13   ar
    20    13    14   ar
    21    14    16    1
    22    16    17    1
    23    16    18    1
    24    16    19    1
    25    14    15   ar
    26     7     8   ar
    27     8     9   ar
    28    25    26    1
    29    26    27    1
    30    27    22    1
    31     9     1   ar
    32     8     4   ar
    33    15    10   ar
    34    31    32    1
    35    20    21    1
@<TRIPOS>MOLECULE
*****
 32 35 0 0 0
SMALL
GASTEIGER

@<TRIPOS>ATOM
      1 C          -5.0888  -16.8281   24.5198 C.ar    1  UNL1        0.1488
      2 C          -5.2930  -15.8812   25.6650 C.ar    1  UNL1        0.0390
      3 C          -6.6441  -15.2759   25.9059 C.ar    1  UNL1        0.0417
      4 C          -7.7910  -15.6175   25.0015 C.ar    1  UNL1        0.1640
      5 N          -9.2258  -15.1800   24.9911 N.ar    1  UNL1       -0.2234
      6 C          -9.9083  -15.8566   23.8394 C.ar    1  UNL1        0.1197
      7 C          -8.8953  -16.7122   23.1381 C.ar    1  UNL1        0.1036
      8 N          -7.5868  -16.5644   23.8563 N.ar    1  UNL1       -0.2096
      9 N          -6.2357  -17.1697   23.6154 N.ar    1  UNL1       -0.1489
     10 C          -9.1468  -17.5658   21.9305 C.ar    1  UNL1        0.0192
     11 C         -10.4043  -17.3851   21.1330 C.ar    1  UNL1        0.0015
     12 C         -10.6557  -18.2386   19.9254 C.ar    1  UNL1       -0.0000
     13 C          -9.6498  -19.2729   19.5154 C.ar    1  UNL1        0.0039
     14 C          -8.3923  -19.4536   20.3129 C.ar    1  UNL1        0.0715
     15 C          -8.1408  -18.6001   21.5205 C.ar    1  UNL1        0.0054
     16 C          -7.3862  -20.4880   19.9029 C.3     1  UNL1        0.4186
     17 F          -6.3802  -21.5223   19.4928 F       1  UNL1       -0.1659
     18 F          -8.2308  -20.8381   18.7138 F       1  UNL1       -0.1659
     19 F          -6.5416  -20.1378   21.0920 F       1  UNL1       -0.1659
     20 N          -3.7376  -17.4335   24.2789 N.pl3   1  UNL1       -0.3184
     21 H          -3.2127  -17.7826   25.0351 H       1  UNL1        0.1482
     22 C          -2.0835  -17.6538   20.0998 C.3     1  UNL1        0.0248
     23 C          -2.8712  -18.8026   20.6561 C.3     1  UNL1        0.0040
     24 C          -3.4226  -18.7292   22.0492 C.3     1  UNL1        0.0196
     25 C          -3.1862  -17.5069   22.8859 C.3     1  UNL1        0.0704
     26 C          -2.3984  -16.3580   22.3295 C.3     1  UNL1        0.0196
     27 C          -1.8471  -16.4315   20.9365 C.3     1  UNL1        0.0040
     28 C          -0.2152  -18.1938   19.2526 C.3     1  UNL1        0.0293
     29 C          -1.5321  -17.7272   18.7067 C.3     1  UNL1        0.0884
     30 C          -2.8490  -17.2606   18.1609 C.3     1  UNL1        0.0293
     31 O          -0.9807  -17.8007   17.3136 O.3     1  UNL1       -0.3867
     32 H          -0.0590  -18.1010   17.3461 H       1  UNL1        0.2102
@<TRIPOS>BOND
     1    28    29    1
     2    29    30    1
     3    29    31    1
     4    22    29    1
     5    22    23    1
     6    23    24    1
     7    24    25    1
     8    25    20    1
     9    20     1    1
    10     1     2   ar
    11     2     3   ar
    12     3     4   ar
    13     4     5   ar
    14     5     6   ar
    15     6     7   ar
    16     7    10    1
    17    10    11   ar
    18    11    12   ar
    19    12    13   ar
    20    13    14   ar
    21    14    16    1
    22    16    17    1
    23    16    18    1
    24    16    19    1
    25    14    15   ar
    26     7     8   ar
    27     8     9   ar
    28    25    26    1
    29    26    27    1
    30    27    22    1
    31     9     1   ar
    32     8     4   ar
    33    15    10   ar
    34    31    32    1
    35    20    21    1
@<TRIPOS>MOLECULE
*****
 32 35 0 0 0
SMALL
GASTEIGER

@<TRIPOS>ATOM
      1 C          -3.6531  -17.6091   22.2483 C.ar    1  UNL1        0.1488
      2 C          -2.3920  -18.3205   21.8567 C.ar    1  UNL1        0.0390
      3 C          -2.4627  -19.5819   21.0482 C.ar    1  UNL1        0.0417
      4 C          -3.7945  -20.1320   20.6313 C.ar    1  UNL1        0.1640
      5 N          -4.1748  -21.3466   19.8374 N.ar    1  UNL1       -0.2234
      6 C          -5.6710  -21.3858   19.7384 C.ar    1  UNL1        0.1197
      7 C          -6.2153  -20.1954   20.4711 C.ar    1  UNL1        0.1036
      8 N          -5.0556  -19.4206   21.0229 N.ar    1  UNL1       -0.2096
      9 N          -4.9849  -18.1591   21.8314 N.ar    1  UNL1       -0.1489
     10 C          -7.6650  -19.8420   20.6249 C.ar    1  UNL1        0.0192
     11 C          -8.5446  -19.7399   19.4142 C.ar    1  UNL1        0.0015
     12 C          -9.9942  -19.3865   19.5681 C.ar    1  UNL1       -0.0000
     13 C         -10.5643  -19.1351   20.9325 C.ar    1  UNL1        0.0039
     14 C          -9.6846  -19.2372   22.1432 C.ar    1  UNL1        0.0715
     15 C          -8.2350  -19.5906   21.9894 C.ar    1  UNL1        0.0054
     16 C         -10.2546  -18.9858   23.5078 C.3     1  UNL1        0.4186
     17 F         -10.8246  -18.7345   24.8723 F       1  UNL1       -0.1659
     18 F         -11.0730  -20.2379   23.3965 F       1  UNL1       -0.1659
     19 F          -9.4361  -17.7338   23.6191 F       1  UNL1       -0.1659
     20 N          -3.5825  -16.3475   23.0568 N.pl3   1  UNL1       -0.3184
     21 H          -2.8241  -15.7306   22.9412 H       1  UNL1        0.1482
     22 C          -6.8373  -15.3832   26.0108 C.3     1  UNL1        0.0248
     23 C          -5.5535  -15.9982   26.4836 C.3     1  UNL1        0.0040
     24 C          -4.4685  -16.3197   25.4990 C.3     1  UNL1        0.0196
     25 C          -4.6674  -16.0261   24.0415 C.3     1  UNL1        0.0704
     26 C          -5.9513  -15.4110   23.5687 C.3     1  UNL1        0.0196
     27 C          -7.0362  -15.0896   24.5534 C.3     1  UNL1        0.0040
     28 C          -8.9579  -15.4170   25.9703 C.3     1  UNL1        0.0293
     29 C          -7.9222  -15.0618   26.9955 C.3     1  UNL1        0.0884
     30 C          -6.8865  -14.7066   28.0207 C.3     1  UNL1        0.0293
     31 O          -9.0071  -14.7403   27.9803 O.3     1  UNL1       -0.3867
     32 H          -9.8725  -14.8876   27.5675 H       1  UNL1        0.2102
@<TRIPOS>BOND
     1    28    29    1
     2    29    30    1
     3    29    31    1
     4    22    29    1
     5    22    23    1
     6    23    24    1
     7    24    25    1
     8    25    20    1
     9    20     1    1
    10     1     2   ar
    11     2     3   ar
    12     3     4   ar
    13     4     5   ar
    14     5     6   ar
    15     6     7   ar
    16     7    10    1
    17    10    11   ar
    18    11    12   ar
    19    12    13   ar
    20    13    14   ar
    21    14    16    1
    22    16    17    1
    23    16    18    1
    24    16    19    1
    25    14    15   ar
    26     7     8   ar
    27     8     9   ar
    28    25    26    1
    29    26    27    1
    30    27    22    1
    31     9     1   ar
    32     8     4   ar
    33    15    10   ar
    34    31    32    1
    35    20    21    1
@<TRIPOS>MOLECULE
*****
 32 35 0 0 0
SMALL
GASTEIGER

@<TRIPOS>ATOM
      1 C         -12.6246   -7.2139   16.7749 C.ar    1  UNL1        0.1488
      2 C         -11.4153   -8.0649   17.0265 C.ar    1  UNL1        0.0390
      3 C         -10.2447   -7.5014   17.7762 C.ar    1  UNL1        0.0417
      4 C         -10.2834   -6.0871   18.2743 C.ar    1  UNL1        0.1640
      5 N          -9.2881   -5.2641   19.0373 N.ar    1  UNL1       -0.2234
      6 C          -9.8824   -3.9045   19.2572 C.ar    1  UNL1        0.1197
      7 C         -11.2449   -3.8873   18.6302 C.ar    1  UNL1        0.1036
      8 N         -11.4928   -5.2362   18.0227 N.ar    1  UNL1       -0.2096
      9 N         -12.6634   -5.7996   17.2730 N.ar    1  UNL1       -0.1489
     10 C         -12.1932   -2.7252   18.6135 C.ar    1  UNL1        0.0192
     11 C         -11.7356   -1.3911   18.1026 C.ar    1  UNL1        0.0015
     12 C         -12.6839   -0.2290   18.0859 C.ar    1  UNL1       -0.0000
     13 C         -14.0897   -0.4008   18.5801 C.ar    1  UNL1        0.0039
     14 C         -14.5472   -1.7349   19.0909 C.ar    1  UNL1        0.0715
     15 C         -13.5989   -2.8970   19.1076 C.ar    1  UNL1        0.0054
     16 C         -15.9531   -1.9068   19.5851 C.3     1  UNL1        0.4186
     17 F         -17.3588   -2.0788   20.0792 F       1  UNL1       -0.1659
     18 F         -16.1173   -3.1068   18.7001 F       1  UNL1       -0.1659
     19 F         -15.7888   -0.7069   20.4700 F       1  UNL1       -0.1659
     20 N         -13.7953   -7.7774   16.0251 N.pl3   1  UNL1       -0.3184
     21 H         -13.7528   -7.8736   15.0462 H       1  UNL1        0.1482
     22 C         -17.5015   -9.0278   18.2501 C.3     1  UNL1        0.0248
     23 C         -17.6127   -8.1352   17.0498 C.3     1  UNL1        0.0040
     24 C         -16.3773   -7.7183   16.3081 C.3     1  UNL1        0.0196
     25 C         -15.0307   -8.1942   16.7667 C.3     1  UNL1        0.0704
     26 C         -14.9196   -9.0869   17.9671 C.3     1  UNL1        0.0196
     27 C         -16.1549   -9.5037   18.7087 C.3     1  UNL1        0.0040
     28 C         -19.0810  -10.3956   17.8839 C.3     1  UNL1        0.0293
     29 C         -18.7369   -9.4447   18.9917 C.3     1  UNL1        0.0884
     30 C         -18.3927   -8.4937   20.0995 C.3     1  UNL1        0.0293
     31 O         -19.9723   -9.8615   19.7334 O.3     1  UNL1       -0.3867
     32 H         -20.4485  -10.5311   19.2179 H       1  UNL1        0.2102
@<TRIPOS>BOND
     1    28    29    1
     2    29    30    1
     3    29    31    1
     4    22    29    1
     5    22    23    1
     6    23    24    1
     7    24    25    1
     8    25    20    1
     9    20     1    1
    10     1     2   ar
    11     2     3   ar
    12     3     4   ar
    13     4     5   ar
    14     5     6   ar
    15     6     7   ar
    16     7    10    1
    17    10    11   ar
    18    11    12   ar
    19    12    13   ar
    20    13    14   ar
    21    14    16    1
    22    16    17    1
    23    16    18    1
    24    16    19    1
    25    14    15   ar
    26     7     8   ar
    27     8     9   ar
    28    25    26    1
    29    26    27    1
    30    27    22    1
    31     9     1   ar
    32     8     4   ar
    33    15    10   ar
    34    31    32    1
    35    20    21    1
@<TRIPOS>MOLECULE
*****
 32 35 0 0 0
SMALL
GASTEIGER

@<TRIPOS>ATOM
      1 C         -12.5503   -6.8189   18.8884 C.ar    1  UNL1        0.1488
      2 C         -11.0665   -6.7364   18.6845 C.ar    1  UNL1        0.0390
      3 C         -10.3877   -5.3993   18.6481 C.ar    1  UNL1        0.0417
      4 C         -11.1927   -4.1447   18.8154 C.ar    1  UNL1        0.1640
      5 N         -10.8034   -2.6961   18.8243 N.ar    1  UNL1       -0.2234
      6 C         -12.0467   -1.8834   19.0336 C.ar    1  UNL1        0.1197
      7 C         -13.2043   -2.8297   19.1541 C.ar    1  UNL1        0.1036
      8 N         -12.6765   -4.2272   19.0193 N.ar    1  UNL1       -0.2096
      9 N         -13.3553   -5.5643   19.0557 N.ar    1  UNL1       -0.1489
     10 C         -14.6379   -2.4458   19.3713 C.ar    1  UNL1        0.0192
     11 C         -15.0223   -0.9983   19.4555 C.ar    1  UNL1        0.0015
     12 C         -16.4560   -0.6144   19.6727 C.ar    1  UNL1       -0.0000
     13 C         -17.5054   -1.6780   19.8057 C.ar    1  UNL1        0.0039
     14 C         -17.1210   -3.1254   19.7215 C.ar    1  UNL1        0.0715
     15 C         -15.6873   -3.5093   19.5043 C.ar    1  UNL1        0.0054
     16 C         -18.1703   -4.1891   19.8546 C.3     1  UNL1        0.4186
     17 F         -19.2196   -5.2527   19.9876 F       1  UNL1       -0.1659
     18 F         -17.2186   -5.1991   19.2855 F       1  UNL1       -0.1659
     19 F         -19.1221   -3.1789   20.4237 F       1  UNL1       -0.1659
     20 N         -13.2291   -8.1561   18.9248 N.pl3   1  UNL1       -0.3184
     21 H         -12.7288   -8.9545   19.2102 H       1  UNL1        0.1482
     22 C         -17.5524   -8.5179   17.7298 C.3     1  UNL1        0.0248
     23 C         -17.1681   -8.5685   19.1788 C.3     1  UNL1        0.0040
     24 C         -15.7270   -8.4479   19.5772 C.3     1  UNL1        0.0196
     25 C         -14.6702   -8.2767   18.5265 C.3     1  UNL1        0.0704
     26 C         -15.0546   -8.2261   17.0774 C.3     1  UNL1        0.0196
     27 C         -16.4957   -8.3467   16.6791 C.3     1  UNL1        0.0040
     28 C         -19.1012   -7.1438   17.2686 C.3     1  UNL1        0.0293
     29 C         -18.9935   -8.6385   17.3315 C.3     1  UNL1        0.0884
     30 C         -18.8858  -10.1333   17.3944 C.3     1  UNL1        0.0293
     31 O         -20.4347   -8.7592   16.9332 O.3     1  UNL1       -0.3867
     32 H         -20.8110   -7.8738   16.8089 H       1  UNL1        0.2102
@<TRIPOS>BOND
     1    28    29    1
     2    29    30    1
     3    29    31    1
     4    22    29    1
     5    22    23    1
     6    23    24    1
     7    24    25    1
     8    25    20    1
     9    20     1    1
    10     1     2   ar
    11     2     3   ar
    12     3     4   ar
    13     4     5   ar
    14     5     6   ar
    15     6     7   ar
    16     7    10    1
    17    10    11   ar
    18    11    12   ar
    19    12    13   ar
    20    13    14   ar
    21    14    16    1
    22    16    17    1
    23    16    18    1
    24    16    19    1
    25    14    15   ar
    26     7     8   ar
    27     8     9   ar
    28    25    26    1
    29    26    27    1
    30    27    22    1
    31     9     1   ar
    32     8     4   ar
    33    15    10   ar
    34    31    32    1
    35    20    21    1
@<TRIPOS>MOLECULE
*****
 32 35 0 0 0
SMALL
GASTEIGER

@<TRIPOS>ATOM
      1 C          -3.4537  -17.8324   22.5514 C.ar    1  UNL1        0.1488
      2 C          -2.2755  -18.4502   21.8587 C.ar    1  UNL1        0.0390
      3 C          -2.4772  -19.6012   20.9182 C.ar    1  UNL1        0.0417
      4 C          -3.8572  -20.1343   20.6705 C.ar    1  UNL1        0.1640
      5 N          -4.3616  -21.2500   19.8039 N.ar    1  UNL1       -0.2234
      6 C          -5.8516  -21.3217   19.9612 C.ar    1  UNL1        0.1197
      7 C          -6.2681  -20.2504   20.9249 C.ar    1  UNL1        0.1036
      8 N          -5.0355  -19.5165   21.3633 N.ar    1  UNL1       -0.2096
      9 N          -4.8337  -18.3656   22.3037 N.ar    1  UNL1       -0.1489
     10 C          -7.6708  -19.9632   21.3718 C.ar    1  UNL1        0.0192
     11 C          -8.1326  -20.4106   22.7271 C.ar    1  UNL1        0.0015
     12 C          -9.5354  -20.1235   23.1740 C.ar    1  UNL1       -0.0000
     13 C         -10.4765  -19.3890   22.2657 C.ar    1  UNL1        0.0039
     14 C         -10.0147  -18.9417   20.9105 C.ar    1  UNL1        0.0715
     15 C          -8.6119  -19.2288   20.4636 C.ar    1  UNL1        0.0054
     16 C         -10.9558  -18.2072   20.0021 C.3     1  UNL1        0.4186
     17 F         -11.8968  -17.4727   19.0939 F       1  UNL1       -0.1659
     18 F         -11.0756  -17.1077   21.0154 F       1  UNL1       -0.1659
     19 F         -10.8359  -19.3067   18.9889 F       1  UNL1       -0.1659
     20 N          -3.2520  -16.6814   23.4920 N.pl3   1  UNL1       -0.3184
     21 H          -2.3862  -16.2135   23.5188 H       1  UNL1        0.1482
     22 C          -6.6044  -15.3670   26.1909 C.3     1  UNL1        0.0248
     23 C          -5.5042  -16.2332   26.7288 C.3     1  UNL1        0.0040
     24 C          -4.3867  -16.6714   25.8291 C.3     1  UNL1        0.0196
     25 C          -4.3695  -16.2433   24.3916 C.3     1  UNL1        0.0704
     26 C          -5.4697  -15.3770   23.8537 C.3     1  UNL1        0.0196
     27 C          -6.5871  -14.9389   24.7534 C.3     1  UNL1        0.0040
     28 C          -6.7317  -14.2495   27.9895 C.3     1  UNL1        0.0293
     29 C          -7.7218  -14.9289   27.0905 C.3     1  UNL1        0.0884
     30 C          -8.7119  -15.6082   26.1916 C.3     1  UNL1        0.0293
     31 O          -8.8393  -14.4908   27.9902 O.3     1  UNL1       -0.3867
     32 H          -8.4765  -13.9821   28.7322 H       1  UNL1        0.2102
@<TRIPOS>BOND
     1    28    29    1
     2    29    30    1
     3    29    31    1
     4    22    29    1
     5    22    23    1
     6    23    24    1
     7    24    25    1
     8    25    20    1
     9    20     1    1
    10     1     2   ar
    11     2     3   ar
    12     3     4   ar
    13     4     5   ar
    14     5     6   ar
    15     6     7   ar
    16     7    10    1
    17    10    11   ar
    18    11    12   ar
    19    12    13   ar
    20    13    14   ar
    21    14    16    1
    22    16    17    1
    23    16    18    1
    24    16    19    1
    25    14    15   ar
    26     7     8   ar
    27     8     9   ar
    28    25    26    1
    29    26    27    1
    30    27    22    1
    31     9     1   ar
    32     8     4   ar
    33    15    10   ar
    34    31    32    1
    35    20    21    1
