@<TRIPOS>MOLECULE
*****
 33 36 0 0 0
SMALL
GASTEIGER

@<TRIPOS>ATOM
      1 N           2.9057    1.8390   19.5637 N.pl3   1  UNL1       -0.2872
      2 C           3.9790   -2.4671   18.8181 C.ar    1  UNL1        0.0715
      3 C           3.2598   -2.0804   20.0764 C.ar    1  UNL1        0.0051
      4 C           2.9020   -0.6450   20.3249 C.ar    1  UNL1        0.0148
      5 C           3.2635    0.4037   19.3152 C.ar    1  UNL1        0.0515
      6 C           3.9827    0.0170   18.0569 C.ar    1  UNL1        0.0148
      7 C           4.3404   -1.4184   17.8084 C.ar    1  UNL1        0.0051
      8 F           4.6945   -5.3378   18.3211 F       1  UNL1       -0.1659
      9 C           4.3367   -3.9024   18.5696 C.3     1  UNL1        0.4186
     10 F           2.9704   -4.3218   19.0250 F       1  UNL1       -0.1659
     11 F           5.7030   -3.4830   18.1143 F       1  UNL1       -0.1659
     12 C           3.8939    2.9232   19.2510 C.ar    1  UNL1        0.0710
     13 C           3.7150    3.7707   18.0263 C.ar    1  UNL1        0.0180
     14 C           4.7033    4.8550   17.7137 C.ar    1  UNL1        0.0220
     15 C           5.8705    5.0917   18.6256 C.ar    1  UNL1        0.0990
     16 N           6.0494    4.2442   19.8502 N.ar    1  UNL1       -0.2410
     17 C           5.0612    3.1600   20.1629 C.ar    1  UNL1        0.1136
     18 C           1.5598    2.1902   20.1249 C.3     1  UNL1        0.0807
     19 C           1.3393    2.1778   21.6086 C.3     1  UNL1        0.0416
     20 C          -0.0066    2.5289   22.1699 C.3     1  UNL1        0.0939
     21 N          -1.1322    2.8925   21.2474 N.pl3   1  UNL1       -0.2931
     22 C          -0.9119    2.9049   19.7638 C.3     1  UNL1        0.0939
     23 C           0.4342    2.5537   19.2025 C.3     1  UNL1        0.0416
     24 C          -2.4783    3.2436   21.8087 C.ar    1  UNL1        0.1317
     25 C          -2.5828    3.8888   23.1588 C.ar    1  UNL1        0.0343
     26 C          -3.9287    4.2400   23.7200 C.ar    1  UNL1        0.0083
     27 C          -5.1702    3.9458   22.9312 C.ar    1  UNL1        0.0906
     28 C          -5.0657    3.3006   21.5811 C.ar    1  UNL1        0.1041
     29 N          -3.7197    2.9495   21.0199 N.ar    1  UNL1       -0.2292
     30 C          -6.5162    4.2970   23.4925 C.3     1  UNL1        0.4200
     31 F          -7.8622    4.6481   24.0538 F       1  UNL1       -0.1658
     32 F          -7.0544    4.4576   22.1016 F       1  UNL1       -0.1658
     33 F          -5.9781    4.1364   24.8834 F       1  UNL1       -0.1658
@<TRIPOS>BOND
     1     8     9    1
     2     9    10    1
     3     9    11    1
     4     9     2    1
     5     2     3   ar
     6     3     4   ar
     7     4     5   ar
     8     5     1    1
     9     1    12    1
    10    12    13   ar
    11    13    14   ar
    12    14    15   ar
    13    15    16   ar
    14    16    17   ar
    15     1    18    1
    16    18    19    1
    17    19    20    1
    18    20    21    1
    19    21    24    1
    20    24    25   ar
    21    25    26   ar
    22    26    27   ar
    23    27    30    1
    24    30    31    1
    25    30    32    1
    26    30    33    1
    27    27    28   ar
    28    28    29   ar
    29    21    22    1
    30    22    23    1
    31     5     6   ar
    32     6     7   ar
    33     7     2   ar
    34    17    12   ar
    35    23    18    1
    36    29    24   ar
@<TRIPOS>MOLECULE
*****
 33 36 0 0 0
SMALL
GASTEIGER

@<TRIPOS>ATOM
      1 N           3.2702    1.5017   19.5452 N.pl3   1  UNL1       -0.2872
      2 C           4.0845   -2.9022   19.1059 C.ar    1  UNL1        0.0715
      3 C           3.5803   -2.3592   20.4100 C.ar    1  UNL1        0.0051
      4 C           3.3089   -0.8912   20.5564 C.ar    1  UNL1        0.0148
      5 C           3.5416    0.0337   19.3987 C.ar    1  UNL1        0.0515
      6 C           4.0458   -0.5094   18.0946 C.ar    1  UNL1        0.0148
      7 C           4.3172   -1.9773   17.9481 C.ar    1  UNL1        0.0051
      8 F           4.6273   -5.8381   18.8130 F       1  UNL1       -0.1659
      9 C           4.3559   -4.3702   18.9594 C.3     1  UNL1        0.4186
     10 F           2.8945   -4.6174   18.7288 F       1  UNL1       -0.1659
     11 F           5.8173   -4.1230   19.1900 F       1  UNL1       -0.1659
     12 C           4.4118    2.4720   19.6159 C.ar    1  UNL1        0.0710
     13 C           4.9604    3.0777   18.3581 C.ar    1  UNL1        0.0180
     14 C           6.1021    4.0482   18.4289 C.ar    1  UNL1        0.0220
     15 C           6.6951    4.4129   19.7575 C.ar    1  UNL1        0.0990
     16 N           6.1465    3.8072   21.0154 N.ar    1  UNL1       -0.2410
     17 C           5.0049    2.8368   20.9446 C.ar    1  UNL1        0.1136
     18 C           1.8572    1.9992   19.6208 C.3     1  UNL1        0.0807
     19 C           1.0591    1.8030   20.8757 C.3     1  UNL1        0.0416
     20 C          -0.3539    2.3006   20.9514 C.3     1  UNL1        0.0939
     21 N          -0.9689    2.9944   19.7722 N.pl3   1  UNL1       -0.2931
     22 C          -0.1709    3.1906   18.5174 C.3     1  UNL1        0.0939
     23 C           1.2422    2.6930   18.4417 C.3     1  UNL1        0.0416
     24 C          -2.3820    3.4919   19.8480 C.ar    1  UNL1        0.1317
     25 C          -2.8396    4.5921   18.9368 C.ar    1  UNL1        0.0343
     26 C          -4.2526    5.0896   19.0125 C.ar    1  UNL1        0.0083
     27 C          -5.2080    4.4870   19.9995 C.ar    1  UNL1        0.0906
     28 C          -4.7504    3.3869   20.9106 C.ar    1  UNL1        0.1041
     29 N          -3.3374    2.8893   20.8349 N.ar    1  UNL1       -0.2292
     30 C          -6.6211    4.9846   20.0752 C.3     1  UNL1        0.4200
     31 F          -8.0341    5.4821   20.1509 F       1  UNL1       -0.1658
     32 F          -6.8522    4.1430   21.2951 F       1  UNL1       -0.1658
     33 F          -6.3901    5.8262   18.8553 F       1  UNL1       -0.1658
@<TRIPOS>BOND
     1     8     9    1
     2     9    10    1
     3     9    11    1
     4     9     2    1
     5     2     3   ar
     6     3     4   ar
     7     4     5   ar
     8     5     1    1
     9     1    12    1
    10    12    13   ar
    11    13    14   ar
    12    14    15   ar
    13    15    16   ar
    14    16    17   ar
    15     1    18    1
    16    18    19    1
    17    19    20    1
    18    20    21    1
    19    21    24    1
    20    24    25   ar
    21    25    26   ar
    22    26    27   ar
    23    27    30    1
    24    30    31    1
    25    30    32    1
    26    30    33    1
    27    27    28   ar
    28    28    29   ar
    29    21    22    1
    30    22    23    1
    31     5     6   ar
    32     6     7   ar
    33     7     2   ar
    34    17    12   ar
    35    23    18    1
    36    29    24   ar
@<TRIPOS>MOLECULE
*****
 33 36 0 0 0
SMALL
GASTEIGER

@<TRIPOS>ATOM
      1 N          -2.5179    3.9503   20.3557 N.pl3   1  UNL1       -0.2872
      2 C          -4.0175    4.1386   24.5943 C.ar    1  UNL1        0.0715
      3 C          -2.7966    4.9133   24.1956 C.ar    1  UNL1        0.0051
      4 C          -2.2967    4.8506   22.7827 C.ar    1  UNL1        0.0148
      5 C          -3.0178    4.0130   21.7685 C.ar    1  UNL1        0.0515
      6 C          -4.2387    3.2383   22.1673 C.ar    1  UNL1        0.0148
      7 C          -4.7386    3.3010   23.5801 C.ar    1  UNL1        0.0051
      8 F          -5.0172    4.2641   27.4200 F       1  UNL1       -0.1659
      9 C          -4.5174    4.2013   26.0071 C.3     1  UNL1        0.4186
     10 F          -3.2803    3.4945   26.4762 F       1  UNL1       -0.1659
     11 F          -5.7544    4.9082   25.5381 F       1  UNL1       -0.1659
     12 C          -3.2384    4.6955   19.2714 C.ar    1  UNL1        0.0710
     13 C          -4.2731    3.9961   18.4407 C.ar    1  UNL1        0.0180
     14 C          -4.9936    4.7414   17.3564 C.ar    1  UNL1        0.0220
     15 C          -4.6792    6.1860   17.1029 C.ar    1  UNL1        0.0990
     16 N          -3.6444    6.8854   17.9336 N.ar    1  UNL1       -0.2410
     17 C          -2.9240    6.1401   19.0179 C.ar    1  UNL1        0.1136
     18 C          -1.2976    3.1423   20.0270 C.3     1  UNL1        0.0807
     19 C          -0.7145    2.2142   21.0510 C.3     1  UNL1        0.0416
     20 C           0.5058    1.4062   20.7224 C.3     1  UNL1        0.0939
     21 N           1.1430    1.5263   19.3698 N.pl3   1  UNL1       -0.2931
     22 C           0.5599    2.4544   18.3458 C.3     1  UNL1        0.0939
     23 C          -0.6605    3.2624   18.6744 C.3     1  UNL1        0.0416
     24 C           2.3633    0.7183   19.0412 C.ar    1  UNL1        0.1317
     25 C           2.4941   -0.6852   19.5541 C.ar    1  UNL1        0.0343
     26 C           3.7144   -1.4931   19.2255 C.ar    1  UNL1        0.0083
     27 C           4.8039   -0.8976   18.3839 C.ar    1  UNL1        0.0906
     28 C           4.6732    0.5058   17.8710 C.ar    1  UNL1        0.1041
     29 N           3.4529    1.3138   18.1996 N.ar    1  UNL1       -0.2292
     30 C           6.0243   -1.7057   18.0553 C.3     1  UNL1        0.4200
     31 F           7.2446   -2.5136   17.7267 F       1  UNL1       -0.1658
     32 F           5.1584   -2.8957   17.7655 F       1  UNL1       -0.1658
     33 F           6.8902   -0.5157   18.3452 F       1  UNL1       -0.1658
@<TRIPOS>BOND
     1     8     9    1
     2     9    10    1
     3     9    11    1
     4     9     2    1
     5     2     3   ar
     6     3     4   ar
     7     4     5   ar
     8     5     1    1
     9     1    12    1
    10    12    13   ar
    11    13    14   ar
    12    14    15   ar
    13    15    16   ar
    14    16    17   ar
    15     1    18    1
    16    18    19    1
    17    19    20    1
    18    20    21    1
    19    21    24    1
    20    24    25   ar
    21    25    26   ar
    22    26    27   ar
    23    27    30    1
    24    30    31    1
    25    30    32    1
    26    30    33    1
    27    27    28   ar
    28    28    29   ar
    29    21    22    1
    30    22    23    1
    31     5     6   ar
    32     6     7   ar
    33     7     2   ar
    34    17    12   ar
    35    23    18    1
    36    29    24   ar
@<TRIPOS>MOLECULE
*****
 33 36 0 0 0
SMALL
GASTEIGER

@<TRIPOS>ATOM
      1 N           5.2614   -1.1303   31.9156 N.pl3   1  UNL1       -0.2872
      2 C           7.1997   -4.8329   30.2470 C.ar    1  UNL1        0.0715
      3 C           6.9129   -4.7335   31.7159 C.ar    1  UNL1        0.0051
      4 C           6.2668   -3.4993   32.2721 C.ar    1  UNL1        0.0148
      5 C           5.9075   -2.3645   31.3594 C.ar    1  UNL1        0.0515
      6 C           6.1944   -2.4639   29.8905 C.ar    1  UNL1        0.0148
      7 C           6.8405   -3.6981   29.3343 C.ar    1  UNL1        0.0051
      8 F           8.4919   -7.3012   29.1346 F       1  UNL1       -0.1659
      9 C           7.8458   -6.0670   29.6908 C.3     1  UNL1        0.4186
     10 F           7.3166   -5.7301   28.3283 F       1  UNL1       -0.1659
     11 F           8.3750   -6.4040   31.0533 F       1  UNL1       -0.1659
     12 C           5.6454   -0.6313   33.2770 C.ar    1  UNL1        0.0710
     13 C           4.7342   -0.8638   34.4456 C.ar    1  UNL1        0.0180
     14 C           5.1183   -0.3648   35.8070 C.ar    1  UNL1        0.0220
     15 C           6.4135    0.3669   35.9998 C.ar    1  UNL1        0.0990
     16 N           7.3247    0.5994   34.8312 N.ar    1  UNL1       -0.2410
     17 C           6.9407    0.1004   33.4698 C.ar    1  UNL1        0.1136
     18 C           4.2314   -0.3951   31.1103 C.3     1  UNL1        0.0807
     19 C           2.8993   -1.0290   30.8385 C.3     1  UNL1        0.0416
     20 C           1.8692   -0.2939   30.0333 C.3     1  UNL1        0.0939
     21 N           2.1711    1.0752   29.4999 N.pl3   1  UNL1       -0.2931
     22 C           3.5031    1.7091   29.7717 C.3     1  UNL1        0.0939
     23 C           4.5333    0.9739   30.5769 C.3     1  UNL1        0.0416
     24 C           1.1409    1.8103   28.6946 C.ar    1  UNL1        0.1317
     25 C           0.1560    1.0465   27.8601 C.ar    1  UNL1        0.0343
     26 C          -0.8741    1.7816   27.0549 C.ar    1  UNL1        0.0083
     27 C          -0.9192    3.2807   27.0842 C.ar    1  UNL1        0.0906
     28 C           0.0657    4.0445   27.9187 C.ar    1  UNL1        0.1041
     29 N           1.0958    3.3094   28.7239 N.ar    1  UNL1       -0.2292
     30 C          -1.9494    4.0158   26.2789 C.3     1  UNL1        0.4200
     31 F          -2.9795    4.7510   25.4738 F       1  UNL1       -0.1658
     32 F          -2.0238    2.8633   25.3218 F       1  UNL1       -0.1658
     33 F          -1.8750    5.1684   27.2360 F       1  UNL1       -0.1658
@<TRIPOS>BOND
     1     8     9    1
     2     9    10    1
     3     9    11    1
     4     9     2    1
     5     2     3   ar
     6     3     4   ar
     7     4     5   ar
     8     5     1    1
     9     1    12    1
    10    12    13   ar
    11    13    14   ar
    12    14    15   ar
    13    15    16   ar
    14    16    17   ar
    15     1    18    1
    16    18    19    1
    17    19    20    1
    18    20    21    1
    19    21    24    1
    20    24    25   ar
    21    25    26   ar
    22    26    27   ar
    23    27    30    1
    24    30    31    1
    25    30    32    1
    26    30    33    1
    27    27    28   ar
    28    28    29   ar
    29    21    22    1
    30    22    23    1
    31     5     6   ar
    32     6     7   ar
    33     7     2   ar
    34    17    12   ar
    35    23    18    1
    36    29    24   ar
@<TRIPOS>MOLECULE
*****
 33 36 0 0 0
SMALL
GASTEIGER

@<TRIPOS>ATOM
      1 N           2.4442    0.8417   23.5677 N.pl3   1  UNL1       -0.2872
      2 C           3.2511   -0.2028   19.2656 C.ar    1  UNL1        0.0715
      3 C           2.2265   -0.9728   20.0449 C.ar    1  UNL1        0.0051
      4 C           1.9576   -0.6246   21.4789 C.ar    1  UNL1        0.0148
      5 C           2.7132    0.4936   22.1337 C.ar    1  UNL1        0.0515
      6 C           3.7378    1.2635   21.3544 C.ar    1  UNL1        0.0148
      7 C           4.0067    0.9153   19.9204 C.ar    1  UNL1        0.0051
      8 F           3.7891   -0.8992   16.3976 F       1  UNL1       -0.1659
      9 C           3.5201   -0.5510   17.8316 C.3     1  UNL1        0.4186
     10 F           3.2861    0.8781   17.4407 F       1  UNL1       -0.1659
     11 F           3.7540   -1.9802   18.2225 F       1  UNL1       -0.1659
     12 C           3.4517    0.4984   24.6245 C.ar    1  UNL1        0.0710
     13 C           4.2881    1.5793   25.2428 C.ar    1  UNL1        0.0180
     14 C           5.2957    1.2359   26.2997 C.ar    1  UNL1        0.0220
     15 C           5.4668   -0.1883   26.7383 C.ar    1  UNL1        0.0990
     16 N           4.6305   -1.2691   26.1200 N.ar    1  UNL1       -0.2410
     17 C           3.6229   -0.9258   25.0632 C.ar    1  UNL1        0.1136
     18 C           1.1677    1.5332   23.9449 C.3     1  UNL1        0.0807
     19 C           0.5302    2.5022   22.9936 C.3     1  UNL1        0.0416
     20 C          -0.7463    3.1937   23.3708 C.3     1  UNL1        0.0939
     21 N          -1.3854    2.9163   24.6992 N.pl3   1  UNL1       -0.2931
     22 C          -0.7479    1.9474   25.6504 C.3     1  UNL1        0.0939
     23 C           0.5286    1.2559   25.2733 C.3     1  UNL1        0.0416
     24 C          -2.6620    3.6079   25.0764 C.ar    1  UNL1        0.1317
     25 C          -3.0885    3.6637   26.5133 C.ar    1  UNL1        0.0343
     26 C          -4.3650    4.3552   26.8904 C.ar    1  UNL1        0.0083
     27 C          -5.2150    4.9910   25.8305 C.ar    1  UNL1        0.0906
     28 C          -4.7885    4.9352   24.3936 C.ar    1  UNL1        0.1041
     29 N          -3.5120    4.2436   24.0165 N.ar    1  UNL1       -0.2292
     30 C          -6.4916    5.6825   26.2077 C.3     1  UNL1        0.4200
     31 F          -7.7681    6.3741   26.5848 F       1  UNL1       -0.1658
     32 F          -6.0653    5.6851   27.6458 F       1  UNL1       -0.1658
     33 F          -6.9178    5.6799   24.7696 F       1  UNL1       -0.1658
@<TRIPOS>BOND
     1     8     9    1
     2     9    10    1
     3     9    11    1
     4     9     2    1
     5     2     3   ar
     6     3     4   ar
     7     4     5   ar
     8     5     1    1
     9     1    12    1
    10    12    13   ar
    11    13    14   ar
    12    14    15   ar
    13    15    16   ar
    14    16    17   ar
    15     1    18    1
    16    18    19    1
    17    19    20    1
    18    20    21    1
    19    21    24    1
    20    24    25   ar
    21    25    26   ar
    22    26    27   ar
    23    27    30    1
    24    30    31    1
    25    30    32    1
    26    30    33    1
    27    27    28   ar
    28    28    29   ar
    29    21    22    1
    30    22    23    1
    31     5     6   ar
    32     6     7   ar
    33     7     2   ar
    34    17    12   ar
    35    23    18    1
    36    29    24   ar
@<TRIPOS>MOLECULE
*****
 33 36 0 0 0
SMALL
GASTEIGER

@<TRIPOS>ATOM
      1 N          -0.8879    3.3292   19.7700 N.pl3   1  UNL1       -0.2872
      2 C          -4.0419    3.6232   22.9661 C.ar    1  UNL1        0.0715
      3 C          -4.4418    3.4317   21.5332 C.ar    1  UNL1        0.0051
      4 C          -3.3904    3.3337   20.4678 C.ar    1  UNL1        0.0148
      5 C          -1.9392    3.4272   20.8354 C.ar    1  UNL1        0.0515
      6 C          -1.5394    3.6187   22.2683 C.ar    1  UNL1        0.0148
      7 C          -2.5907    3.7167   23.3337 C.ar    1  UNL1        0.0051
      8 F          -6.1447    3.8193   25.0969 F       1  UNL1       -0.1659
      9 C          -5.0933    3.7213   24.0315 C.3     1  UNL1        0.4186
     10 F          -4.0466    4.1250   25.0273 F       1  UNL1       -0.1659
     11 F          -6.1400    3.3175   23.0358 F       1  UNL1       -0.1659
     12 C          -0.9482    4.2293   18.5716 C.ar    1  UNL1        0.0710
     13 C          -0.9558    3.6413   17.1917 C.ar    1  UNL1        0.0180
     14 C          -1.0162    4.5415   15.9932 C.ar    1  UNL1        0.0220
     15 C          -1.0690    6.0295   16.1748 C.ar    1  UNL1        0.0990
     16 N          -1.0615    6.6174   17.5548 N.ar    1  UNL1       -0.2410
     17 C          -1.0011    5.7173   18.7532 C.ar    1  UNL1        0.1136
     18 C           0.2239    2.3311   19.9030 C.3     1  UNL1        0.0807
     19 C           1.6493    2.7703   19.7431 C.3     1  UNL1        0.0416
     20 C           2.7610    1.7722   19.8761 C.3     1  UNL1        0.0939
     21 N           2.4475    0.3348   20.1690 N.pl3   1  UNL1       -0.2931
     22 C           1.0222   -0.1044   20.3289 C.3     1  UNL1        0.0939
     23 C          -0.0896    0.8937   20.1959 C.3     1  UNL1        0.0416
     24 C           3.5594   -0.6633   20.3020 C.ar    1  UNL1        0.1317
     25 C           3.5559   -1.6429   21.4379 C.ar    1  UNL1        0.0343
     26 C           4.6678   -2.6409   21.5709 C.ar    1  UNL1        0.0083
     27 C           5.7830   -2.6594   20.5679 C.ar    1  UNL1        0.0906
     28 C           5.7864   -1.6798   19.4320 C.ar    1  UNL1        0.1041
     29 N           4.6746   -0.6817   19.2991 N.ar    1  UNL1       -0.2292
     30 C           6.8948   -3.6575   20.7009 C.3     1  UNL1        0.4200
     31 F           8.0067   -4.6555   20.8339 F       1  UNL1       -0.1658
     32 F           6.2635   -4.1943   21.9512 F       1  UNL1       -0.1658
     33 F           7.5262   -3.1207   19.4506 F       1  UNL1       -0.1658
@<TRIPOS>BOND
     1     8     9    1
     2     9    10    1
     3     9    11    1
     4     9     2    1
     5     2     3   ar
     6     3     4   ar
     7     4     5   ar
     8     5     1    1
     9     1    12    1
    10    12    13   ar
    11    13    14   ar
    12    14    15   ar
    13    15    16   ar
    14    16    17   ar
    15     1    18    1
    16    18    19    1
    17    19    20    1
    18    20    21    1
    19    21    24    1
    20    24    25   ar
    21    25    26   ar
    22    26    27   ar
    23    27    30    1
    24    30    31    1
    25    30    32    1
    26    30    33    1
    27    27    28   ar
    28    28    29   ar
    29    21    22    1
    30    22    23    1
    31     5     6   ar
    32     6     7   ar
    33     7     2   ar
    34    17    12   ar
    35    23    18    1
    36    29    24   ar
@<TRIPOS>MOLECULE
*****
 33 36 0 0 0
SMALL
GASTEIGER

@<TRIPOS>ATOM
      1 N           2.2088    1.3956   20.6399 N.pl3   1  UNL1       -0.2872
      2 C           3.7786   -2.5574   19.1704 C.ar    1  UNL1        0.0715
      3 C           3.6941   -1.3889   18.2337 C.ar    1  UNL1        0.0051
      4 C           3.1709   -0.0712   18.7235 C.ar    1  UNL1        0.0148
      5 C           2.7321    0.0780   20.1501 C.ar    1  UNL1        0.0515
      6 C           2.8166   -1.0905   21.0868 C.ar    1  UNL1        0.0148
      7 C           3.3398   -2.4082   20.5970 C.ar    1  UNL1        0.0051
      8 F           4.8252   -5.1927   18.1907 F       1  UNL1       -0.1659
      9 C           4.3019   -3.8750   18.6806 C.3     1  UNL1        0.4186
     10 F           5.6060   -3.2249   18.3246 F       1  UNL1       -0.1659
     11 F           2.9978   -4.5252   19.0365 F       1  UNL1       -0.1659
     12 C           1.9081    2.4932   19.6628 C.ar    1  UNL1        0.0710
     13 C           0.5828    2.5307   18.9613 C.ar    1  UNL1        0.0180
     14 C           0.2821    3.6284   17.9842 C.ar    1  UNL1        0.0220
     15 C           1.3068    4.6886   17.7086 C.ar    1  UNL1        0.0990
     16 N           2.6321    4.6511   18.4100 N.ar    1  UNL1       -0.2410
     17 C           2.9328    3.5535   19.3871 C.ar    1  UNL1        0.1136
     18 C           1.9862    1.6157   22.1069 C.3     1  UNL1        0.0807
     19 C           3.1229    2.0584   22.9799 C.3     1  UNL1        0.0416
     20 C           2.9004    2.2784   24.4468 C.3     1  UNL1        0.0939
     21 N           1.5411    2.0558   25.0409 N.pl3   1  UNL1       -0.2931
     22 C           0.4045    1.6131   24.1680 C.3     1  UNL1        0.0939
     23 C           0.6270    1.3931   22.7009 C.3     1  UNL1        0.0416
     24 C           1.3186    2.2759   26.5079 C.ar    1  UNL1        0.1317
     25 C           0.3792    1.3854   27.2659 C.ar    1  UNL1        0.0343
     26 C           0.1567    1.6055   28.7328 C.ar    1  UNL1        0.0083
     27 C           0.8736    2.7161   29.4418 C.ar    1  UNL1        0.0906
     28 C           1.8129    3.6066   28.6838 C.ar    1  UNL1        0.1041
     29 N           2.0354    3.3865   27.2169 N.ar    1  UNL1       -0.2292
     30 C           0.6510    2.9362   30.9088 C.3     1  UNL1        0.4200
     31 F           0.4285    3.1563   32.3758 F       1  UNL1       -0.1658
     32 F           0.9290    1.4853   31.1687 F       1  UNL1       -0.1658
     33 F           0.3730    4.3871   30.6490 F       1  UNL1       -0.1658
@<TRIPOS>BOND
     1     8     9    1
     2     9    10    1
     3     9    11    1
     4     9     2    1
     5     2     3   ar
     6     3     4   ar
     7     4     5   ar
     8     5     1    1
     9     1    12    1
    10    12    13   ar
    11    13    14   ar
    12    14    15   ar
    13    15    16   ar
    14    16    17   ar
    15     1    18    1
    16    18    19    1
    17    19    20    1
    18    20    21    1
    19    21    24    1
    20    24    25   ar
    21    25    26   ar
    22    26    27   ar
    23    27    30    1
    24    30    31    1
    25    30    32    1
    26    30    33    1
    27    27    28   ar
    28    28    29   ar
    29    21    22    1
    30    22    23    1
    31     5     6   ar
    32     6     7   ar
    33     7     2   ar
    34    17    12   ar
    35    23    18    1
    36    29    24   ar
@<TRIPOS>MOLECULE
*****
 33 36 0 0 0
SMALL
GASTEIGER

@<TRIPOS>ATOM
      1 N          -1.1268    3.2455   25.9562 N.pl3   1  UNL1       -0.2872
      2 C          -0.0935    2.0408   21.7454 C.ar    1  UNL1        0.0715
      3 C          -1.1007    3.1252   21.9895 C.ar    1  UNL1        0.0051
      4 C          -1.4452    3.5267   23.3931 C.ar    1  UNL1        0.0148
      5 C          -0.7823    2.8440   24.5526 C.ar    1  UNL1        0.0515
      6 C           0.2249    1.7596   24.3085 C.ar    1  UNL1        0.0148
      7 C           0.5693    1.3581   22.9049 C.ar    1  UNL1        0.0051
      8 F           0.5953    1.2377   18.9382 F       1  UNL1       -0.1659
      9 C           0.2509    1.6393   20.3418 C.3     1  UNL1        0.4186
     10 F           0.4463    3.0811   19.9772 F       1  UNL1       -0.1659
     11 F           0.0555    0.1974   20.7063 F       1  UNL1       -0.1659
     12 C          -2.2509    4.2064   26.2070 C.ar    1  UNL1        0.0710
     13 C          -3.6557    3.6982   26.3429 C.ar    1  UNL1        0.0180
     14 C          -4.7799    4.6591   26.5937 C.ar    1  UNL1        0.0220
     15 C          -4.4993    6.1281   26.7085 C.ar    1  UNL1        0.0990
     16 N          -3.0946    6.6363   26.5726 N.ar    1  UNL1       -0.2410
     17 C          -1.9704    5.6755   26.3218 C.ar    1  UNL1        0.1136
     18 C          -0.3470    2.6862   27.1091 C.3     1  UNL1        0.0807
     19 C           0.9153    3.3608   27.5584 C.3     1  UNL1        0.0416
     20 C           1.6950    2.8015   28.7113 C.3     1  UNL1        0.0939
     21 N           1.2126    1.5677   29.4148 N.pl3   1  UNL1       -0.2931
     22 C          -0.0495    0.8931   28.9656 C.3     1  UNL1        0.0939
     23 C          -0.8294    1.4524   27.8126 C.3     1  UNL1        0.0416
     24 C           1.9925    1.0084   30.5678 C.ar    1  UNL1        0.1317
     25 C           2.1235    1.7965   31.8372 C.ar    1  UNL1        0.0343
     26 C           2.9033    1.2372   32.9901 C.ar    1  UNL1        0.0083
     27 C           3.5521   -0.1102   32.8734 C.ar    1  UNL1        0.0906
     28 C           3.4210   -0.8983   31.6039 C.ar    1  UNL1        0.1041
     29 N           2.6412   -0.3390   30.4511 N.ar    1  UNL1       -0.2292
     30 C           4.3319   -0.6695   34.0263 C.3     1  UNL1        0.4200
     31 F           5.1117   -1.2288   35.1791 F       1  UNL1       -0.1658
     32 F           4.4025    0.6967   34.6414 F       1  UNL1       -0.1658
     33 F           4.2614   -2.0357   33.4112 F       1  UNL1       -0.1658
@<TRIPOS>BOND
     1     8     9    1
     2     9    10    1
     3     9    11    1
     4     9     2    1
     5     2     3   ar
     6     3     4   ar
     7     4     5   ar
     8     5     1    1
     9     1    12    1
    10    12    13   ar
    11    13    14   ar
    12    14    15   ar
    13    15    16   ar
    14    16    17   ar
    15     1    18    1
    16    18    19    1
    17    19    20    1
    18    20    21    1
    19    21    24    1
    20    24    25   ar
    21    25    26   ar
    22    26    27   ar
    23    27    30    1
    24    30    31    1
    25    30    32    1
    26    30    33    1
    27    27    28   ar
    28    28    29   ar
    29    21    22    1
    30    22    23    1
    31     5     6   ar
    32     6     7   ar
    33     7     2   ar
    34    17    12   ar
    35    23    18    1
    36    29    24   ar
@<TRIPOS>MOLECULE
*****
 33 36 0 0 0
SMALL
GASTEIGER

@<TRIPOS>ATOM
      1 N          -0.8886    2.9071   25.5623 N.pl3   1  UNL1       -0.2872
      2 C          -4.9284    4.8252   26.0629 C.ar    1  UNL1        0.0715
      3 C          -3.8150    5.1638   27.0092 C.ar    1  UNL1        0.0051
      4 C          -2.4684    4.5245   26.8424 C.ar    1  UNL1        0.0148
      5 C          -2.2352    3.5465   25.7292 C.ar    1  UNL1        0.0515
      6 C          -3.3487    3.2079   24.7829 C.ar    1  UNL1        0.0148
      7 C          -4.6953    3.8473   24.9498 C.ar    1  UNL1        0.0051
      8 F          -7.6216    6.1040   26.3967 F       1  UNL1       -0.1659
      9 C          -6.2750    5.4646   26.2298 C.3     1  UNL1        0.4186
     10 F          -5.9004    5.8913   27.6182 F       1  UNL1       -0.1659
     11 F          -6.6497    5.0379   24.8414 F       1  UNL1       -0.1659
     12 C          -0.2794    2.7871   24.1969 C.ar    1  UNL1        0.0710
     13 C           0.2928    1.4767   23.7435 C.ar    1  UNL1        0.0180
     14 C           0.9020    1.3567   22.3780 C.ar    1  UNL1        0.0220
     15 C           0.9391    2.5469   21.4660 C.ar    1  UNL1        0.0990
     16 N           0.3669    3.8573   21.9194 N.ar    1  UNL1       -0.2410
     17 C          -0.2423    3.9774   23.2848 C.ar    1  UNL1        0.1136
     18 C          -0.1512    2.3878   26.7609 C.3     1  UNL1        0.0807
     19 C           1.1762    2.9761   27.1377 C.3     1  UNL1        0.0416
     20 C           1.9136    2.4568   28.3363 C.3     1  UNL1        0.0939
     21 N           1.3237    1.3493   29.1580 N.pl3   1  UNL1       -0.2931
     22 C          -0.0037    0.7610   28.7812 C.3     1  UNL1        0.0939
     23 C          -0.7411    1.2803   27.5826 C.3     1  UNL1        0.0416
     24 C           2.0612    0.8300   30.3566 C.ar    1  UNL1        0.1317
     25 C           2.7977   -0.4743   30.2770 C.ar    1  UNL1        0.0343
     26 C           3.5351   -0.9935   31.4755 C.ar    1  UNL1        0.0083
     27 C           3.5360   -0.2085   32.7537 C.ar    1  UNL1        0.0906
     28 C           2.7995    1.0958   32.8333 C.ar    1  UNL1        0.1041
     29 N           2.0621    1.6150   31.6347 N.ar    1  UNL1       -0.2292
     30 C           4.2735   -0.7277   33.9523 C.3     1  UNL1        0.4200
     31 F           5.0109   -1.2470   35.1508 F       1  UNL1       -0.1658
     32 F           4.6223   -1.9758   33.1970 F       1  UNL1       -0.1658
     33 F           3.9246    0.5203   34.7076 F       1  UNL1       -0.1658
@<TRIPOS>BOND
     1     8     9    1
     2     9    10    1
     3     9    11    1
     4     9     2    1
     5     2     3   ar
     6     3     4   ar
     7     4     5   ar
     8     5     1    1
     9     1    12    1
    10    12    13   ar
    11    13    14   ar
    12    14    15   ar
    13    15    16   ar
    14    16    17   ar
    15     1    18    1
    16    18    19    1
    17    19    20    1
    18    20    21    1
    19    21    24    1
    20    24    25   ar
    21    25    26   ar
    22    26    27   ar
    23    27    30    1
    24    30    31    1
    25    30    32    1
    26    30    33    1
    27    27    28   ar
    28    28    29   ar
    29    21    22    1
    30    22    23    1
    31     5     6   ar
    32     6     7   ar
    33     7     2   ar
    34    17    12   ar
    35    23    18    1
    36    29    24   ar
