@<TRIPOS>MOLECULE
*****
 28 32 0 0 0
SMALL
GASTEIGER

@<TRIPOS>ATOM
      1 C          -8.6026  -18.6808   23.1234 C.3     1  UNL1        0.1689
      2 C          -8.8522  -19.7493   22.1007 C.3     1  UNL1        0.2354
      3 O          -7.6168  -19.8843   21.2606 O.2     1  UNL1       -0.4576
      4 C          -6.6038  -18.8993   21.7642 C.2     1  UNL1        0.2269
      5 N          -7.2131  -18.1555   22.9154 N.2     1  UNL1       -0.2313
      6 C          -5.2238  -18.6942   21.2132 C.ar    1  UNL1        0.0823
      7 C          -4.8320  -18.7670   19.7671 C.ar    1  UNL1        0.0116
      8 C          -3.3594  -18.4980   19.6717 C.ar    1  UNL1        0.0067
      9 C          -2.4235  -18.4399   18.5010 C.ar    1  UNL1        0.0014
     10 C          -0.9693  -18.1427   18.7174 C.ar    1  UNL1        0.0114
     11 C          -0.4510  -17.9036   20.1045 C.ar    1  UNL1        0.0582
     12 CL          1.0033  -17.6064   20.3209 Cl      1  UNL1       -0.0822
     13 C          -1.3869  -17.9617   21.2753 C.ar    1  UNL1        0.0179
     14 C          -2.8411  -18.2589   21.0588 C.ar    1  UNL1        0.0304
     15 S          -3.9934  -18.3802   22.0115 S.2     1  UNL1       -0.0823
     16 F          -8.7738  -14.6709   27.5834 F       1  UNL1       -0.2042
     17 C          -8.7310  -15.6734   26.4685 C.ar    1  UNL1        0.1401
     18 C          -9.0976  -17.1039   26.7316 C.ar    1  UNL1        0.0294
     19 C          -9.0548  -18.1064   25.6165 C.ar    1  UNL1        0.0000
     20 C          -8.6454  -17.6783   24.2384 C.ar    1  UNL1        0.0034
     21 C          -8.2789  -16.2478   23.9753 C.ar    1  UNL1        0.0000
     22 C          -8.3217  -15.2454   25.0903 C.ar    1  UNL1        0.0294
     23 C         -10.0011  -18.9965   23.5645 C.3     1  UNL1        0.1595
     24 N         -11.1625  -18.2708   22.9524 N.ar    1  UNL1       -0.2277
     25 C         -12.5389  -18.1574   23.5377 C.ar    1  UNL1        0.1973
     26 N         -13.3784  -17.3476   22.5945 N.ar    1  UNL1       -0.2007
     27 C         -12.5207  -16.9605   21.4263 C.ar    1  UNL1        0.2210
     28 N         -11.1512  -17.5311   21.6476 N.ar    1  UNL1       -0.1451
@<TRIPOS>BOND
     1    16    17    1
     2    17    18   ar
     3    18    19   ar
     4    19    20   ar
     5    20     1    1
     6     1    23    1
     7    23    24    1
     8    24    25   ar
     9    25    26   ar
    10    26    27   ar
    11    27    28   ar
    12     1     2    1
    13     2     3    1
    14     3     4    1
    15     4     6    1
    16     6     7   ar
    17     7     8   ar
    18     8     9   ar
    19     9    10   ar
    20    10    11   ar
    21    11    12    1
    22    11    13   ar
    23    13    14   ar
    24    14    15   ar
    25     4     5    2
    26    20    21   ar
    27    21    22   ar
    28    22    17   ar
    29     5     1    1
    30    28    24   ar
    31    15     6   ar
    32    14     8   ar
@<TRIPOS>MOLECULE
*****
 28 32 0 0 0
SMALL
GASTEIGER

@<TRIPOS>ATOM
      1 C         -13.4647   -4.5432   19.0539 C.3     1  UNL1        0.1689
      2 C         -14.7332   -4.9319   19.7537 C.3     1  UNL1        0.2354
      3 O         -15.5361   -3.6859   19.9838 O.2     1  UNL1       -0.4576
      4 C         -14.7639   -2.5272   19.4263 C.2     1  UNL1        0.2269
      5 N         -13.4837   -3.0570   18.8515 N.2     1  UNL1       -0.2313
      6 C         -15.1960   -1.0908   19.4409 C.ar    1  UNL1        0.0823
      7 C         -14.5310    0.0374   18.7095 C.ar    1  UNL1        0.0116
      8 C         -15.2929    1.2950   19.0060 C.ar    1  UNL1        0.0067
      9 C         -15.0992    2.7144   18.5614 C.ar    1  UNL1        0.0014
     10 C         -16.0413    3.7827   19.0313 C.ar    1  UNL1        0.0114
     11 C         -17.1772    3.4317   19.9459 C.ar    1  UNL1        0.0582
     12 CL        -18.1194    4.5002   20.4158 Cl      1  UNL1       -0.0822
     13 C         -17.3710    2.0124   20.3906 C.ar    1  UNL1        0.0179
     14 C         -16.4289    0.9440   19.9206 C.ar    1  UNL1        0.0304
     15 S         -16.3689   -0.5305   20.1894 S.2     1  UNL1       -0.0823
     16 F          -8.1421   -4.2167   16.3038 F       1  UNL1       -0.2042
     17 C          -9.4727   -4.2983   16.9913 C.ar    1  UNL1        0.1401
     18 C          -9.6067   -5.0573   18.2782 C.ar    1  UNL1        0.0294
     19 C         -10.9374   -5.1389   18.9657 C.ar    1  UNL1        0.0000
     20 C         -12.1341   -4.4615   18.3664 C.ar    1  UNL1        0.0034
     21 C         -12.0001   -3.7026   17.0795 C.ar    1  UNL1        0.0000
     22 C         -10.6694   -3.6210   16.3920 C.ar    1  UNL1        0.0294
     23 C         -13.1676   -6.0122   19.1125 C.3     1  UNL1        0.1595
     24 N         -13.9117   -6.9641   18.2235 N.ar    1  UNL1       -0.2277
     25 C         -14.2646   -8.3845   18.5518 C.ar    1  UNL1        0.1973
     26 N         -15.0045   -8.9608   17.3812 N.ar    1  UNL1       -0.2007
     27 C         -15.1089   -7.8965   16.3293 C.ar    1  UNL1        0.2210
     28 N         -14.4334   -6.6625   16.8499 N.ar    1  UNL1       -0.1451
@<TRIPOS>BOND
     1    16    17    1
     2    17    18   ar
     3    18    19   ar
     4    19    20   ar
     5    20     1    1
     6     1    23    1
     7    23    24    1
     8    24    25   ar
     9    25    26   ar
    10    26    27   ar
    11    27    28   ar
    12     1     2    1
    13     2     3    1
    14     3     4    1
    15     4     6    1
    16     6     7   ar
    17     7     8   ar
    18     8     9   ar
    19     9    10   ar
    20    10    11   ar
    21    11    12    1
    22    11    13   ar
    23    13    14   ar
    24    14    15   ar
    25     4     5    2
    26    20    21   ar
    27    21    22   ar
    28    22    17   ar
    29     5     1    1
    30    28    24   ar
    31    15     6   ar
    32    14     8   ar
@<TRIPOS>MOLECULE
*****
 28 32 0 0 0
SMALL
GASTEIGER

@<TRIPOS>ATOM
      1 C          -0.1942    2.7963   24.3822 C.3     1  UNL1        0.1689
      2 C          -0.4636    3.2924   22.9925 C.3     1  UNL1        0.2354
      3 O           0.2529    2.3907   22.0315 O.2     1  UNL1       -0.4576
      4 C           0.9652    1.3374   22.8272 C.2     1  UNL1        0.2269
      5 N           0.6889    1.5881   24.2801 N.2     1  UNL1       -0.2313
      6 C           1.8061    0.2282   22.2683 C.ar    1  UNL1        0.0823
      7 C           2.8045   -0.5915   23.0308 C.ar    1  UNL1        0.0116
      8 C           3.4117   -1.5824   22.0824 C.ar    1  UNL1        0.0067
      9 C           4.4515   -2.6467   22.2727 C.ar    1  UNL1        0.0014
     10 C           4.8682   -3.5036   21.1143 C.ar    1  UNL1        0.0114
     11 C           4.2452   -3.2964   19.7657 C.ar    1  UNL1        0.0582
     12 CL          4.6620   -4.1534   18.6072 Cl      1  UNL1       -0.0822
     13 C           3.2054   -2.2322   19.5754 C.ar    1  UNL1        0.0179
     14 C           2.7887   -1.3752   20.7338 C.ar    1  UNL1        0.0304
     15 S           1.7964   -0.2562   20.8486 S.2     1  UNL1       -0.0823
     16 F           0.1609    1.7780   30.2845 F       1  UNL1       -0.2042
     17 C           0.0722    2.0326   28.8090 C.ar    1  UNL1        0.1401
     18 C           0.5504    3.3367   28.2428 C.ar    1  UNL1        0.0294
     19 C           0.4616    3.5913   26.7671 C.ar    1  UNL1        0.0000
     20 C          -0.1054    2.5417   25.8578 C.ar    1  UNL1        0.0034
     21 C          -0.5836    1.2376   26.4240 C.ar    1  UNL1        0.0000
     22 C          -0.4949    0.9831   27.8995 C.ar    1  UNL1        0.0294
     23 C          -1.0586    3.9513   24.7928 C.3     1  UNL1        0.1595
     24 N          -2.5474    3.7842   24.8686 N.ar    1  UNL1       -0.2277
     25 C          -3.3717    3.7815   26.1218 C.ar    1  UNL1        0.1973
     26 N          -4.8070    3.5861   25.7321 N.ar    1  UNL1       -0.2007
     27 C          -4.8697    3.4681   24.2379 C.ar    1  UNL1        0.2210
     28 N          -3.4731    3.5905   23.7044 N.ar    1  UNL1       -0.1451
@<TRIPOS>BOND
     1    16    17    1
     2    17    18   ar
     3    18    19   ar
     4    19    20   ar
     5    20     1    1
     6     1    23    1
     7    23    24    1
     8    24    25   ar
     9    25    26   ar
    10    26    27   ar
    11    27    28   ar
    12     1     2    1
    13     2     3    1
    14     3     4    1
    15     4     6    1
    16     6     7   ar
    17     7     8   ar
    18     8     9   ar
    19     9    10   ar
    20    10    11   ar
    21    11    12    1
    22    11    13   ar
    23    13    14   ar
    24    14    15   ar
    25     4     5    2
    26    20    21   ar
    27    21    22   ar
    28    22    17   ar
    29     5     1    1
    30    28    24   ar
    31    15     6   ar
    32    14     8   ar
@<TRIPOS>MOLECULE
*****
 28 32 0 0 0
SMALL
GASTEIGER

@<TRIPOS>ATOM
      1 C           7.8021   -4.1997   27.4044 C.3     1  UNL1        0.1689
      2 C           7.8348   -2.7196   27.6455 C.3     1  UNL1        0.2354
      3 O           7.0731   -2.0527   26.5387 O.2     1  UNL1       -0.4576
      4 C           6.5695   -3.1206   25.6136 C.2     1  UNL1        0.2269
      5 N           7.0200   -4.4475   26.1486 N.2     1  UNL1       -0.2313
      6 C           5.7579   -2.9003   24.3715 C.ar    1  UNL1        0.0823
      7 C           5.8099   -3.7330   23.1250 C.ar    1  UNL1        0.0116
      8 C           4.8359   -3.1559   22.1409 C.ar    1  UNL1        0.0067
      9 C           4.4601   -3.5599   20.7461 C.ar    1  UNL1        0.0014
     10 C           3.4302   -2.7744   19.9897 C.ar    1  UNL1        0.0114
     11 C           2.7761   -1.5849   20.6280 C.ar    1  UNL1        0.0582
     12 CL          1.7462   -0.7994   19.8715 Cl      1  UNL1       -0.0822
     13 C           3.1520   -1.1810   22.0229 C.ar    1  UNL1        0.0179
     14 C           4.1818   -1.9665   22.7793 C.ar    1  UNL1        0.0304
     15 S           4.7517   -1.8085   24.1578 S.2     1  UNL1       -0.0823
     16 F           8.3488  -10.1741   27.4938 F       1  UNL1       -0.2042
     17 C           8.2122   -8.6805   27.4715 C.ar    1  UNL1        0.1401
     18 C           9.0426   -7.8374   28.3932 C.ar    1  UNL1        0.0294
     19 C           8.9059   -6.3438   28.3709 C.ar    1  UNL1        0.0000
     20 C           7.9387   -5.6932   27.4267 C.ar    1  UNL1        0.0034
     21 C           7.1083   -6.5363   26.5050 C.ar    1  UNL1        0.0000
     22 C           7.2450   -8.0299   26.5274 C.ar    1  UNL1        0.0294
     23 C           8.6126   -4.2641   28.6648 C.3     1  UNL1        0.1595
     24 N           8.0002   -3.8567   29.9721 N.ar    1  UNL1       -0.2277
     25 C           8.6847   -3.0925   31.0664 C.ar    1  UNL1        0.1973
     26 N           7.7032   -2.9055   32.1852 N.ar    1  UNL1       -0.2007
     27 C           6.4120   -3.5542   31.7823 C.ar    1  UNL1        0.2210
     28 N           6.5957   -4.1420   30.4146 N.ar    1  UNL1       -0.1451
@<TRIPOS>BOND
     1    16    17    1
     2    17    18   ar
     3    18    19   ar
     4    19    20   ar
     5    20     1    1
     6     1    23    1
     7    23    24    1
     8    24    25   ar
     9    25    26   ar
    10    26    27   ar
    11    27    28   ar
    12     1     2    1
    13     2     3    1
    14     3     4    1
    15     4     6    1
    16     6     7   ar
    17     7     8   ar
    18     8     9   ar
    19     9    10   ar
    20    10    11   ar
    21    11    12    1
    22    11    13   ar
    23    13    14   ar
    24    14    15   ar
    25     4     5    2
    26    20    21   ar
    27    21    22   ar
    28    22    17   ar
    29     5     1    1
    30    28    24   ar
    31    15     6   ar
    32    14     8   ar
@<TRIPOS>MOLECULE
*****
 28 32 0 0 0
SMALL
GASTEIGER

@<TRIPOS>ATOM
      1 C           5.3075   -2.3568   20.3225 C.3     1  UNL1        0.1689
      2 C           6.5148   -2.9808   19.6875 C.3     1  UNL1        0.2354
      3 O           7.2274   -3.7829   20.7358 O.2     1  UNL1       -0.4576
      4 C           6.4606   -3.6546   22.0186 C.2     1  UNL1        0.2269
      5 N           5.2741   -2.7733   21.7631 N.2     1  UNL1       -0.2313
      6 C           6.8177   -4.2953   23.3270 C.ar    1  UNL1        0.0823
      7 C           7.7214   -5.4781   23.5121 C.ar    1  UNL1        0.0116
      8 C           7.7960   -5.7794   24.9796 C.ar    1  UNL1        0.0067
      9 C           8.5340   -6.8325   25.7517 C.ar    1  UNL1        0.0014
     10 C           8.4145   -6.8890   27.2459 C.ar    1  UNL1        0.0114
     11 C           7.5569   -5.8923   27.9679 C.ar    1  UNL1        0.0582
     12 CL          7.4373   -5.9489   29.4621 Cl      1  UNL1       -0.0822
     13 C           6.8189   -4.8393   27.1957 C.ar    1  UNL1        0.0179
     14 C           6.9384   -4.7828   25.7016 C.ar    1  UNL1        0.0304
     15 S           6.3338   -3.8656   24.6802 S.2     1  UNL1       -0.0823
     16 F           0.2871    0.6173   21.7187 F       1  UNL1       -0.2042
     17 C           1.5422   -0.1262   21.3697 C.ar    1  UNL1        0.1401
     18 C           1.6101   -0.9312   20.1058 C.ar    1  UNL1        0.0294
     19 C           2.8653   -1.6748   19.7568 C.ar    1  UNL1        0.0000
     20 C           4.0525   -1.6133   20.6716 C.ar    1  UNL1        0.0034
     21 C           3.9845   -0.8082   21.9354 C.ar    1  UNL1        0.0000
     22 C           2.7294   -0.0647   22.2844 C.ar    1  UNL1        0.0294
     23 C           5.0786   -1.7849   18.9549 C.3     1  UNL1        0.1595
     24 N           5.9217   -0.6437   18.4683 N.ar    1  UNL1       -0.2277
     25 C           6.2723    0.5888   19.2481 C.ar    1  UNL1        0.1973
     26 N           7.1296    1.4596   18.3781 N.ar    1  UNL1       -0.2007
     27 C           7.3088    0.7652   17.0605 C.ar    1  UNL1        0.2210
     28 N           6.5623   -0.5347   17.1164 N.ar    1  UNL1       -0.1451
@<TRIPOS>BOND
     1    16    17    1
     2    17    18   ar
     3    18    19   ar
     4    19    20   ar
     5    20     1    1
     6     1    23    1
     7    23    24    1
     8    24    25   ar
     9    25    26   ar
    10    26    27   ar
    11    27    28   ar
    12     1     2    1
    13     2     3    1
    14     3     4    1
    15     4     6    1
    16     6     7   ar
    17     7     8   ar
    18     8     9   ar
    19     9    10   ar
    20    10    11   ar
    21    11    12    1
    22    11    13   ar
    23    13    14   ar
    24    14    15   ar
    25     4     5    2
    26    20    21   ar
    27    21    22   ar
    28    22    17   ar
    29     5     1    1
    30    28    24   ar
    31    15     6   ar
    32    14     8   ar
@<TRIPOS>MOLECULE
*****
 28 32 0 0 0
SMALL
GASTEIGER

@<TRIPOS>ATOM
      1 C           3.2712    0.9485   27.1184 C.3     1  UNL1        0.1689
      2 C           4.5960    0.3114   27.4169 C.3     1  UNL1        0.2354
      3 O           4.9807   -0.5324   26.2380 O.2     1  UNL1       -0.4576
      4 C           3.8938   -0.4169   25.2108 C.2     1  UNL1        0.2269
      5 N           2.8372    0.4983   25.7549 N.2     1  UNL1       -0.2313
      6 C           3.8679   -1.0971   23.8741 C.ar    1  UNL1        0.0823
      7 C           3.1551   -0.6066   22.6488 C.ar    1  UNL1        0.0116
      8 C           3.3969   -1.5936   21.5455 C.ar    1  UNL1        0.0067
      9 C           2.9434   -1.6325   20.1163 C.ar    1  UNL1        0.0014
     10 C           3.3521   -2.7718   19.2305 C.ar    1  UNL1        0.0114
     11 C           4.2143   -3.8724   19.7739 C.ar    1  UNL1        0.0582
     12 CL          4.6230   -5.0118   18.8880 Cl      1  UNL1       -0.0822
     13 C           4.6678   -3.8336   21.2031 C.ar    1  UNL1        0.0179
     14 C           4.2591   -2.6942   22.0889 C.ar    1  UNL1        0.0304
     15 S           4.5502   -2.3873   23.5281 S.2     1  UNL1       -0.0823
     16 F          -1.8907    4.0064   27.0617 F       1  UNL1       -0.2042
     17 C          -0.6003    3.2419   27.0758 C.ar    1  UNL1        0.1401
     18 C          -0.5950    1.7736   26.7693 C.ar    1  UNL1        0.0294
     19 C           0.6956    1.0091   26.7835 C.ar    1  UNL1        0.0000
     20 C           1.9808    1.7130   27.1042 C.ar    1  UNL1        0.0034
     21 C           1.9755    3.1813   27.4107 C.ar    1  UNL1        0.0000
     22 C           0.6850    3.9457   27.3965 C.ar    1  UNL1        0.0294
     23 C           3.4355    1.5584   28.4788 C.3     1  UNL1        0.1595
     24 N           3.3155    0.7017   29.7044 N.ar    1  UNL1       -0.2277
     25 C           2.3260   -0.4062   29.9124 C.ar    1  UNL1        0.1973
     26 N           2.5631   -0.9900   31.2737 N.ar    1  UNL1       -0.2007
     27 C           3.6992   -0.2427   31.9070 C.ar    1  UNL1        0.2210
     28 N           4.1642    0.8028   30.9370 N.ar    1  UNL1       -0.1451
@<TRIPOS>BOND
     1    16    17    1
     2    17    18   ar
     3    18    19   ar
     4    19    20   ar
     5    20     1    1
     6     1    23    1
     7    23    24    1
     8    24    25   ar
     9    25    26   ar
    10    26    27   ar
    11    27    28   ar
    12     1     2    1
    13     2     3    1
    14     3     4    1
    15     4     6    1
    16     6     7   ar
    17     7     8   ar
    18     8     9   ar
    19     9    10   ar
    20    10    11   ar
    21    11    12    1
    22    11    13   ar
    23    13    14   ar
    24    14    15   ar
    25     4     5    2
    26    20    21   ar
    27    21    22   ar
    28    22    17   ar
    29     5     1    1
    30    28    24   ar
    31    15     6   ar
    32    14     8   ar
@<TRIPOS>MOLECULE
*****
 28 32 0 0 0
SMALL
GASTEIGER

@<TRIPOS>ATOM
      1 C         -15.1002   -6.2169   17.5308 C.3     1  UNL1        0.1689
      2 C         -16.5798   -6.1439   17.2956 C.3     1  UNL1        0.2354
      3 O         -17.0349   -4.7552   17.6336 O.2     1  UNL1       -0.4576
      4 C         -15.8366   -3.9699   18.0778 C.2     1  UNL1        0.2269
      5 N         -14.6409   -4.8733   18.0142 N.2     1  UNL1       -0.2313
      6 C         -15.8344   -2.5334   18.5097 C.ar    1  UNL1        0.0823
      7 C         -14.9326   -1.4561   17.9841 C.ar    1  UNL1        0.0116
      8 C         -15.2744   -0.1789   18.6925 C.ar    1  UNL1        0.0067
      9 C         -14.7160    1.2091   18.5848 C.ar    1  UNL1        0.0014
     10 C         -15.2706    2.3091   19.4405 C.ar    1  UNL1        0.0114
     11 C         -16.3836    2.0212   20.4040 C.ar    1  UNL1        0.0582
     12 CL        -16.9382    3.1213   21.2597 Cl      1  UNL1       -0.0822
     13 C         -16.9421    0.6332   20.5117 C.ar    1  UNL1        0.0179
     14 C         -16.3875   -0.4668   19.6560 C.ar    1  UNL1        0.0304
     15 S         -16.7335   -1.9220   19.5429 S.2     1  UNL1       -0.0823
     16 F          -9.3128   -7.6971   18.0920 F       1  UNL1       -0.2042
     17 C         -10.7596   -7.3271   17.9517 C.ar    1  UNL1        0.1401
     18 C         -11.5121   -7.7002   16.7089 C.ar    1  UNL1        0.0294
     19 C         -12.9590   -7.3301   16.5686 C.ar    1  UNL1        0.0000
     20 C         -13.6534   -6.5870   17.6711 C.ar    1  UNL1        0.0034
     21 C         -12.9009   -6.2139   18.9139 C.ar    1  UNL1        0.0000
     22 C         -11.4540   -6.5839   19.0542 C.ar    1  UNL1        0.0294
     23 C         -15.2571   -7.6378   17.0767 C.3     1  UNL1        0.1595
     24 N         -15.9737   -8.6283   17.9459 N.ar    1  UNL1       -0.2277
     25 C         -15.6835   -8.9054   19.3912 C.ar    1  UNL1        0.1973
     26 N         -16.6369   -9.9639   19.8609 N.ar    1  UNL1       -0.2007
     27 C         -17.5164  -10.3411   18.7057 C.ar    1  UNL1        0.2210
     28 N         -17.1064   -9.5156   17.5222 N.ar    1  UNL1       -0.1451
@<TRIPOS>BOND
     1    16    17    1
     2    17    18   ar
     3    18    19   ar
     4    19    20   ar
     5    20     1    1
     6     1    23    1
     7    23    24    1
     8    24    25   ar
     9    25    26   ar
    10    26    27   ar
    11    27    28   ar
    12     1     2    1
    13     2     3    1
    14     3     4    1
    15     4     6    1
    16     6     7   ar
    17     7     8   ar
    18     8     9   ar
    19     9    10   ar
    20    10    11   ar
    21    11    12    1
    22    11    13   ar
    23    13    14   ar
    24    14    15   ar
    25     4     5    2
    26    20    21   ar
    27    21    22   ar
    28    22    17   ar
    29     5     1    1
    30    28    24   ar
    31    15     6   ar
    32    14     8   ar
@<TRIPOS>MOLECULE
*****
 28 32 0 0 0
SMALL
GASTEIGER

@<TRIPOS>ATOM
      1 C           3.4060    0.8724   26.9403 C.3     1  UNL1        0.1689
      2 C           4.8499    1.1869   26.6833 C.3     1  UNL1        0.2354
      3 O           5.2409    0.5427   25.3863 O.2     1  UNL1       -0.4576
      4 C           4.0386   -0.1699   24.8417 C.2     1  UNL1        0.2269
      5 N           2.9046    0.0338   25.8021 N.2     1  UNL1       -0.2313
      6 C           3.9806   -0.9495   23.5615 C.ar    1  UNL1        0.0823
      7 C           3.2423   -0.5497   22.3185 C.ar    1  UNL1        0.0116
      8 C           3.4561   -1.6188   21.2882 C.ar    1  UNL1        0.0067
      9 C           2.9706   -1.7636   19.8764 C.ar    1  UNL1        0.0014
     10 C           3.3555   -2.9689   19.0709 C.ar    1  UNL1        0.0114
     11 C           4.2259   -4.0295   19.6772 C.ar    1  UNL1        0.0582
     12 CL          4.6108   -5.2349   18.8716 Cl      1  UNL1       -0.0822
     13 C           4.7114   -3.8847   21.0891 C.ar    1  UNL1        0.0179
     14 C           4.3264   -2.6794   21.8946 C.ar    1  UNL1        0.0304
     15 S           4.6506   -2.2657   23.2995 S.2     1  UNL1       -0.0823
     16 F          -2.1954    0.2898   29.0104 F       1  UNL1       -0.2042
     17 C          -0.7951    0.4355   28.4929 C.ar    1  UNL1        0.1401
     18 C           0.3492   -0.1808   29.2418 C.ar    1  UNL1        0.0294
     19 C           1.7496   -0.0351   28.7242 C.ar    1  UNL1        0.0000
     20 C           2.0056    0.7268   27.4578 C.ar    1  UNL1        0.0034
     21 C           0.8614    1.3430   26.7089 C.ar    1  UNL1        0.0000
     22 C          -0.5389    1.1974   27.2264 C.ar    1  UNL1        0.0294
     23 C           3.6146    1.6805   28.1865 C.3     1  UNL1        0.1595
     24 N           3.2207    3.1275   28.2170 N.ar    1  UNL1       -0.2277
     25 C           2.6511    3.8618   29.3945 C.ar    1  UNL1        0.1973
     26 N           2.4056    5.2824   28.9804 N.ar    1  UNL1       -0.2007
     27 C           2.8234    5.4262   27.5469 C.ar    1  UNL1        0.2210
     28 N           3.3271    4.0944   27.0752 N.ar    1  UNL1       -0.1451
@<TRIPOS>BOND
     1    16    17    1
     2    17    18   ar
     3    18    19   ar
     4    19    20   ar
     5    20     1    1
     6     1    23    1
     7    23    24    1
     8    24    25   ar
     9    25    26   ar
    10    26    27   ar
    11    27    28   ar
    12     1     2    1
    13     2     3    1
    14     3     4    1
    15     4     6    1
    16     6     7   ar
    17     7     8   ar
    18     8     9   ar
    19     9    10   ar
    20    10    11   ar
    21    11    12    1
    22    11    13   ar
    23    13    14   ar
    24    14    15   ar
    25     4     5    2
    26    20    21   ar
    27    21    22   ar
    28    22    17   ar
    29     5     1    1
    30    28    24   ar
    31    15     6   ar
    32    14     8   ar
@<TRIPOS>MOLECULE
*****
 28 32 0 0 0
SMALL
GASTEIGER

@<TRIPOS>ATOM
      1 C           2.3098    0.0854   30.1137 C.3     1  UNL1        0.1689
      2 C           3.4445   -0.7380   30.6470 C.3     1  UNL1        0.2354
      3 O           3.7746   -0.2371   32.0219 O.2     1  UNL1       -0.4576
      4 C           2.8439    0.8959   32.3383 C.2     1  UNL1        0.2269
      5 N           1.9387    1.0953   31.1589 N.2     1  UNL1       -0.2313
      6 C           2.8223    1.6902   33.6105 C.ar    1  UNL1        0.0823
      7 C           1.9225    2.8526   33.9091 C.ar    1  UNL1        0.0116
      8 C           2.2408    3.3423   35.2907 C.ar    1  UNL1        0.0067
      9 C           1.6738    4.4600   36.1149 C.ar    1  UNL1        0.0014
     10 C           2.2034    4.7180   37.4943 C.ar    1  UNL1        0.0114
     11 C           3.2999    3.8582   38.0497 C.ar    1  UNL1        0.0582
     12 CL          3.8295    4.1162   39.4292 Cl      1  UNL1       -0.0822
     13 C           3.8669    2.7405   37.2256 C.ar    1  UNL1        0.0179
     14 C           3.3373    2.4826   35.8461 C.ar    1  UNL1        0.0304
     15 S           3.6967    1.4615   34.8077 S.2     1  UNL1       -0.0823
     16 F          -2.1117    2.6470   26.9692 F       1  UNL1       -0.2042
     17 C          -1.0063    2.0067   27.7553 C.ar    1  UNL1        0.1401
     18 C           0.1810    2.8195   28.1790 C.ar    1  UNL1        0.0294
     19 C           1.2864    2.1790   28.9652 C.ar    1  UNL1        0.0000
     20 C           1.2045    0.7258   29.3276 C.ar    1  UNL1        0.0034
     21 C           0.0171   -0.0871   28.9039 C.ar    1  UNL1        0.0000
     22 C          -1.0882    0.5534   28.1177 C.ar    1  UNL1        0.0294
     23 C           2.4499   -0.7905   28.9042 C.3     1  UNL1        0.1595
     24 N           3.5161   -0.5027   27.8891 N.ar    1  UNL1       -0.2277
     25 C           3.8805   -1.3722   26.7224 C.ar    1  UNL1        0.1973
     26 N           4.9947   -0.7016   25.9747 N.ar    1  UNL1       -0.2007
     27 C           5.3189    0.5823   26.6794 C.ar    1  UNL1        0.2210
     28 N           4.4051    0.7052   27.8625 N.ar    1  UNL1       -0.1451
@<TRIPOS>BOND
     1    16    17    1
     2    17    18   ar
     3    18    19   ar
     4    19    20   ar
     5    20     1    1
     6     1    23    1
     7    23    24    1
     8    24    25   ar
     9    25    26   ar
    10    26    27   ar
    11    27    28   ar
    12     1     2    1
    13     2     3    1
    14     3     4    1
    15     4     6    1
    16     6     7   ar
    17     7     8   ar
    18     8     9   ar
    19     9    10   ar
    20    10    11   ar
    21    11    12    1
    22    11    13   ar
    23    13    14   ar
    24    14    15   ar
    25     4     5    2
    26    20    21   ar
    27    21    22   ar
    28    22    17   ar
    29     5     1    1
    30    28    24   ar
    31    15     6   ar
    32    14     8   ar
