@<TRIPOS>MOLECULE
*****
 25 27 0 0 0
SMALL
GASTEIGER

@<TRIPOS>ATOM
      1 C          -5.5971  -15.1854   26.2147 C.3     1  UNL1        0.1363
      2 N          -6.6594  -15.5836   25.2334 N.ar    1  UNL1       -0.2669
      3 C          -6.2802  -15.9802   23.8374 C.ar    1  UNL1        0.2005
      4 N          -7.3425  -16.3784   22.8561 N.ar    1  UNL1       -0.2150
      5 C          -8.7840  -16.3800   23.2708 C.ar    1  UNL1        0.0890
      6 C          -9.1632  -15.9835   24.6668 C.ar    1  UNL1        0.0800
      7 C          -8.1009  -15.5853   25.6481 C.ar    1  UNL1        0.2645
      8 O          -8.4802  -15.1887   27.0442 O.2     1  UNL1       -0.2668
      9 C          -9.8463  -16.7783   22.2894 C.ar    1  UNL1        0.0210
     10 C          -9.5770  -17.8669   21.2933 C.ar    1  UNL1        0.0222
     11 C         -10.6393  -18.2651   20.3120 C.ar    1  UNL1        0.0989
     12 N         -11.9708  -17.5747   20.3268 N.ar    1  UNL1       -0.2423
     13 C         -12.2401  -16.4861   21.3230 C.ar    1  UNL1        0.0989
     14 C         -11.1778  -16.0878   22.3043 C.ar    1  UNL1        0.0222
     15 N          -4.8386  -15.9786   23.4226 N.pl3   1  UNL1       -0.2977
     16 H          -4.4395  -15.1675   23.0326 H       1  UNL1        0.1500
     17 C          -4.0052  -17.2127   23.6021 C.3     1  UNL1        0.1596
     18 C          -3.4141  -17.8990   22.4064 C.2     1  UNL1        0.1928
     19 O          -2.0516  -17.5087   21.9150 O.2     1  UNL1       -0.2895
     20 C          -4.1854  -18.9755   21.7021 C.ar    1  UNL1        0.0364
     21 C          -3.5509  -19.7400   20.5783 C.ar    1  UNL1        0.0029
     22 C          -4.3222  -20.8165   19.8740 C.ar    1  UNL1        0.0001
     23 C          -5.7282  -21.1286   20.2934 C.ar    1  UNL1        0.0000
     24 C          -6.3627  -20.3641   21.4172 C.ar    1  UNL1        0.0001
     25 C          -5.5913  -19.2875   22.1216 C.ar    1  UNL1        0.0029
@<TRIPOS>BOND
     1     1     2    1
     2     2     3   ar
     3     3    15    1
     4    15    17    1
     5    17    18    1
     6    18    19    2
     7    18    20    1
     8    20    21   ar
     9    21    22   ar
    10    22    23   ar
    11    23    24   ar
    12    24    25   ar
    13     3     4   ar
    14     4     5   ar
    15     5     9    1
    16     9    10   ar
    17    10    11   ar
    18    11    12   ar
    19    12    13   ar
    20    13    14   ar
    21     5     6   ar
    22     6     7   ar
    23     7     8    2
    24     7     2   ar
    25    25    20   ar
    26    14     9   ar
    27    15    16    1
@<TRIPOS>MOLECULE
*****
 25 27 0 0 0
SMALL
GASTEIGER

@<TRIPOS>ATOM
      1 C          -5.5927  -15.2301   26.1879 C.3     1  UNL1        0.1363
      2 N          -6.6697  -15.6165   25.2180 N.ar    1  UNL1       -0.2669
      3 C          -6.3066  -16.0633   23.8329 C.ar    1  UNL1        0.2005
      4 N          -7.3836  -16.4497   22.8630 N.ar    1  UNL1       -0.2150
      5 C          -8.8237  -16.3893   23.2781 C.ar    1  UNL1        0.0890
      6 C          -9.1868  -15.9425   24.6632 C.ar    1  UNL1        0.0800
      7 C          -8.1098  -15.5561   25.6331 C.ar    1  UNL1        0.2645
      8 O          -8.4730  -15.1093   27.0182 O.2     1  UNL1       -0.2668
      9 C          -9.9007  -16.7757   22.3082 C.ar    1  UNL1        0.0210
     10 C         -11.2652  -16.1628   22.4192 C.ar    1  UNL1        0.0222
     11 C         -12.3422  -16.5492   21.4493 C.ar    1  UNL1        0.0989
     12 N         -12.0547  -17.5485   20.3683 N.ar    1  UNL1       -0.2423
     13 C         -10.6902  -18.1615   20.2573 C.ar    1  UNL1        0.0989
     14 C          -9.6132  -17.7751   21.2272 C.ar    1  UNL1        0.0222
     15 N          -4.8664  -16.1237   23.4177 N.pl3   1  UNL1       -0.2977
     16 H          -4.4469  -15.3472   22.9815 H       1  UNL1        0.1500
     17 C          -4.0655  -17.3673   23.6671 C.3     1  UNL1        0.1596
     18 C          -3.9704  -18.4235   22.6061 C.2     1  UNL1        0.1928
     19 O          -4.7533  -19.6957   22.7422 O.2     1  UNL1       -0.2895
     20 C          -3.0925  -18.2074   21.4093 C.ar    1  UNL1        0.0364
     21 C          -1.9457  -17.2435   21.4846 C.ar    1  UNL1        0.0029
     22 C          -1.0677  -17.0274   20.2878 C.ar    1  UNL1        0.0001
     23 C          -1.3366  -17.7753   19.0155 C.ar    1  UNL1        0.0000
     24 C          -2.4834  -18.7392   18.9402 C.ar    1  UNL1        0.0001
     25 C          -3.3614  -18.9553   20.1372 C.ar    1  UNL1        0.0029
@<TRIPOS>BOND
     1     1     2    1
     2     2     3   ar
     3     3    15    1
     4    15    17    1
     5    17    18    1
     6    18    19    2
     7    18    20    1
     8    20    21   ar
     9    21    22   ar
    10    22    23   ar
    11    23    24   ar
    12    24    25   ar
    13     3     4   ar
    14     4     5   ar
    15     5     9    1
    16     9    10   ar
    17    10    11   ar
    18    11    12   ar
    19    12    13   ar
    20    13    14   ar
    21     5     6   ar
    22     6     7   ar
    23     7     8    2
    24     7     2   ar
    25    25    20   ar
    26    14     9   ar
    27    15    16    1
@<TRIPOS>MOLECULE
*****
 25 27 0 0 0
SMALL
GASTEIGER

@<TRIPOS>ATOM
      1 C         -10.7185  -19.3141   20.4963 C.3     1  UNL1        0.1363
      2 N          -9.2197  -19.2775   20.5419 N.ar    1  UNL1       -0.2669
      3 C          -8.5201  -18.6472   21.7095 C.ar    1  UNL1        0.2005
      4 N          -7.0212  -18.6106   21.7551 N.ar    1  UNL1       -0.2150
      5 C          -6.2220  -19.2042   20.6332 C.ar    1  UNL1        0.0890
      6 C          -6.9216  -19.8344   19.4656 C.ar    1  UNL1        0.0800
      7 C          -8.4204  -19.8711   19.4200 C.ar    1  UNL1        0.2645
      8 O          -9.1200  -20.5014   18.2523 O.2     1  UNL1       -0.2668
      9 C          -4.7231  -19.1675   20.6789 C.ar    1  UNL1        0.0210
     10 C          -4.0034  -19.4942   21.9537 C.ar    1  UNL1        0.0222
     11 C          -2.5045  -19.4576   21.9993 C.ar    1  UNL1        0.0989
     12 N          -1.7254  -19.0942   20.7702 N.ar    1  UNL1       -0.2423
     13 C          -2.4451  -18.7675   19.4953 C.ar    1  UNL1        0.0989
     14 C          -3.9440  -18.8042   19.4497 C.ar    1  UNL1        0.0222
     15 N          -9.3193  -18.0536   22.8315 N.pl3   1  UNL1       -0.2977
     16 H          -9.7508  -18.6412   23.4931 H       1  UNL1        0.1500
     17 C          -9.4611  -16.5647   22.9455 C.3     1  UNL1        0.1596
     18 C          -8.2490  -15.7112   23.1749 C.2     1  UNL1        0.1928
     19 O          -7.6027  -15.0011   22.0225 O.2     1  UNL1       -0.2895
     20 C          -7.6833  -15.5679   24.5567 C.ar    1  UNL1        0.0364
     21 C          -6.2098  -15.3609   24.7461 C.ar    1  UNL1        0.0029
     22 C          -5.6441  -15.2176   26.1279 C.ar    1  UNL1        0.0001
     23 C          -6.5520  -15.2812   27.3204 C.ar    1  UNL1        0.0000
     24 C          -8.0255  -15.4882   27.1309 C.ar    1  UNL1        0.0001
     25 C          -8.5912  -15.6315   25.7490 C.ar    1  UNL1        0.0029
@<TRIPOS>BOND
     1     1     2    1
     2     2     3   ar
     3     3    15    1
     4    15    17    1
     5    17    18    1
     6    18    19    2
     7    18    20    1
     8    20    21   ar
     9    21    22   ar
    10    22    23   ar
    11    23    24   ar
    12    24    25   ar
    13     3     4   ar
    14     4     5   ar
    15     5     9    1
    16     9    10   ar
    17    10    11   ar
    18    11    12   ar
    19    12    13   ar
    20    13    14   ar
    21     5     6   ar
    22     6     7   ar
    23     7     8    2
    24     7     2   ar
    25    25    20   ar
    26    14     9   ar
    27    15    16    1
@<TRIPOS>MOLECULE
*****
 25 27 0 0 0
SMALL
GASTEIGER

@<TRIPOS>ATOM
      1 C          -3.5148  -20.0959   20.9014 C.3     1  UNL1        0.1363
      2 N          -4.9176  -19.6662   21.2138 N.ar    1  UNL1       -0.2669
      3 C          -5.1598  -18.4250   22.0204 C.ar    1  UNL1        0.2005
      4 N          -6.5626  -17.9954   22.3328 N.ar    1  UNL1       -0.2150
      5 C          -7.7232  -18.8069   21.8385 C.ar    1  UNL1        0.0890
      6 C          -7.4810  -20.0481   21.0319 C.ar    1  UNL1        0.0800
      7 C          -6.0782  -20.4778   20.7195 C.ar    1  UNL1        0.2645
      8 O          -5.8361  -21.7190   19.9128 O.2     1  UNL1       -0.2668
      9 C          -9.1260  -18.3772   22.1509 C.ar    1  UNL1        0.0210
     10 C          -9.5532  -16.9634   21.8890 C.ar    1  UNL1        0.0222
     11 C         -10.9560  -16.5337   22.2014 C.ar    1  UNL1        0.0989
     12 N         -11.9315  -17.5178   22.7757 N.ar    1  UNL1       -0.2423
     13 C         -11.5043  -18.9316   23.0376 C.ar    1  UNL1        0.0989
     14 C         -10.1015  -19.3613   22.7252 C.ar    1  UNL1        0.0222
     15 N          -3.9991  -17.6134   22.5147 N.pl3   1  UNL1       -0.2977
     16 H          -3.1593  -17.5920   22.0014 H       1  UNL1        0.1500
     17 C          -4.1180  -16.8346   23.7911 C.3     1  UNL1        0.1596
     18 C          -5.0016  -15.6238   23.8514 C.2     1  UNL1        0.1928
     19 O          -4.8109  -14.5066   22.8688 O.2     1  UNL1       -0.2895
     20 C          -6.0757  -15.5304   24.8941 C.ar    1  UNL1        0.0364
     21 C          -5.7116  -15.5436   26.3492 C.ar    1  UNL1        0.0029
     22 C          -6.7858  -15.4502   27.3920 C.ar    1  UNL1        0.0001
     23 C          -8.2241  -15.3435   26.9797 C.ar    1  UNL1        0.0000
     24 C          -8.5882  -15.3302   25.5246 C.ar    1  UNL1        0.0001
     25 C          -7.5139  -15.4237   24.4818 C.ar    1  UNL1        0.0029
@<TRIPOS>BOND
     1     1     2    1
     2     2     3   ar
     3     3    15    1
     4    15    17    1
     5    17    18    1
     6    18    19    2
     7    18    20    1
     8    20    21   ar
     9    21    22   ar
    10    22    23   ar
    11    23    24   ar
    12    24    25   ar
    13     3     4   ar
    14     4     5   ar
    15     5     9    1
    16     9    10   ar
    17    10    11   ar
    18    11    12   ar
    19    12    13   ar
    20    13    14   ar
    21     5     6   ar
    22     6     7   ar
    23     7     8    2
    24     7     2   ar
    25    25    20   ar
    26    14     9   ar
    27    15    16    1
@<TRIPOS>MOLECULE
*****
 25 27 0 0 0
SMALL
GASTEIGER

@<TRIPOS>ATOM
      1 C         -11.1928  -18.3956   20.2364 C.3     1  UNL1        0.1363
      2 N         -10.3743  -17.8507   21.3691 N.ar    1  UNL1       -0.2669
      3 C          -8.9752  -18.3449   21.5891 C.ar    1  UNL1        0.2005
      4 N          -8.1567  -17.8000   22.7218 N.ar    1  UNL1       -0.2150
      5 C          -8.7372  -16.7609   23.6346 C.ar    1  UNL1        0.0890
      6 C         -10.1362  -16.2667   23.4146 C.ar    1  UNL1        0.0800
      7 C         -10.9548  -16.8116   22.2819 C.ar    1  UNL1        0.2645
      8 O         -12.3539  -16.3173   22.0620 O.2     1  UNL1       -0.2668
      9 C          -7.9187  -16.2160   24.7673 C.ar    1  UNL1        0.0210
     10 C          -6.5117  -15.7571   24.5230 C.ar    1  UNL1        0.0222
     11 C          -5.6931  -15.2122   25.6557 C.ar    1  UNL1        0.0989
     12 N          -6.2816  -15.1262   27.0328 N.ar    1  UNL1       -0.2423
     13 C          -7.6886  -15.5851   27.2771 C.ar    1  UNL1        0.0989
     14 C          -8.5071  -16.1300   26.1443 C.ar    1  UNL1        0.0222
     15 N          -8.3947  -19.3841   20.6763 N.pl3   1  UNL1       -0.2977
     16 H          -8.9116  -20.1937   20.4602 H       1  UNL1        0.1500
     17 C          -7.0266  -19.1898   20.0927 C.3     1  UNL1        0.1596
     18 C          -5.8948  -20.0749   20.5234 C.2     1  UNL1        0.1928
     19 O          -5.9724  -21.5556   20.2966 O.2     1  UNL1       -0.2895
     20 C          -4.6854  -19.4793   21.1811 C.ar    1  UNL1        0.0364
     21 C          -3.3222  -19.7205   20.6035 C.ar    1  UNL1        0.0029
     22 C          -2.1128  -19.1249   21.2611 C.ar    1  UNL1        0.0001
     23 C          -2.2665  -18.2880   22.4964 C.ar    1  UNL1        0.0000
     24 C          -3.6296  -18.0467   23.0741 C.ar    1  UNL1        0.0001
     25 C          -4.8391  -18.6424   22.4164 C.ar    1  UNL1        0.0029
@<TRIPOS>BOND
     1     1     2    1
     2     2     3   ar
     3     3    15    1
     4    15    17    1
     5    17    18    1
     6    18    19    2
     7    18    20    1
     8    20    21   ar
     9    21    22   ar
    10    22    23   ar
    11    23    24   ar
    12    24    25   ar
    13     3     4   ar
    14     4     5   ar
    15     5     9    1
    16     9    10   ar
    17    10    11   ar
    18    11    12   ar
    19    12    13   ar
    20    13    14   ar
    21     5     6   ar
    22     6     7   ar
    23     7     8    2
    24     7     2   ar
    25    25    20   ar
    26    14     9   ar
    27    15    16    1
@<TRIPOS>MOLECULE
*****
 25 27 0 0 0
SMALL
GASTEIGER

@<TRIPOS>ATOM
      1 C          -8.1568  -15.2510   25.1190 C.3     1  UNL1        0.1363
      2 N          -7.0111  -15.9062   24.4061 N.ar    1  UNL1       -0.2669
      3 C          -7.2745  -16.8324   23.2561 C.ar    1  UNL1        0.2005
      4 N          -6.1289  -17.4876   22.5432 N.ar    1  UNL1       -0.2150
      5 C          -4.7199  -17.2166   22.9803 C.ar    1  UNL1        0.0890
      6 C          -4.4565  -16.2903   24.1303 C.ar    1  UNL1        0.0800
      7 C          -5.6021  -15.6351   24.8433 C.ar    1  UNL1        0.2645
      8 O          -5.3387  -14.7088   25.9934 O.2     1  UNL1       -0.2668
      9 C          -3.5742  -17.8717   22.2674 C.ar    1  UNL1        0.0210
     10 C          -3.5733  -19.3567   22.0555 C.ar    1  UNL1        0.0222
     11 C          -2.4277  -20.0119   21.3426 C.ar    1  UNL1        0.0989
     12 N          -1.2830  -19.1821   20.8416 N.ar    1  UNL1       -0.2423
     13 C          -1.2839  -17.6972   21.0534 C.ar    1  UNL1        0.0989
     14 C          -2.4295  -17.0420   21.7663 C.ar    1  UNL1        0.0222
     15 N          -8.6836  -17.1035   22.8189 N.pl3   1  UNL1       -0.2977
     16 H          -9.4383  -16.7505   23.3434 H       1  UNL1        0.1500
     17 C          -8.9428  -17.9123   21.5825 C.3     1  UNL1        0.1596
     18 C         -10.1644  -18.7786   21.4954 C.2     1  UNL1        0.1928
     19 O         -10.2507  -19.8503   20.4495 O.2     1  UNL1       -0.2895
     20 C         -11.2995  -18.5730   22.4541 C.ar    1  UNL1        0.0364
     21 C         -11.2148  -19.1250   23.8462 C.ar    1  UNL1        0.0029
     22 C         -12.3500  -18.9194   24.8049 C.ar    1  UNL1        0.0001
     23 C         -13.5699  -18.1618   24.3714 C.ar    1  UNL1        0.0000
     24 C         -13.6546  -17.6098   22.9793 C.ar    1  UNL1        0.0001
     25 C         -12.5194  -17.8154   22.0206 C.ar    1  UNL1        0.0029
@<TRIPOS>BOND
     1     1     2    1
     2     2     3   ar
     3     3    15    1
     4    15    17    1
     5    17    18    1
     6    18    19    2
     7    18    20    1
     8    20    21   ar
     9    21    22   ar
    10    22    23   ar
    11    23    24   ar
    12    24    25   ar
    13     3     4   ar
    14     4     5   ar
    15     5     9    1
    16     9    10   ar
    17    10    11   ar
    18    11    12   ar
    19    12    13   ar
    20    13    14   ar
    21     5     6   ar
    22     6     7   ar
    23     7     8    2
    24     7     2   ar
    25    25    20   ar
    26    14     9   ar
    27    15    16    1
@<TRIPOS>MOLECULE
*****
 25 27 0 0 0
SMALL
GASTEIGER

@<TRIPOS>ATOM
      1 C          -2.2377  -18.5259   22.2132 C.3     1  UNL1        0.1363
      2 N          -3.7059  -18.7579   22.0115 N.ar    1  UNL1       -0.2669
      3 C          -4.7061  -17.9031   22.7317 C.ar    1  UNL1        0.2005
      4 N          -6.1743  -18.1351   22.5301 N.ar    1  UNL1       -0.2150
      5 C          -6.6422  -19.2218   21.6082 C.ar    1  UNL1        0.0890
      6 C          -5.6420  -20.0766   20.8880 C.ar    1  UNL1        0.0800
      7 C          -4.1738  -19.8447   21.0896 C.ar    1  UNL1        0.2645
      8 O          -3.1736  -20.6995   20.3693 O.2     1  UNL1       -0.2668
      9 C          -8.1104  -19.4538   21.4065 C.ar    1  UNL1        0.0210
     10 C          -8.7091  -19.3239   20.0374 C.ar    1  UNL1        0.0222
     11 C         -10.1773  -19.5559   19.8357 C.ar    1  UNL1        0.0989
     12 N         -11.0467  -19.9177   21.0032 N.ar    1  UNL1       -0.2423
     13 C         -10.4480  -20.0476   22.3724 C.ar    1  UNL1        0.0989
     14 C          -8.9799  -19.8156   22.5740 C.ar    1  UNL1        0.0222
     15 N          -4.2382  -16.8163   23.6537 N.pl3   1  UNL1       -0.2977
     16 H          -3.4218  -16.9426   24.1892 H       1  UNL1        0.1500
     17 C          -5.0142  -15.5370   23.7597 C.3     1  UNL1        0.1596
     18 C          -6.2606  -15.4826   24.5924 C.2     1  UNL1        0.1928
     19 O          -6.1765  -15.1203   26.0456 O.2     1  UNL1       -0.2895
     20 C          -7.5911  -15.7904   23.9720 C.ar    1  UNL1        0.0364
     21 C          -8.6651  -16.4470   24.7877 C.ar    1  UNL1        0.0029
     22 C          -9.9956  -16.7549   24.1673 C.ar    1  UNL1        0.0001
     23 C         -10.2522  -16.4060   22.7311 C.ar    1  UNL1        0.0000
     24 C          -9.1782  -15.7494   21.9154 C.ar    1  UNL1        0.0001
     25 C          -7.8476  -15.4415   22.5359 C.ar    1  UNL1        0.0029
@<TRIPOS>BOND
     1     1     2    1
     2     2     3   ar
     3     3    15    1
     4    15    17    1
     5    17    18    1
     6    18    19    2
     7    18    20    1
     8    20    21   ar
     9    21    22   ar
    10    22    23   ar
    11    23    24   ar
    12    24    25   ar
    13     3     4   ar
    14     4     5   ar
    15     5     9    1
    16     9    10   ar
    17    10    11   ar
    18    11    12   ar
    19    12    13   ar
    20    13    14   ar
    21     5     6   ar
    22     6     7   ar
    23     7     8    2
    24     7     2   ar
    25    25    20   ar
    26    14     9   ar
    27    15    16    1
@<TRIPOS>MOLECULE
*****
 25 27 0 0 0
SMALL
GASTEIGER

@<TRIPOS>ATOM
      1 C          -8.0035  -15.2388   25.4735 C.3     1  UNL1        0.1363
      2 N          -6.9218  -15.9055   24.6763 N.ar    1  UNL1       -0.2669
      3 C          -7.2722  -16.9722   23.6817 C.ar    1  UNL1        0.2005
      4 N          -6.1905  -17.6389   22.8845 N.ar    1  UNL1       -0.2150
      5 C          -4.7584  -17.2388   23.0819 C.ar    1  UNL1        0.0890
      6 C          -4.4080  -16.1720   24.0765 C.ar    1  UNL1        0.0800
      7 C          -5.4897  -15.5054   24.8737 C.ar    1  UNL1        0.2645
      8 O          -5.1392  -14.4386   25.8683 O.2     1  UNL1       -0.2668
      9 C          -3.6767  -17.9054   22.2847 C.ar    1  UNL1        0.0210
     10 C          -3.8328  -19.3346   21.8569 C.ar    1  UNL1        0.0222
     11 C          -2.7511  -20.0012   21.0597 C.ar    1  UNL1        0.0989
     12 N          -1.5133  -19.2387   20.6904 N.ar    1  UNL1       -0.2423
     13 C          -1.3572  -17.8096   21.1182 C.ar    1  UNL1        0.0989
     14 C          -2.4389  -17.1429   21.9154 C.ar    1  UNL1        0.0222
     15 N          -8.7043  -17.3724   23.4843 N.pl3   1  UNL1       -0.2977
     16 H          -9.4123  -16.6884   23.4940 H       1  UNL1        0.1500
     17 C          -9.0576  -18.8146   23.2721 C.3     1  UNL1        0.1596
     18 C         -10.3254  -19.1790   22.5577 C.2     1  UNL1        0.1928
     19 O         -10.8744  -20.5706   22.6671 O.2     1  UNL1       -0.2895
     20 C         -11.0440  -18.1518   21.7342 C.ar    1  UNL1        0.0364
     21 C         -10.6731  -17.9513   20.2946 C.ar    1  UNL1        0.0029
     22 C         -11.3917  -16.9240   19.4710 C.ar    1  UNL1        0.0001
     23 C         -12.4813  -16.0972   20.0870 C.ar    1  UNL1        0.0000
     24 C         -12.8522  -16.2977   21.5265 C.ar    1  UNL1        0.0001
     25 C         -12.1335  -17.3250   22.3501 C.ar    1  UNL1        0.0029
@<TRIPOS>BOND
     1     1     2    1
     2     2     3   ar
     3     3    15    1
     4    15    17    1
     5    17    18    1
     6    18    19    2
     7    18    20    1
     8    20    21   ar
     9    21    22   ar
    10    22    23   ar
    11    23    24   ar
    12    24    25   ar
    13     3     4   ar
    14     4     5   ar
    15     5     9    1
    16     9    10   ar
    17    10    11   ar
    18    11    12   ar
    19    12    13   ar
    20    13    14   ar
    21     5     6   ar
    22     6     7   ar
    23     7     8    2
    24     7     2   ar
    25    25    20   ar
    26    14     9   ar
    27    15    16    1
@<TRIPOS>MOLECULE
*****
 25 27 0 0 0
SMALL
GASTEIGER

@<TRIPOS>ATOM
      1 C          -2.9950  -17.7667   23.6812 C.3     1  UNL1        0.1363
      2 N          -4.2205  -18.1384   22.9004 N.ar    1  UNL1       -0.2669
      3 C          -5.4920  -17.3648   23.0869 C.ar    1  UNL1        0.2005
      4 N          -6.7176  -17.7366   22.3060 N.ar    1  UNL1       -0.2150
      5 C          -6.6717  -18.8820   21.3387 C.ar    1  UNL1        0.0890
      6 C          -5.4003  -19.6557   21.1522 C.ar    1  UNL1        0.0800
      7 C          -4.1747  -19.2839   21.9331 C.ar    1  UNL1        0.2645
      8 O          -2.9032  -20.0576   21.7465 O.2     1  UNL1       -0.2668
      9 C          -7.8973  -19.2538   20.5579 C.ar    1  UNL1        0.0210
     10 C          -9.2550  -18.8639   21.0624 C.ar    1  UNL1        0.0222
     11 C         -10.4806  -19.2357   20.2816 C.ar    1  UNL1        0.0989
     12 N         -10.3485  -19.9974   18.9962 N.ar    1  UNL1       -0.2423
     13 C          -8.9908  -20.3873   18.4916 C.ar    1  UNL1        0.0989
     14 C          -7.7652  -20.0156   19.2725 C.ar    1  UNL1        0.0222
     15 N          -5.5379  -16.2192   24.0542 N.pl3   1  UNL1       -0.2977
     16 H          -4.7367  -15.9822   24.5749 H       1  UNL1        0.1500
     17 C          -6.8045  -15.4349   24.2283 C.3     1  UNL1        0.1596
     18 C          -7.8447  -15.8970   25.2053 C.2     1  UNL1        0.1928
     19 O          -7.6731  -15.6216   26.6698 O.2     1  UNL1       -0.2895
     20 C          -9.0565  -16.6346   24.7178 C.ar    1  UNL1        0.0364
     21 C          -9.9337  -16.0233   23.6657 C.ar    1  UNL1        0.0029
     22 C         -11.1454  -16.7609   23.1783 C.ar    1  UNL1        0.0001
     23 C         -11.4800  -18.1097   23.7429 C.ar    1  UNL1        0.0000
     24 C         -10.6028  -18.7210   24.7950 C.ar    1  UNL1        0.0001
     25 C          -9.3910  -17.9833   25.2825 C.ar    1  UNL1        0.0029
@<TRIPOS>BOND
     1     1     2    1
     2     2     3   ar
     3     3    15    1
     4    15    17    1
     5    17    18    1
     6    18    19    2
     7    18    20    1
     8    20    21   ar
     9    21    22   ar
    10    22    23   ar
    11    23    24   ar
    12    24    25   ar
    13     3     4   ar
    14     4     5   ar
    15     5     9    1
    16     9    10   ar
    17    10    11   ar
    18    11    12   ar
    19    12    13   ar
    20    13    14   ar
    21     5     6   ar
    22     6     7   ar
    23     7     8    2
    24     7     2   ar
    25    25    20   ar
    26    14     9   ar
    27    15    16    1
