@<TRIPOS>MOLECULE
*****
 23 26 0 0 0
SMALL
GASTEIGER

@<TRIPOS>ATOM
      1 C         -13.3405  -17.7857   23.6278 C.3     1  UNL1        0.1305
      2 N         -12.1709  -18.2249   22.7976 N.ar    1  UNL1       -0.3240
      3 C         -12.2270  -19.1363   21.6076 C.ar    1  UNL1        0.0760
      4 C         -10.8306  -19.3044   21.0862 C.ar    1  UNL1        0.0201
      5 C          -9.9115  -18.4970   21.9541 C.ar    1  UNL1        0.0185
      6 C          -8.4273  -18.2830   21.9179 C.ar    1  UNL1        0.0161
      7 C          -7.7714  -17.4019   22.9393 C.ar    1  UNL1        0.0514
      8 C          -8.5997  -16.7347   23.9970 C.ar    1  UNL1       -0.0053
      9 C         -10.0840  -16.9486   24.0332 C.ar    1  UNL1        0.0142
     10 C         -10.7398  -17.8298   23.0118 C.ar    1  UNL1        0.0597
     11 C          -7.6806  -15.9272   24.8648 C.3     1  UNL1        0.0496
     12 C          -6.2842  -16.0953   24.3436 C.3     1  UNL1        0.1045
     13 N          -6.3403  -17.0068   23.1535 N.am    1  UNL1       -0.2430
     14 C          -5.1707  -17.4459   22.3233 C.2     1  UNL1        0.3115
     15 O          -5.3819  -18.3648   21.1567 O.2     1  UNL1       -0.2519
     16 N          -3.7899  -16.9662   22.6599 N.am    1  UNL1       -0.2666
     17 H          -3.6513  -16.3631   23.4256 H       1  UNL1        0.1565
     18 C          -2.6202  -17.4053   21.8297 C.ar    1  UNL1        0.0709
     19 C          -1.7317  -16.3828   21.1855 C.ar    1  UNL1        0.0179
     20 C          -0.5621  -16.8220   20.3553 C.ar    1  UNL1        0.0220
     21 C          -0.2810  -18.2837   20.1695 C.ar    1  UNL1        0.0990
     22 N          -1.1695  -19.3061   20.8137 N.ar    1  UNL1       -0.2410
     23 C          -2.3391  -18.8670   21.6438 C.ar    1  UNL1        0.1135
@<TRIPOS>BOND
     1     1     2    1
     2     2     3   ar
     3     3     4   ar
     4     4     5   ar
     5     5     6   ar
     6     6     7   ar
     7     7     8   ar
     8     8     9   ar
     9     9    10   ar
    10     8    11    1
    11    11    12    1
    12    12    13    1
    13    13    14   am
    14    14    15    2
    15    14    16   am
    16    16    18    1
    17    18    19   ar
    18    19    20   ar
    19    20    21   ar
    20    21    22   ar
    21    22    23   ar
    22    10     2   ar
    23    23    18   ar
    24    10     5   ar
    25    13     7    1
    26    16    17    1
@<TRIPOS>MOLECULE
*****
 23 26 0 0 0
SMALL
GASTEIGER

@<TRIPOS>ATOM
      1 C         -14.0859  -18.3110   22.0786 C.3     1  UNL1        0.1305
      2 N         -12.6724  -17.9695   22.4469 N.ar    1  UNL1       -0.3240
      3 C         -12.2429  -17.1417   23.6216 C.ar    1  UNL1        0.0760
      4 C         -10.7454  -17.0564   23.6059 C.ar    1  UNL1        0.0201
      5 C         -10.2494  -17.8316   22.4213 C.ar    1  UNL1        0.0185
      6 C          -8.8672  -18.0965   21.9024 C.ar    1  UNL1        0.0161
      7 C          -8.6760  -18.9257   20.6672 C.ar    1  UNL1        0.0514
      8 C          -9.8669  -19.4900   19.9509 C.ar    1  UNL1       -0.0053
      9 C         -11.2492  -19.2251   20.4698 C.ar    1  UNL1        0.0142
     10 C         -11.4404  -18.3959   21.7050 C.ar    1  UNL1        0.0597
     11 C          -9.3710  -20.2652   18.7664 C.3     1  UNL1        0.0496
     12 C          -7.8735  -20.1800   18.7505 C.3     1  UNL1        0.1045
     13 N          -7.4440  -19.3521   19.9253 N.am    1  UNL1       -0.2430
     14 C          -6.0306  -19.0105   20.2936 C.2     1  UNL1        0.3115
     15 O          -5.7533  -18.1685   21.5036 O.2     1  UNL1       -0.2519
     16 N          -4.8943  -19.5111   19.4519 N.am    1  UNL1       -0.2666
     17 H          -5.0763  -20.0638   18.6577 H       1  UNL1        0.1565
     18 C          -3.4809  -19.1696   19.8201 C.ar    1  UNL1        0.0709
     19 C          -2.6928  -18.2189   18.9686 C.ar    1  UNL1        0.0179
     20 C          -1.2794  -17.8774   19.3369 C.ar    1  UNL1        0.0220
     21 C          -0.6541  -18.4866   20.5567 C.ar    1  UNL1        0.0990
     22 N          -1.4422  -19.4373   21.4082 N.ar    1  UNL1       -0.2410
     23 C          -2.8556  -19.7788   21.0399 C.ar    1  UNL1        0.1135
@<TRIPOS>BOND
     1     1     2    1
     2     2     3   ar
     3     3     4   ar
     4     4     5   ar
     5     5     6   ar
     6     6     7   ar
     7     7     8   ar
     8     8     9   ar
     9     9    10   ar
    10     8    11    1
    11    11    12    1
    12    12    13    1
    13    13    14   am
    14    14    15    2
    15    14    16   am
    16    16    18    1
    17    18    19   ar
    18    19    20   ar
    19    20    21   ar
    20    21    22   ar
    21    22    23   ar
    22    10     2   ar
    23    23    18   ar
    24    10     5   ar
    25    13     7    1
    26    16    17    1
@<TRIPOS>MOLECULE
*****
 23 26 0 0 0
SMALL
GASTEIGER

@<TRIPOS>ATOM
      1 C           6.6635   -2.0493   17.8578 C.3     1  UNL1        0.1305
      2 N           5.3285   -2.0661   18.5415 N.ar    1  UNL1       -0.3240
      3 C           4.6837   -3.2564   19.1876 C.ar    1  UNL1        0.0760
      4 C           3.3606   -2.8215   19.7446 C.ar    1  UNL1        0.0201
      5 C           3.1876   -1.3624   19.4428 C.ar    1  UNL1        0.0185
      6 C           2.0798   -0.3986   19.7489 C.ar    1  UNL1        0.0161
      7 C           2.1882    1.0321   19.3115 C.ar    1  UNL1        0.0514
      8 C           3.4044    1.4989   18.5679 C.ar    1  UNL1       -0.0053
      9 C           4.5123    0.5351   18.2618 C.ar    1  UNL1        0.0142
     10 C           4.4039   -0.8956   18.6992 C.ar    1  UNL1        0.0597
     11 C           3.2314    2.9580   18.2661 C.3     1  UNL1        0.0496
     12 C           1.9084    3.3930   18.8230 C.3     1  UNL1        0.1045
     13 N           1.2636    2.2026   19.4691 N.am    1  UNL1       -0.2430
     14 C          -0.0714    2.1858   20.1529 C.2     1  UNL1        0.3115
     15 O          -0.5891    0.9139   20.7562 O.2     1  UNL1       -0.2519
     16 N          -0.8887    3.4411   20.2333 N.am    1  UNL1       -0.2666
     17 H          -0.5489    4.2760   19.8373 H       1  UNL1        0.1565
     18 C          -2.2237    3.4243   20.9170 C.ar    1  UNL1        0.0709
     19 C          -2.3071    3.6037   22.4040 C.ar    1  UNL1        0.0179
     20 C          -3.6421    3.5869   23.0877 C.ar    1  UNL1        0.0220
     21 C          -4.8937    3.3907   22.2845 C.ar    1  UNL1        0.0990
     22 N          -4.8103    3.2114   20.7976 N.ar    1  UNL1       -0.2410
     23 C          -3.4753    3.2282   20.1139 C.ar    1  UNL1        0.1135
@<TRIPOS>BOND
     1     1     2    1
     2     2     3   ar
     3     3     4   ar
     4     4     5   ar
     5     5     6   ar
     6     6     7   ar
     7     7     8   ar
     8     8     9   ar
     9     9    10   ar
    10     8    11    1
    11    11    12    1
    12    12    13    1
    13    13    14   am
    14    14    15    2
    15    14    16   am
    16    16    18    1
    17    18    19   ar
    18    19    20   ar
    19    20    21   ar
    20    21    22   ar
    21    22    23   ar
    22    10     2   ar
    23    23    18   ar
    24    10     5   ar
    25    13     7    1
    26    16    17    1
@<TRIPOS>MOLECULE
*****
 23 26 0 0 0
SMALL
GASTEIGER

@<TRIPOS>ATOM
      1 C           6.1310   -3.9241   22.4654 C.3     1  UNL1        0.1305
      2 N           5.1766   -3.3516   21.4597 N.ar    1  UNL1       -0.3240
      3 C           5.0590   -3.7630   20.0221 C.ar    1  UNL1        0.0760
      4 C           3.9819   -2.9328   19.3889 C.ar    1  UNL1        0.0201
      5 C           3.4338   -2.0084   20.4354 C.ar    1  UNL1        0.0185
      6 C           2.3578   -0.9644   20.3882 C.ar    1  UNL1        0.0161
      7 C           2.0202   -0.1792   21.6209 C.ar    1  UNL1        0.0514
      8 C           2.7584   -0.4380   22.9006 C.ar    1  UNL1       -0.0053
      9 C           3.8345   -1.4821   22.9478 C.ar    1  UNL1        0.0142
     10 C           4.1722   -2.2672   21.7152 C.ar    1  UNL1        0.0597
     11 C           2.2103    0.4864   23.9470 C.3     1  UNL1        0.0496
     12 C           1.1333    1.3166   23.3140 C.3     1  UNL1        0.1045
     13 N           1.0158    0.9052   21.8763 N.am    1  UNL1       -0.2430
     14 C           0.0614    1.4777   20.8706 C.2     1  UNL1        0.3115
     15 O           0.0588    0.9634   19.4616 O.2     1  UNL1       -0.2519
     16 N          -0.8905    2.5646   21.2741 N.am    1  UNL1       -0.2666
     17 H          -0.8889    2.9021   22.1989 H       1  UNL1        0.1565
     18 C          -1.8449    3.1371   20.2684 C.ar    1  UNL1        0.0709
     19 C          -3.3210    3.1078   20.5339 C.ar    1  UNL1        0.0179
     20 C          -4.2754    3.6803   19.5283 C.ar    1  UNL1        0.0220
     21 C          -3.7537    4.2820   18.2571 C.ar    1  UNL1        0.0990
     22 N          -2.2777    4.3112   17.9916 N.ar    1  UNL1       -0.2410
     23 C          -1.3233    3.7387   18.9973 C.ar    1  UNL1        0.1135
@<TRIPOS>BOND
     1     1     2    1
     2     2     3   ar
     3     3     4   ar
     4     4     5   ar
     5     5     6   ar
     6     6     7   ar
     7     7     8   ar
     8     8     9   ar
     9     9    10   ar
    10     8    11    1
    11    11    12    1
    12    12    13    1
    13    13    14   am
    14    14    15    2
    15    14    16   am
    16    16    18    1
    17    18    19   ar
    18    19    20   ar
    19    20    21   ar
    20    21    22   ar
    21    22    23   ar
    22    10     2   ar
    23    23    18   ar
    24    10     5   ar
    25    13     7    1
    26    16    17    1
@<TRIPOS>MOLECULE
*****
 23 26 0 0 0
SMALL
GASTEIGER

@<TRIPOS>ATOM
      1 C           9.1487   -7.5716   23.7217 C.3     1  UNL1        0.1305
      2 N           8.4002   -6.4450   24.3700 N.ar    1  UNL1       -0.3240
      3 C           7.6313   -5.3720   23.6577 C.ar    1  UNL1        0.0760
      4 C           7.0450   -4.4573   24.6920 C.ar    1  UNL1        0.0201
      5 C           7.4516   -4.9651   26.0436 C.ar    1  UNL1        0.0185
      6 C           7.1674   -4.4676   27.4299 C.ar    1  UNL1        0.0161
      7 C           7.7208   -5.1985   28.6171 C.ar    1  UNL1        0.0514
      8 C           8.5582   -6.4268   28.4182 C.ar    1  UNL1       -0.0053
      9 C           8.8425   -6.9244   27.0319 C.ar    1  UNL1        0.0142
     10 C           8.2891   -6.1935   25.8446 C.ar    1  UNL1        0.0597
     11 C           8.9648   -6.9345   29.7698 C.3     1  UNL1        0.0496
     12 C           8.3787   -6.0200   30.8042 C.3     1  UNL1        0.1045
     13 N           7.6097   -4.9470   30.0917 N.am    1  UNL1       -0.2430
     14 C           6.8612   -3.8203   30.7401 C.2     1  UNL1        0.3115
     15 O           6.1349   -2.8173   29.8938 O.2     1  UNL1       -0.2519
     16 N           6.8391   -3.6967   32.2349 N.am    1  UNL1       -0.2666
     17 H           7.3159   -4.3551   32.7904 H       1  UNL1        0.1565
     18 C           6.0906   -2.5701   32.8833 C.ar    1  UNL1        0.0709
     19 C           6.8002   -1.2906   33.2143 C.ar    1  UNL1        0.0179
     20 C           6.0517   -0.1640   33.8627 C.ar    1  UNL1        0.0220
     21 C           4.5936   -0.3168   34.1801 C.ar    1  UNL1        0.0990
     22 N           3.8841   -1.5962   33.8490 N.ar    1  UNL1       -0.2410
     23 C           4.6326   -2.7228   33.2006 C.ar    1  UNL1        0.1135
@<TRIPOS>BOND
     1     1     2    1
     2     2     3   ar
     3     3     4   ar
     4     4     5   ar
     5     5     6   ar
     6     6     7   ar
     7     7     8   ar
     8     8     9   ar
     9     9    10   ar
    10     8    11    1
    11    11    12    1
    12    12    13    1
    13    13    14   am
    14    14    15    2
    15    14    16   am
    16    16    18    1
    17    18    19   ar
    18    19    20   ar
    19    20    21   ar
    20    21    22   ar
    21    22    23   ar
    22    10     2   ar
    23    23    18   ar
    24    10     5   ar
    25    13     7    1
    26    16    17    1
@<TRIPOS>MOLECULE
*****
 23 26 0 0 0
SMALL
GASTEIGER

@<TRIPOS>ATOM
      1 C           1.3370    1.2680   18.6300 C.3     1  UNL1        0.1305
      2 N           2.3397    0.1658   18.8026 N.ar    1  UNL1       -0.3240
      3 C           3.0166   -0.5912   17.6987 C.ar    1  UNL1        0.0760
      4 C           3.9368   -1.5978   18.3232 C.ar    1  UNL1        0.0201
      5 C           3.8287   -1.4628   19.8132 C.ar    1  UNL1        0.0185
      6 C           4.5015   -2.1916   20.9385 C.ar    1  UNL1        0.0161
      7 C           4.1873   -1.8303   22.3600 C.ar    1  UNL1        0.0514
      8 C           3.2003   -0.7405   22.6563 C.ar    1  UNL1       -0.0053
      9 C           2.5274   -0.0116   21.5310 C.ar    1  UNL1        0.0142
     10 C           2.8417   -0.3728   20.1095 C.ar    1  UNL1        0.0597
     11 C           3.0922   -0.6055   24.1463 C.3     1  UNL1        0.0496
     12 C           4.0123   -1.6120   24.7709 C.3     1  UNL1        0.1045
     13 N           4.6892   -2.3690   23.6669 N.am    1  UNL1       -0.2430
     14 C           5.6919   -3.4712   23.8395 C.2     1  UNL1        0.3115
     15 O           6.2869   -4.1392   22.6354 O.2     1  UNL1       -0.2519
     16 N           6.0996   -3.9054   25.2162 N.am    1  UNL1       -0.2666
     17 H           5.7091   -3.4670   26.0065 H       1  UNL1        0.1565
     18 C           7.1023   -5.0076   25.3888 C.ar    1  UNL1        0.0709
     19 C           6.8021   -6.1582   26.3033 C.ar    1  UNL1        0.0179
     20 C           7.8048   -7.2603   26.4759 C.ar    1  UNL1        0.0220
     21 C           9.1077   -7.2120   25.7340 C.ar    1  UNL1        0.0990
     22 N           9.4078   -6.0614   24.8196 N.ar    1  UNL1       -0.2410
     23 C           8.4051   -4.9592   24.6470 C.ar    1  UNL1        0.1135
@<TRIPOS>BOND
     1     1     2    1
     2     2     3   ar
     3     3     4   ar
     4     4     5   ar
     5     5     6   ar
     6     6     7   ar
     7     7     8   ar
     8     8     9   ar
     9     9    10   ar
    10     8    11    1
    11    11    12    1
    12    12    13    1
    13    13    14   am
    14    14    15    2
    15    14    16   am
    16    16    18    1
    17    18    19   ar
    18    19    20   ar
    19    20    21   ar
    20    21    22   ar
    21    22    23   ar
    22    10     2   ar
    23    23    18   ar
    24    10     5   ar
    25    13     7    1
    26    16    17    1
@<TRIPOS>MOLECULE
*****
 23 26 0 0 0
SMALL
GASTEIGER

@<TRIPOS>ATOM
      1 C           5.0595   -4.1666   19.1887 C.3     1  UNL1        0.1305
      2 N           4.7566   -3.4684   20.4813 N.ar    1  UNL1       -0.3240
      3 C           5.3902   -3.7585   21.8096 C.ar    1  UNL1        0.0760
      4 C           4.7921   -2.8269   22.8218 C.ar    1  UNL1        0.0201
      5 C           3.7889   -1.9611   22.1191 C.ar    1  UNL1        0.0185
      6 C           2.8925   -0.8629   22.6094 C.ar    1  UNL1        0.0161
      7 C           1.9742   -0.1612   21.6533 C.ar    1  UNL1        0.0514
      8 C           1.9522   -0.5576   20.2069 C.ar    1  UNL1       -0.0053
      9 C           2.8486   -1.6558   19.7164 C.ar    1  UNL1        0.0142
     10 C           3.7669   -2.3575   20.6726 C.ar    1  UNL1        0.0597
     11 C           0.9490    0.3083   19.5041 C.3     1  UNL1        0.0496
     12 C           0.3509    1.2398   20.5162 C.3     1  UNL1        0.1045
     13 N           0.9845    0.9497   21.8446 N.am    1  UNL1       -0.2430
     14 C           0.6816    1.6479   23.1372 C.2     1  UNL1        0.3115
     15 O           1.3990    1.2471   24.3920 O.2     1  UNL1       -0.2519
     16 N          -0.3387    2.7468   23.1748 N.am    1  UNL1       -0.2666
     17 H          -0.8095    3.0098   22.3512 H       1  UNL1        0.1565
     18 C          -0.6416    3.4450   24.4674 C.ar    1  UNL1        0.0709
     19 C          -1.7670    2.9632   25.3343 C.ar    1  UNL1        0.0179
     20 C          -2.0699    3.6613   26.6269 C.ar    1  UNL1        0.0220
     21 C          -1.2474    4.8413   27.0527 C.ar    1  UNL1        0.0990
     22 N          -0.1220    5.3231   26.1858 N.ar    1  UNL1       -0.2410
     23 C           0.1809    4.6249   24.8932 C.ar    1  UNL1        0.1135
@<TRIPOS>BOND
     1     1     2    1
     2     2     3   ar
     3     3     4   ar
     4     4     5   ar
     5     5     6   ar
     6     6     7   ar
     7     7     8   ar
     8     8     9   ar
     9     9    10   ar
    10     8    11    1
    11    11    12    1
    12    12    13    1
    13    13    14   am
    14    14    15    2
    15    14    16   am
    16    16    18    1
    17    18    19   ar
    18    19    20   ar
    19    20    21   ar
    20    21    22   ar
    21    22    23   ar
    22    10     2   ar
    23    23    18   ar
    24    10     5   ar
    25    13     7    1
    26    16    17    1
@<TRIPOS>MOLECULE
*****
 23 26 0 0 0
SMALL
GASTEIGER

@<TRIPOS>ATOM
      1 C           2.9809    0.2819   27.4267 C.3     1  UNL1        0.1305
      2 N           1.5683    0.6712   27.7481 N.ar    1  UNL1       -0.3240
      3 C           0.8501    0.3986   29.0364 C.ar    1  UNL1        0.0760
      4 C          -0.5361    0.9603   28.9222 C.ar    1  UNL1        0.0201
      5 C          -0.6746    1.5800   27.5632 C.ar    1  UNL1        0.0185
      6 C          -1.8169    2.2839   26.8927 C.ar    1  UNL1        0.0161
      7 C          -1.6586    2.8091   25.4966 C.ar    1  UNL1        0.0514
      8 C          -0.3581    2.6304   24.7710 C.ar    1  UNL1       -0.0053
      9 C           0.7843    1.9265   25.4415 C.ar    1  UNL1        0.0142
     10 C           0.6261    1.4013   26.8376 C.ar    1  UNL1        0.0597
     11 C          -0.4965    3.2500   23.4120 C.3     1  UNL1        0.0496
     12 C          -1.8826    3.8117   23.2977 C.3     1  UNL1        0.1045
     13 N          -2.6009    3.5392   24.5861 N.am    1  UNL1       -0.2430
     14 C          -4.0134    3.9284   24.9075 C.2     1  UNL1        0.3115
     15 O          -4.5998    3.5864   26.2450 O.2     1  UNL1       -0.2519
     16 N          -4.8396    4.6597   23.8912 N.am    1  UNL1       -0.2666
     17 H          -4.4547    4.8842   23.0133 H       1  UNL1        0.1565
     18 C          -6.2521    5.0489   24.2126 C.ar    1  UNL1        0.0709
     19 C          -6.5220    6.1358   25.2106 C.ar    1  UNL1        0.0179
     20 C          -7.9345    6.5250   25.5319 C.ar    1  UNL1        0.0220
     21 C          -9.0771    5.8273   24.8553 C.ar    1  UNL1        0.0990
     22 N          -8.8072    4.7405   23.8574 N.ar    1  UNL1       -0.2410
     23 C          -7.3947    4.3513   23.5360 C.ar    1  UNL1        0.1135
@<TRIPOS>BOND
     1     1     2    1
     2     2     3   ar
     3     3     4   ar
     4     4     5   ar
     5     5     6   ar
     6     6     7   ar
     7     7     8   ar
     8     8     9   ar
     9     9    10   ar
    10     8    11    1
    11    11    12    1
    12    12    13    1
    13    13    14   am
    14    14    15    2
    15    14    16   am
    16    16    18    1
    17    18    19   ar
    18    19    20   ar
    19    20    21   ar
    20    21    22   ar
    21    22    23   ar
    22    10     2   ar
    23    23    18   ar
    24    10     5   ar
    25    13     7    1
    26    16    17    1
@<TRIPOS>MOLECULE
*****
 23 26 0 0 0
SMALL
GASTEIGER

@<TRIPOS>ATOM
      1 C           3.6228   -2.3751   19.1623 C.3     1  UNL1        0.1305
      2 N           3.5704   -1.9799   20.6084 N.ar    1  UNL1       -0.3240
      3 C           2.6468   -0.9636   21.2118 C.ar    1  UNL1        0.0760
      4 C           2.9380   -0.8872   22.6812 C.ar    1  UNL1        0.0201
      5 C           4.0417   -1.8563   22.9861 C.ar    1  UNL1        0.0185
      6 C           4.7412   -2.2110   24.2646 C.ar    1  UNL1        0.0161
      7 C           5.8316   -3.2410   24.2621 C.ar    1  UNL1        0.0514
      8 C           6.2225   -3.9163   22.9811 C.ar    1  UNL1       -0.0053
      9 C           5.5229   -3.5616   21.7024 C.ar    1  UNL1        0.0142
     10 C           4.4325   -2.5315   21.7049 C.ar    1  UNL1        0.0597
     11 C           7.3261   -4.8853   23.2859 C.3     1  UNL1        0.0496
     12 C           7.6174   -4.8090   24.7553 C.3     1  UNL1        0.1045
     13 N           6.6937   -3.7927   25.3587 N.am    1  UNL1       -0.2430
     14 C           6.6413   -3.3975   26.8047 C.2     1  UNL1        0.3115
     15 O           5.6593   -2.3607   27.2638 O.2     1  UNL1       -0.2519
     16 N           7.5709   -4.0392   27.7917 N.am    1  UNL1       -0.2666
     17 H           8.2155   -4.7197   27.4904 H       1  UNL1        0.1565
     18 C           7.5186   -3.6440   29.2378 C.ar    1  UNL1        0.0709
     19 C           6.8205   -4.5249   30.2312 C.ar    1  UNL1        0.0179
     20 C           6.7681   -4.1297   31.6773 C.ar    1  UNL1        0.0220
     21 C           7.4138   -2.8536   32.1299 C.ar    1  UNL1        0.0990
     22 N           8.1118   -1.9728   31.1365 N.ar    1  UNL1       -0.2410
     23 C           8.1642   -2.3680   29.6904 C.ar    1  UNL1        0.1135
@<TRIPOS>BOND
     1     1     2    1
     2     2     3   ar
     3     3     4   ar
     4     4     5   ar
     5     5     6   ar
     6     6     7   ar
     7     7     8   ar
     8     8     9   ar
     9     9    10   ar
    10     8    11    1
    11    11    12    1
    12    12    13    1
    13    13    14   am
    14    14    15    2
    15    14    16   am
    16    16    18    1
    17    18    19   ar
    18    19    20   ar
    19    20    21   ar
    20    21    22   ar
    21    22    23   ar
    22    10     2   ar
    23    23    18   ar
    24    10     5   ar
    25    13     7    1
    26    16    17    1
