@<TRIPOS>MOLECULE
*****
 21 22 0 0 0
SMALL
GASTEIGER

@<TRIPOS>ATOM
      1 C         -12.2020  -17.2835   22.1277 C.2     1  UNL1        0.4049
      2 O         -12.2074  -15.9507   21.4394 O.2     1  UNL1       -0.2262
      3 N         -10.9296  -18.0717   22.2259 N.am    1  UNL1       -0.2454
      4 C         -10.9242  -19.4044   22.9141 C.3     1  UNL1        0.1011
      5 C          -9.6518  -20.1927   23.0124 C.3     1  UNL1        0.0443
      6 C          -8.3848  -19.6481   22.4225 C.2     1  UNL1       -0.0326
      7 C          -7.1123  -20.4363   22.5207 C.2     1  UNL1        0.0412
      8 C          -8.3902  -18.3154   21.7343 C.3     1  UNL1        0.0443
      9 C          -9.6626  -17.5271   21.6360 C.3     1  UNL1        0.1011
     10 C          -5.8453  -19.8918   21.9308 C.1     1  UNL1       -0.0598
     11 C          -4.5782  -19.3472   21.3409 C.1     1  UNL1       -0.0598
     12 C          -3.3112  -18.8026   20.7509 C.ar    1  UNL1        0.0417
     13 C          -2.0886  -18.6537   21.6072 C.ar    1  UNL1        0.0082
     14 C          -0.8216  -18.1091   21.0173 C.ar    1  UNL1        0.0003
     15 C          -0.7770  -17.7135   19.5711 C.ar    1  UNL1       -0.0042
     16 C          -1.9996  -17.8624   18.7148 C.ar    1  UNL1       -0.0212
     17 C          -1.9550  -17.4668   17.2686 C.3     1  UNL1        0.0310
     18 C          -3.2667  -18.4070   19.3047 C.ar    1  UNL1        0.0040
     19 O         -13.4691  -17.8280   22.7176 O.3     1  UNL1       -0.4345
     20 C         -14.8412  -18.5116   24.8152 C.3     1  UNL1        0.0513
     21 C         -13.6920  -17.7696   24.1998 C.3     1  UNL1        0.2102
@<TRIPOS>BOND
     1    20    21    1
     2    21    19    1
     3    19     1    1
     4     1     2    2
     5     1     3   am
     6     3     4    1
     7     4     5    1
     8     5     6    1
     9     6     7    2
    10     7    10    1
    11    10    11    3
    12    11    12    1
    13    12    13   ar
    14    13    14   ar
    15    14    15   ar
    16    15    16   ar
    17    16    17    1
    18    16    18   ar
    19     6     8    1
    20     8     9    1
    21     9     3    1
    22    18    12   ar
@<TRIPOS>MOLECULE
*****
 21 22 0 0 0
SMALL
GASTEIGER

@<TRIPOS>ATOM
      1 C           2.4550   -0.0555   30.7160 C.2     1  UNL1        0.4049
      2 O           1.0586    0.4014   30.4136 O.2     1  UNL1       -0.2262
      3 N           3.3163   -0.6106   29.6206 N.am    1  UNL1       -0.2454
      4 C           4.7126   -1.0674   29.9230 C.3     1  UNL1        0.1011
      5 C           5.5739   -1.6226   28.8276 C.3     1  UNL1        0.0443
      6 C           5.0389   -1.7208   27.4297 C.2     1  UNL1       -0.0326
      7 C           5.9001   -2.2760   26.3343 C.2     1  UNL1        0.0412
      8 C           3.6425   -1.2640   27.1273 C.3     1  UNL1        0.0443
      9 C           2.7812   -0.7088   28.2227 C.3     1  UNL1        0.1011
     10 C           5.3651   -2.3742   24.9364 C.1     1  UNL1       -0.0598
     11 C           4.8301   -2.4725   23.5385 C.1     1  UNL1       -0.0598
     12 C           4.2951   -2.5708   22.1406 C.ar    1  UNL1        0.0417
     13 C           3.4359   -1.4726   21.5874 C.ar    1  UNL1        0.0082
     14 C           2.9009   -1.5708   20.1896 C.ar    1  UNL1        0.0003
     15 C           3.2249   -2.7673   19.3448 C.ar    1  UNL1       -0.0042
     16 C           4.0840   -3.8654   19.8980 C.ar    1  UNL1       -0.0212
     17 C           4.4081   -5.0618   19.0532 C.3     1  UNL1        0.0310
     18 C           4.6191   -3.7672   21.2959 C.ar    1  UNL1        0.0040
     19 O           2.9900    0.0428   32.1139 O.3     1  UNL1       -0.4345
     20 C           2.0375    2.0741   33.4241 C.3     1  UNL1        0.0513
     21 C           3.1874    1.3875   32.7486 C.3     1  UNL1        0.2102
@<TRIPOS>BOND
     1    20    21    1
     2    21    19    1
     3    19     1    1
     4     1     2    2
     5     1     3   am
     6     3     4    1
     7     4     5    1
     8     5     6    1
     9     6     7    2
    10     7    10    1
    11    10    11    3
    12    11    12    1
    13    12    13   ar
    14    13    14   ar
    15    14    15   ar
    16    15    16   ar
    17    16    17    1
    18    16    18   ar
    19     6     8    1
    20     8     9    1
    21     9     3    1
    22    18    12   ar
@<TRIPOS>MOLECULE
*****
 21 22 0 0 0
SMALL
GASTEIGER

@<TRIPOS>ATOM
      1 C           0.8991    0.2227   19.4994 C.2     1  UNL1        0.4049
      2 O          -0.0691    0.1686   20.6438 O.2     1  UNL1       -0.2262
      3 N           2.2214   -0.4781   19.6019 N.am    1  UNL1       -0.2454
      4 C           3.1896   -0.4239   18.4575 C.3     1  UNL1        0.1011
      5 C           4.5118   -1.1247   18.5600 C.3     1  UNL1        0.0443
      6 C           4.8659   -1.8797   19.8068 C.2     1  UNL1       -0.0326
      7 C           6.1881   -2.5805   19.9092 C.2     1  UNL1        0.0412
      8 C           3.8977   -1.9338   20.9511 C.3     1  UNL1        0.0443
      9 C           2.5754   -1.2330   20.8487 C.3     1  UNL1        0.1011
     10 C           6.5422   -3.3354   21.1561 C.1     1  UNL1       -0.0598
     11 C           6.8963   -4.0905   22.4029 C.1     1  UNL1       -0.0598
     12 C           7.2504   -4.8455   23.6498 C.ar    1  UNL1        0.0417
     13 C           6.6406   -4.4530   24.9629 C.ar    1  UNL1        0.0082
     14 C           6.9947   -5.2079   26.2097 C.ar    1  UNL1        0.0003
     15 C           7.9585   -6.3554   26.1435 C.ar    1  UNL1       -0.0042
     16 C           8.5682   -6.7479   24.8305 C.ar    1  UNL1       -0.0212
     17 C           9.5321   -7.8954   24.7643 C.3     1  UNL1        0.0310
     18 C           8.2142   -5.9929   23.5835 C.ar    1  UNL1        0.0040
     19 O           0.5450    0.9777   18.2526 O.3     1  UNL1       -0.4345
     20 C          -0.3594    3.2878   19.0244 C.3     1  UNL1        0.0513
     21 C           0.6239    2.4755   18.2348 C.3     1  UNL1        0.2102
@<TRIPOS>BOND
     1    20    21    1
     2    21    19    1
     3    19     1    1
     4     1     2    2
     5     1     3   am
     6     3     4    1
     7     4     5    1
     8     5     6    1
     9     6     7    2
    10     7    10    1
    11    10    11    3
    12    11    12    1
    13    12    13   ar
    14    13    14   ar
    15    14    15   ar
    16    15    16   ar
    17    16    17    1
    18    16    18   ar
    19     6     8    1
    20     8     9    1
    21     9     3    1
    22    18    12   ar
@<TRIPOS>MOLECULE
*****
 21 22 0 0 0
SMALL
GASTEIGER

@<TRIPOS>ATOM
      1 C         -13.8881    0.9102   17.8174 C.2     1  UNL1        0.4049
      2 O         -15.2811    1.2853   17.4068 O.2     1  UNL1       -0.2262
      3 N         -13.5743   -0.5062   18.1986 N.am    1  UNL1       -0.2454
      4 C         -12.1812   -0.8813   18.6092 C.3     1  UNL1        0.1011
      5 C         -11.8674   -2.2977   18.9904 C.3     1  UNL1        0.0443
      6 C         -12.9467   -3.3390   18.9611 C.2     1  UNL1       -0.0326
      7 C         -12.6329   -4.7554   19.3423 C.2     1  UNL1        0.0412
      8 C         -14.3397   -2.9639   18.5505 C.3     1  UNL1        0.0443
      9 C         -14.6535   -1.5475   18.1693 C.3     1  UNL1        0.1011
     10 C         -13.7122   -5.7967   19.3130 C.1     1  UNL1       -0.0598
     11 C         -14.7915   -6.8380   19.2837 C.1     1  UNL1       -0.0598
     12 C         -15.8708   -7.8792   19.2543 C.ar    1  UNL1        0.0417
     13 C         -15.6279   -9.1922   18.5707 C.ar    1  UNL1        0.0082
     14 C         -16.7071  -10.2335   18.5414 C.ar    1  UNL1        0.0003
     15 C         -18.0293   -9.9619   19.1956 C.ar    1  UNL1       -0.0042
     16 C         -18.2723   -8.6490   19.8792 C.ar    1  UNL1       -0.0212
     17 C         -19.5945   -8.3774   20.5334 C.3     1  UNL1        0.0310
     18 C         -17.1930   -7.6076   19.9086 C.ar    1  UNL1        0.0040
     19 O         -12.8088    1.9515   17.8467 O.3     1  UNL1       -0.4345
     20 C         -13.2073    4.2297   16.6631 C.3     1  UNL1        0.0513
     21 C         -12.6064    2.8553   16.6669 C.3     1  UNL1        0.2102
@<TRIPOS>BOND
     1    20    21    1
     2    21    19    1
     3    19     1    1
     4     1     2    2
     5     1     3   am
     6     3     4    1
     7     4     5    1
     8     5     6    1
     9     6     7    2
    10     7    10    1
    11    10    11    3
    12    11    12    1
    13    12    13   ar
    14    13    14   ar
    15    14    15   ar
    16    15    16   ar
    17    16    17    1
    18    16    18   ar
    19     6     8    1
    20     8     9    1
    21     9     3    1
    22    18    12   ar
@<TRIPOS>MOLECULE
*****
 21 22 0 0 0
SMALL
GASTEIGER

@<TRIPOS>ATOM
      1 C         -10.4827   -5.8960   19.0635 C.2     1  UNL1        0.4049
      2 O          -9.2684   -5.0203   18.9707 O.2     1  UNL1       -0.2262
      3 N         -11.8370   -5.2819   19.2600 N.am    1  UNL1       -0.2454
      4 C         -13.0513   -6.1576   19.3528 C.3     1  UNL1        0.1011
      5 C         -14.4056   -5.5435   19.5493 C.3     1  UNL1        0.0443
      6 C         -14.5457   -4.0537   19.6530 C.2     1  UNL1       -0.0326
      7 C         -15.9001   -3.4396   19.8496 C.2     1  UNL1        0.0412
      8 C         -13.3315   -3.1780   19.5602 C.3     1  UNL1        0.0443
      9 C         -11.9771   -3.7921   19.3637 C.3     1  UNL1        0.1011
     10 C         -16.0402   -1.9498   19.9533 C.1     1  UNL1       -0.0598
     11 C         -16.1803   -0.4600   20.0570 C.1     1  UNL1       -0.0598
     12 C         -16.3204    1.0298   20.1607 C.ar    1  UNL1        0.0417
     13 C         -15.5307    1.9227   19.2501 C.ar    1  UNL1        0.0082
     14 C         -15.6708    3.4125   19.3538 C.ar    1  UNL1        0.0003
     15 C         -16.6006    4.0095   20.3682 C.ar    1  UNL1       -0.0042
     16 C         -17.3903    3.1168   21.2788 C.ar    1  UNL1       -0.0212
     17 C         -18.3201    3.7139   22.2931 C.3     1  UNL1        0.0310
     18 C         -17.2502    1.6269   21.1751 C.ar    1  UNL1        0.0040
     19 O         -10.3426   -7.3858   18.9597 O.3     1  UNL1       -0.4345
     20 C         -11.3486   -7.7469   16.5917 C.3     1  UNL1        0.0513
     21 C         -10.2894   -8.0421   17.6120 C.3     1  UNL1        0.2102
@<TRIPOS>BOND
     1    20    21    1
     2    21    19    1
     3    19     1    1
     4     1     2    2
     5     1     3   am
     6     3     4    1
     7     4     5    1
     8     5     6    1
     9     6     7    2
    10     7    10    1
    11    10    11    3
    12    11    12    1
    13    12    13   ar
    14    13    14   ar
    15    14    15   ar
    16    15    16   ar
    17    16    17    1
    18    16    18   ar
    19     6     8    1
    20     8     9    1
    21     9     3    1
    22    18    12   ar
@<TRIPOS>MOLECULE
*****
 21 22 0 0 0
SMALL
GASTEIGER

@<TRIPOS>ATOM
      1 C           1.7166    1.2946   28.2641 C.2     1  UNL1        0.4049
      2 O           2.8938    0.5930   28.8739 O.2     1  UNL1       -0.2262
      3 N           1.4876    1.2268   26.7832 N.am    1  UNL1       -0.2454
      4 C           0.3103    1.9284   26.1735 C.3     1  UNL1        0.1011
      5 C           0.0814    1.8606   24.6926 C.3     1  UNL1        0.0443
      6 C           1.0296    1.0912   23.8215 C.2     1  UNL1       -0.0326
      7 C           0.8007    1.0235   22.3406 C.2     1  UNL1        0.0412
      8 C           2.2069    0.3897   24.4313 C.3     1  UNL1        0.0443
      9 C           2.4358    0.4575   25.9121 C.3     1  UNL1        0.1011
     10 C           1.7489    0.2541   21.4695 C.1     1  UNL1       -0.0598
     11 C           2.6972   -0.5152   20.5983 C.1     1  UNL1       -0.0598
     12 C           3.6455   -1.2845   19.7272 C.ar    1  UNL1        0.0417
     13 C           4.6309   -0.5544   18.8636 C.ar    1  UNL1        0.0082
     14 C           5.5792   -1.3237   17.9925 C.ar    1  UNL1        0.0003
     15 C           5.5421   -2.8232   17.9850 C.ar    1  UNL1       -0.0042
     16 C           4.5568   -3.5534   18.8486 C.ar    1  UNL1       -0.0212
     17 C           4.5197   -5.0529   18.8411 C.3     1  UNL1        0.0310
     18 C           3.6084   -2.7841   19.7198 C.ar    1  UNL1        0.0040
     19 O           0.7683    2.0639   29.1352 O.3     1  UNL1       -0.4345
     20 C          -1.1599    0.3229   29.1698 C.3     1  UNL1        0.0513
     21 C          -0.3201    1.3455   29.8763 C.3     1  UNL1        0.2102
@<TRIPOS>BOND
     1    20    21    1
     2    21    19    1
     3    19     1    1
     4     1     2    2
     5     1     3   am
     6     3     4    1
     7     4     5    1
     8     5     6    1
     9     6     7    2
    10     7    10    1
    11    10    11    3
    12    11    12    1
    13    12    13   ar
    14    13    14   ar
    15    14    15   ar
    16    15    16   ar
    17    16    17    1
    18    16    18   ar
    19     6     8    1
    20     8     9    1
    21     9     3    1
    22    18    12   ar
@<TRIPOS>MOLECULE
*****
 21 22 0 0 0
SMALL
GASTEIGER

@<TRIPOS>ATOM
      1 C           4.0783   -1.2965   17.8546 C.2     1  UNL1        0.4049
      2 O           3.9658   -1.1532   16.3657 O.2     1  UNL1       -0.2262
      3 N           3.1090   -0.5854   18.7518 N.am    1  UNL1       -0.2454
      4 C           3.2215   -0.7287   20.2407 C.3     1  UNL1        0.1011
      5 C           2.2522   -0.0176   21.1379 C.3     1  UNL1        0.0443
      6 C           1.1706    0.8366   20.5462 C.2     1  UNL1       -0.0326
      7 C           0.2013    1.5477   21.4434 C.2     1  UNL1        0.0412
      8 C           1.0581    0.9799   19.0574 C.3     1  UNL1        0.0443
      9 C           2.0274    0.2689   18.1601 C.3     1  UNL1        0.1011
     10 C          -0.8804    2.4019   20.8518 C.1     1  UNL1       -0.0598
     11 C          -1.9621    3.2563   20.2601 C.1     1  UNL1       -0.0598
     12 C          -3.0438    4.1106   19.6685 C.ar    1  UNL1        0.0417
     13 C          -2.7339    5.5070   19.2166 C.ar    1  UNL1        0.0082
     14 C          -3.8156    6.3613   18.6249 C.ar    1  UNL1        0.0003
     15 C          -5.2072    5.8192   18.4851 C.ar    1  UNL1       -0.0042
     16 C          -5.5172    4.4229   18.9370 C.ar    1  UNL1       -0.0212
     17 C          -6.9088    3.8809   18.7972 C.3     1  UNL1        0.0310
     18 C          -4.4355    3.5686   19.5287 C.ar    1  UNL1        0.0040
     19 O           5.1600   -2.1507   18.4462 O.3     1  UNL1       -0.4345
     20 C           3.6319   -4.1790   18.9950 C.3     1  UNL1        0.0513
     21 C           4.9624   -3.6326   18.5693 C.3     1  UNL1        0.2102
@<TRIPOS>BOND
     1    20    21    1
     2    21    19    1
     3    19     1    1
     4     1     2    2
     5     1     3   am
     6     3     4    1
     7     4     5    1
     8     5     6    1
     9     6     7    2
    10     7    10    1
    11    10    11    3
    12    11    12    1
    13    12    13   ar
    14    13    14   ar
    15    14    15   ar
    16    15    16   ar
    17    16    17    1
    18    16    18   ar
    19     6     8    1
    20     8     9    1
    21     9     3    1
    22    18    12   ar
@<TRIPOS>MOLECULE
*****
 21 22 0 0 0
SMALL
GASTEIGER

@<TRIPOS>ATOM
      1 C         -11.9810  -17.4580   22.2442 C.2     1  UNL1        0.4049
      2 O         -12.1999  -18.2994   21.0220 O.2     1  UNL1       -0.2262
      3 N         -10.5865  -17.1546   22.7061 N.am    1  UNL1       -0.2454
      4 C         -10.3676  -16.3132   23.9284 C.3     1  UNL1        0.1011
      5 C          -8.9731  -16.0098   24.3902 C.3     1  UNL1        0.0443
      6 C          -7.7975  -16.5480   23.6299 C.2     1  UNL1       -0.0326
      7 C          -6.4030  -16.2446   24.0917 C.2     1  UNL1        0.0412
      8 C          -8.0164  -17.3894   22.4076 C.3     1  UNL1        0.0443
      9 C          -9.4109  -17.6928   21.9457 C.3     1  UNL1        0.1011
     10 C          -5.2273  -16.7828   23.3314 C.1     1  UNL1       -0.0598
     11 C          -4.0516  -17.3209   22.5710 C.1     1  UNL1       -0.0598
     12 C          -2.8760  -17.8591   21.8106 C.ar    1  UNL1        0.0417
     13 C          -2.7138  -19.3393   21.6294 C.ar    1  UNL1        0.0082
     14 C          -1.5381  -19.8774   20.8690 C.ar    1  UNL1        0.0003
     15 C          -0.5246  -18.9354   20.2898 C.ar    1  UNL1       -0.0042
     16 C          -0.6868  -17.4553   20.4710 C.ar    1  UNL1       -0.0212
     17 C           0.3267  -16.5133   19.8918 C.3     1  UNL1        0.0310
     18 C          -1.8625  -16.9171   21.2314 C.ar    1  UNL1        0.0040
     19 O         -13.1567  -16.9198   23.0046 O.3     1  UNL1       -0.4345
     20 C         -13.3780  -18.5496   25.0158 C.3     1  UNL1        0.0513
     21 C         -13.9913  -17.8402   23.8450 C.3     1  UNL1        0.2102
@<TRIPOS>BOND
     1    20    21    1
     2    21    19    1
     3    19     1    1
     4     1     2    2
     5     1     3   am
     6     3     4    1
     7     4     5    1
     8     5     6    1
     9     6     7    2
    10     7    10    1
    11    10    11    3
    12    11    12    1
    13    12    13   ar
    14    13    14   ar
    15    14    15   ar
    16    15    16   ar
    17    16    17    1
    18    16    18   ar
    19     6     8    1
    20     8     9    1
    21     9     3    1
    22    18    12   ar
@<TRIPOS>MOLECULE
*****
 21 22 0 0 0
SMALL
GASTEIGER

@<TRIPOS>ATOM
      1 C           7.8821   -5.5727   27.0497 C.2     1  UNL1        0.4049
      2 O           6.8413   -4.9827   27.9544 O.2     1  UNL1       -0.2262
      3 N           7.8528   -5.2768   25.5795 N.am    1  UNL1       -0.2454
      4 C           8.8936   -5.8669   24.6747 C.3     1  UNL1        0.1011
      5 C           8.8642   -5.5709   23.2045 C.3     1  UNL1        0.0443
      6 C           7.7941   -4.6849   22.6390 C.2     1  UNL1       -0.0326
      7 C           7.7648   -4.3890   21.1688 C.2     1  UNL1        0.0412
      8 C           6.7534   -4.0949   23.5437 C.3     1  UNL1        0.0443
      9 C           6.7827   -4.3908   25.0139 C.3     1  UNL1        0.1011
     10 C           6.6947   -3.5030   20.6033 C.1     1  UNL1       -0.0598
     11 C           5.6245   -2.6170   20.0377 C.1     1  UNL1       -0.0598
     12 C           4.5544   -1.7310   19.4722 C.ar    1  UNL1        0.0417
     13 C           4.7735   -1.0321   18.1631 C.ar    1  UNL1        0.0082
     14 C           3.7034   -0.1461   17.5976 C.ar    1  UNL1        0.0003
     15 C           2.4142    0.0410   18.3411 C.ar    1  UNL1       -0.0042
     16 C           2.1950   -0.6578   19.6501 C.ar    1  UNL1       -0.0212
     17 C           0.9058   -0.4707   20.3936 C.3     1  UNL1        0.0310
     18 C           3.2651   -1.5439   20.2157 C.ar    1  UNL1        0.0040
     19 O           8.9522   -6.4587   27.6152 O.3     1  UNL1       -0.4345
     20 C           8.3677   -8.9781   27.3682 C.3     1  UNL1        0.0513
     21 C           8.5862   -7.7743   28.2360 C.3     1  UNL1        0.2102
@<TRIPOS>BOND
     1    20    21    1
     2    21    19    1
     3    19     1    1
     4     1     2    2
     5     1     3   am
     6     3     4    1
     7     4     5    1
     8     5     6    1
     9     6     7    2
    10     7    10    1
    11    10    11    3
    12    11    12    1
    13    12    13   ar
    14    13    14   ar
    15    14    15   ar
    16    15    16   ar
    17    16    17    1
    18    16    18   ar
    19     6     8    1
    20     8     9    1
    21     9     3    1
    22    18    12   ar
