@<TRIPOS>MOLECULE
*****
 25 28 0 0 0
SMALL
GASTEIGER

@<TRIPOS>ATOM
      1 C          -5.3533  -15.9477   25.6847 C.3     1  UNL1        0.1363
      2 N          -6.6076  -16.1297   24.8825 N.ar    1  UNL1       -0.2667
      3 C          -6.5407  -16.7396   23.5137 C.ar    1  UNL1        0.2035
      4 N          -7.7950  -16.9216   22.7115 N.ar    1  UNL1       -0.2147
      5 C          -9.1163  -16.4937   23.2781 C.ar    1  UNL1        0.0911
      6 C          -9.1833  -15.8838   24.6468 C.ar    1  UNL1        0.0801
      7 C          -7.9290  -15.7018   25.4491 C.ar    1  UNL1        0.2645
      8 O          -7.9960  -15.0919   26.8178 O.2     1  UNL1       -0.2668
      9 N          -5.2193  -17.1675   22.9471 N.pl3   1  UNL1       -0.2761
     10 C          -3.9868  -16.3592   23.2254 C.3     1  UNL1        0.1256
     11 C          -2.6655  -16.7870   22.6589 C.3     1  UNL1        0.1635
     12 O          -2.5767  -18.0232   21.8140 O.3     1  UNL1       -0.3527
     13 C          -3.8092  -18.8316   21.5356 C.3     1  UNL1        0.1333
     14 C          -3.7204  -20.0679   20.6908 C.3     1  UNL1        0.0313
     15 C          -4.9529  -20.8762   20.4125 C.3     1  UNL1        0.0026
     16 C          -6.2742  -20.4483   20.9790 C.3     1  UNL1        0.0019
     17 C          -6.3631  -19.2121   21.8239 C.3     1  UNL1        0.0223
     18 C          -5.1306  -18.4038   22.1022 C.3     1  UNL1        0.1026
     19 C         -10.3707  -16.6758   22.4758 C.ar    1  UNL1        0.0485
     20 C         -10.5199  -15.9886   21.1509 C.ar    1  UNL1        0.0244
     21 C         -11.7741  -16.1706   20.3486 C.ar    1  UNL1        0.0991
     22 N         -12.8792  -17.0397   20.8713 N.ar    1  UNL1       -0.2400
     23 C         -12.7300  -17.7269   22.1963 C.ar    1  UNL1        0.1285
     24 C         -11.4757  -17.5449   22.9985 C.ar    1  UNL1        0.1606
     25 F         -11.3266  -18.2321   24.3235 F       1  UNL1       -0.2025
@<TRIPOS>BOND
     1     1     2    1
     2     2     3   ar
     3     3     9    1
     4     9    10    1
     5    10    11    1
     6    11    12    1
     7    12    13    1
     8    13    14    1
     9    14    15    1
    10    15    16    1
    11    16    17    1
    12    18    17    1
    13     3     4   ar
    14     4     5   ar
    15     5    19    1
    16    19    20   ar
    17    20    21   ar
    18    21    22   ar
    19    22    23   ar
    20    23    24   ar
    21    24    25    1
    22     5     6   ar
    23     6     7   ar
    24     7     8    2
    25     7     2   ar
    26    18     9    1
    27    24    19   ar
    28    18    13    1
@<TRIPOS>MOLECULE
*****
 25 28 0 0 0
SMALL
GASTEIGER

@<TRIPOS>ATOM
      1 C         -10.2264  -19.5905   20.7557 C.3     1  UNL1        0.1363
      2 N          -8.7344  -19.4652   20.6667 N.ar    1  UNL1       -0.2667
      3 C          -7.9401  -19.0829   21.8804 C.ar    1  UNL1        0.2035
      4 N          -6.4480  -18.9575   21.7914 N.ar    1  UNL1       -0.2147
      5 C          -5.7502  -19.2145   20.4887 C.ar    1  UNL1        0.0911
      6 C          -6.5444  -19.5968   19.2750 C.ar    1  UNL1        0.0801
      7 C          -8.0365  -19.7221   19.3640 C.ar    1  UNL1        0.2645
      8 O          -8.8308  -20.1044   18.1503 O.2     1  UNL1       -0.2668
      9 N          -8.6379  -18.8259   23.1831 N.pl3   1  UNL1       -0.2761
     10 C          -9.5159  -19.8828   23.7848 C.3     1  UNL1        0.1256
     11 C         -10.2138  -19.6259   25.0875 C.3     1  UNL1        0.1635
     12 O         -10.0336  -18.3121   25.7884 O.3     1  UNL1       -0.3527
     13 C          -9.1556  -17.2551   25.1868 C.3     1  UNL1        0.1333
     14 C          -8.9754  -15.9413   25.8877 C.3     1  UNL1        0.0313
     15 C          -8.0974  -14.8845   25.2860 C.3     1  UNL1        0.0026
     16 C          -7.3995  -15.1414   23.9833 C.3     1  UNL1        0.0019
     17 C          -7.5797  -16.4552   23.2824 C.3     1  UNL1        0.0223
     18 C          -8.4577  -17.5121   23.8841 C.3     1  UNL1        0.1026
     19 C          -4.2580  -19.0891   20.3997 C.ar    1  UNL1        0.0485
     20 C          -3.6224  -18.5726   19.1430 C.ar    1  UNL1        0.0244
     21 C          -2.1303  -18.4472   19.0540 C.ar    1  UNL1        0.0991
     22 N          -1.2739  -18.8383   20.2216 N.ar    1  UNL1       -0.2400
     23 C          -1.9095  -19.3549   21.4783 C.ar    1  UNL1        0.1285
     24 C          -3.4015  -19.4802   21.5673 C.ar    1  UNL1        0.1606
     25 F          -4.0371  -19.9968   22.8240 F       1  UNL1       -0.2025
@<TRIPOS>BOND
     1     1     2    1
     2     2     3   ar
     3     3     9    1
     4     9    10    1
     5    10    11    1
     6    11    12    1
     7    12    13    1
     8    13    14    1
     9    14    15    1
    10    15    16    1
    11    16    17    1
    12    18    17    1
    13     3     4   ar
    14     4     5   ar
    15     5    19    1
    16    19    20   ar
    17    20    21   ar
    18    21    22   ar
    19    22    23   ar
    20    23    24   ar
    21    24    25    1
    22     5     6   ar
    23     6     7   ar
    24     7     8    2
    25     7     2   ar
    26    18     9    1
    27    24    19   ar
    28    18    13    1
@<TRIPOS>MOLECULE
*****
 25 28 0 0 0
SMALL
GASTEIGER

@<TRIPOS>ATOM
      1 C         -10.1871  -20.2414   18.9978 C.3     1  UNL1        0.1363
      2 N          -8.8802  -19.8597   19.6273 N.ar    1  UNL1       -0.2667
      3 C          -8.8086  -18.6788   20.5495 C.ar    1  UNL1        0.2035
      4 N          -7.5017  -18.2970   21.1790 N.ar    1  UNL1       -0.2147
      5 C          -6.2665  -19.0960   20.8863 C.ar    1  UNL1        0.0911
      6 C          -6.3381  -20.2768   19.9641 C.ar    1  UNL1        0.0801
      7 C          -7.6450  -20.6587   19.3345 C.ar    1  UNL1        0.2645
      8 O          -7.7166  -21.8395   18.4123 O.2     1  UNL1       -0.2668
      9 N         -10.0439  -17.8798   20.8422 N.pl3   1  UNL1       -0.2761
     10 C         -10.4854  -16.8063   19.8921 C.3     1  UNL1        0.1256
     11 C         -11.7206  -16.0073   20.1849 C.3     1  UNL1        0.1635
     12 O         -12.5144  -16.2817   21.4277 O.3     1  UNL1       -0.3527
     13 C         -12.0729  -17.3552   22.3778 C.3     1  UNL1        0.1333
     14 C         -12.8666  -17.6296   23.6206 C.3     1  UNL1        0.0313
     15 C         -12.4251  -18.7031   24.5707 C.3     1  UNL1        0.0026
     16 C         -11.1898  -19.5021   24.2780 C.3     1  UNL1        0.0019
     17 C         -10.3961  -19.2277   23.0352 C.3     1  UNL1        0.0223
     18 C         -10.8376  -18.1542   22.0851 C.3     1  UNL1        0.1026
     19 C          -4.9596  -18.7142   21.5158 C.ar    1  UNL1        0.0485
     20 C          -4.9271  -18.2042   22.9261 C.ar    1  UNL1        0.0244
     21 C          -3.6203  -17.8223   23.5556 C.ar    1  UNL1        0.0991
     22 N          -2.3459  -17.9505   22.7749 N.ar    1  UNL1       -0.2400
     23 C          -2.3784  -18.4605   21.3647 C.ar    1  UNL1        0.1285
     24 C          -3.6852  -18.8423   20.7351 C.ar    1  UNL1        0.1606
     25 F          -3.7177  -19.3523   19.3248 F       1  UNL1       -0.2025
@<TRIPOS>BOND
     1     1     2    1
     2     2     3   ar
     3     3     9    1
     4     9    10    1
     5    10    11    1
     6    11    12    1
     7    12    13    1
     8    13    14    1
     9    14    15    1
    10    15    16    1
    11    16    17    1
    12    18    17    1
    13     3     4   ar
    14     4     5   ar
    15     5    19    1
    16    19    20   ar
    17    20    21   ar
    18    21    22   ar
    19    22    23   ar
    20    23    24   ar
    21    24    25    1
    22     5     6   ar
    23     6     7   ar
    24     7     8    2
    25     7     2   ar
    26    18     9    1
    27    24    19   ar
    28    18    13    1
@<TRIPOS>MOLECULE
*****
 25 28 0 0 0
SMALL
GASTEIGER

@<TRIPOS>ATOM
      1 C         -11.3151  -17.8780   20.3686 C.3     1  UNL1        0.1363
      2 N         -10.5022  -17.4194   21.5428 N.ar    1  UNL1       -0.2667
      3 C          -9.1167  -17.9551   21.7510 C.ar    1  UNL1        0.2035
      4 N          -8.3038  -17.4965   22.9253 N.ar    1  UNL1       -0.2147
      5 C          -8.8765  -16.5022   23.8914 C.ar    1  UNL1        0.0911
      6 C         -10.2620  -15.9665   23.6833 C.ar    1  UNL1        0.0801
      7 C         -11.0749  -16.4250   22.5089 C.ar    1  UNL1        0.2645
      8 O         -12.4604  -15.8893   22.3008 O.2     1  UNL1       -0.2668
      9 N          -8.5440  -18.9495   20.7849 N.pl3   1  UNL1       -0.2761
     10 C          -9.4106  -19.5354   19.7099 C.3     1  UNL1        0.1256
     11 C          -8.8379  -20.5298   18.7438 C.3     1  UNL1        0.1635
     12 O          -7.3987  -20.9381   18.8527 O.3     1  UNL1       -0.3527
     13 C          -6.5321  -20.3522   19.9277 C.3     1  UNL1        0.1333
     14 C          -5.0929  -20.7605   20.0366 C.3     1  UNL1        0.0313
     15 C          -4.2264  -20.1746   21.1116 C.3     1  UNL1        0.0026
     16 C          -4.7990  -19.1802   22.0778 C.3     1  UNL1        0.0019
     17 C          -6.2382  -18.7719   21.9689 C.3     1  UNL1        0.0223
     18 C          -7.1047  -19.3578   20.8939 C.3     1  UNL1        0.1026
     19 C          -8.0636  -16.0436   25.0657 C.ar    1  UNL1        0.0485
     20 C          -8.6571  -16.0654   26.4431 C.ar    1  UNL1        0.0244
     21 C          -7.8443  -15.6069   27.6174 C.ar    1  UNL1        0.0991
     22 N          -6.4379  -15.1265   27.4143 N.ar    1  UNL1       -0.2400
     23 C          -5.8444  -15.1047   26.0369 C.ar    1  UNL1        0.1285
     24 C          -6.6572  -15.5633   24.8626 C.ar    1  UNL1        0.1606
     25 F          -6.0636  -15.5415   23.4852 F       1  UNL1       -0.2025
@<TRIPOS>BOND
     1     1     2    1
     2     2     3   ar
     3     3     9    1
     4     9    10    1
     5    10    11    1
     6    11    12    1
     7    12    13    1
     8    13    14    1
     9    14    15    1
    10    15    16    1
    11    16    17    1
    12    18    17    1
    13     3     4   ar
    14     4     5   ar
    15     5    19    1
    16    19    20   ar
    17    20    21   ar
    18    21    22   ar
    19    22    23   ar
    20    23    24   ar
    21    24    25    1
    22     5     6   ar
    23     6     7   ar
    24     7     8    2
    25     7     2   ar
    26    18     9    1
    27    24    19   ar
    28    18    13    1
@<TRIPOS>MOLECULE
*****
 25 28 0 0 0
SMALL
GASTEIGER

@<TRIPOS>ATOM
      1 C          -8.8527  -18.9725   19.9880 C.3     1  UNL1        0.1363
      2 N          -8.5368  -18.2495   21.2636 N.ar    1  UNL1       -0.2667
      3 C          -7.1951  -18.4229   21.9115 C.ar    1  UNL1        0.2035
      4 N          -6.8792  -17.6998   23.1872 N.ar    1  UNL1       -0.2147
      5 C          -7.9049  -16.8034   23.8150 C.ar    1  UNL1        0.0911
      6 C          -9.2466  -16.6300   23.1672 C.ar    1  UNL1        0.0801
      7 C          -9.5626  -17.3530   21.8914 C.ar    1  UNL1        0.2645
      8 O         -10.9043  -17.1796   21.2436 O.2     1  UNL1       -0.2668
      9 N          -6.1693  -19.3193   21.2837 N.pl3   1  UNL1       -0.2761
     10 C          -6.6027  -20.4518   20.4008 C.3     1  UNL1        0.1256
     11 C          -5.5769  -21.3482   19.7730 C.3     1  UNL1        0.1635
     12 O          -4.1177  -21.1122   20.0281 O.3     1  UNL1       -0.3527
     13 C          -3.6843  -19.9797   20.9110 C.3     1  UNL1        0.1333
     14 C          -2.2252  -19.7436   21.1661 C.3     1  UNL1        0.0313
     15 C          -1.7918  -18.6111   22.0491 C.3     1  UNL1        0.0026
     16 C          -2.8176  -17.7147   22.6769 C.3     1  UNL1        0.0019
     17 C          -4.2767  -17.9507   22.4218 C.3     1  UNL1        0.0223
     18 C          -4.7101  -19.0832   21.5389 C.3     1  UNL1        0.1026
     19 C          -7.5890  -16.0803   25.0908 C.ar    1  UNL1        0.0485
     20 C          -8.6066  -16.0212   26.1912 C.ar    1  UNL1        0.0244
     21 C          -8.2907  -15.2982   27.4668 C.ar    1  UNL1        0.0991
     22 N          -6.9572  -14.6343   27.6421 N.ar    1  UNL1       -0.2400
     23 C          -5.9395  -14.6935   26.5418 C.ar    1  UNL1        0.1285
     24 C          -6.2554  -15.4165   25.2661 C.ar    1  UNL1        0.1606
     25 F          -5.2377  -15.4756   24.1657 F       1  UNL1       -0.2025
@<TRIPOS>BOND
     1     1     2    1
     2     2     3   ar
     3     3     9    1
     4     9    10    1
     5    10    11    1
     6    11    12    1
     7    12    13    1
     8    13    14    1
     9    14    15    1
    10    15    16    1
    11    16    17    1
    12    18    17    1
    13     3     4   ar
    14     4     5   ar
    15     5    19    1
    16    19    20   ar
    17    20    21   ar
    18    21    22   ar
    19    22    23   ar
    20    23    24   ar
    21    24    25    1
    22     5     6   ar
    23     6     7   ar
    24     7     8    2
    25     7     2   ar
    26    18     9    1
    27    24    19   ar
    28    18    13    1
@<TRIPOS>MOLECULE
*****
 25 28 0 0 0
SMALL
GASTEIGER

@<TRIPOS>ATOM
      1 C          -6.2866  -19.4348   19.6659 C.3     1  UNL1        0.1363
      2 N          -7.5641  -19.2164   20.4209 N.ar    1  UNL1       -0.2667
      3 C          -7.5280  -18.6398   21.8052 C.ar    1  UNL1        0.2035
      4 N          -8.8056  -18.4214   22.5602 N.ar    1  UNL1       -0.2147
      5 C         -10.1193  -18.7796   21.9310 C.ar    1  UNL1        0.0911
      6 C         -10.1554  -19.3562   20.5468 C.ar    1  UNL1        0.0801
      7 C          -8.8778  -19.5746   19.7917 C.ar    1  UNL1        0.2645
      8 O          -8.9140  -20.1512   18.4074 O.2     1  UNL1       -0.2668
      9 N          -6.2144  -18.2816   22.4344 N.pl3   1  UNL1       -0.2761
     10 C          -4.9827  -19.0695   22.0995 C.3     1  UNL1        0.1256
     11 C          -3.6691  -18.7113   22.7287 C.3     1  UNL1        0.1635
     12 O          -3.5870  -17.5652   23.6929 O.3     1  UNL1       -0.3527
     13 C          -4.8187  -16.7772   24.0279 C.3     1  UNL1        0.1333
     14 C          -4.7366  -15.6311   24.9920 C.3     1  UNL1        0.0313
     15 C          -5.9682  -14.8432   25.3270 C.3     1  UNL1        0.0026
     16 C          -7.2819  -15.2014   24.6977 C.3     1  UNL1        0.0019
     17 C          -7.3640  -16.3475   23.7336 C.3     1  UNL1        0.0223
     18 C          -6.1323  -17.1354   23.3986 C.3     1  UNL1        0.1026
     19 C         -11.3969  -18.5611   22.6861 C.ar    1  UNL1        0.0485
     20 C         -12.5507  -17.8685   22.0235 C.ar    1  UNL1        0.0244
     21 C         -13.8282  -17.6501   22.7785 C.ar    1  UNL1        0.0991
     22 N         -13.9520  -18.1242   24.1961 N.ar    1  UNL1       -0.2400
     23 C         -12.7982  -18.8169   24.8588 C.ar    1  UNL1        0.1285
     24 C         -11.5207  -19.0353   24.1038 C.ar    1  UNL1        0.1606
     25 F         -10.3669  -19.7280   24.7664 F       1  UNL1       -0.2025
@<TRIPOS>BOND
     1     1     2    1
     2     2     3   ar
     3     3     9    1
     4     9    10    1
     5    10    11    1
     6    11    12    1
     7    12    13    1
     8    13    14    1
     9    14    15    1
    10    15    16    1
    11    16    17    1
    12    18    17    1
    13     3     4   ar
    14     4     5   ar
    15     5    19    1
    16    19    20   ar
    17    20    21   ar
    18    21    22   ar
    19    22    23   ar
    20    23    24   ar
    21    24    25    1
    22     5     6   ar
    23     6     7   ar
    24     7     8    2
    25     7     2   ar
    26    18     9    1
    27    24    19   ar
    28    18    13    1
@<TRIPOS>MOLECULE
*****
 25 28 0 0 0
SMALL
GASTEIGER

@<TRIPOS>ATOM
      1 C           6.1819    2.6081   38.8144 C.3     1  UNL1        0.1363
      2 N           6.1941    1.7282   37.5997 N.ar    1  UNL1       -0.2667
      3 C           5.0524    1.7753   36.6279 C.ar    1  UNL1        0.2035
      4 N           5.0646    0.8954   35.4132 N.ar    1  UNL1       -0.2147
      5 C           6.2185   -0.0317   35.1703 C.ar    1  UNL1        0.0911
      6 C           7.3602   -0.0789   36.1420 C.ar    1  UNL1        0.0801
      7 C           7.3480    0.8011   37.3568 C.ar    1  UNL1        0.2645
      8 O           8.4897    0.7539   38.3285 O.2     1  UNL1       -0.2668
      9 N           3.8985    2.7024   36.8709 N.pl3   1  UNL1       -0.2761
     10 C           3.8651    4.0478   36.2086 C.3     1  UNL1        0.1256
     11 C           2.7112    4.9749   36.4516 C.3     1  UNL1        0.1635
     12 O           1.5907    4.5566   37.3568 O.3     1  UNL1       -0.3527
     13 C           1.6241    3.2110   38.0191 C.3     1  UNL1        0.1333
     14 C           0.5036    2.7927   38.9243 C.3     1  UNL1        0.0313
     15 C           0.5370    1.4472   39.5866 C.3     1  UNL1        0.0026
     16 C           1.6909    0.5202   39.3436 C.3     1  UNL1        0.0019
     17 C           2.8114    0.9385   38.4384 C.3     1  UNL1        0.0223
     18 C           2.7780    2.2840   37.7761 C.3     1  UNL1        0.1026
     19 C           6.2307   -0.9117   33.9555 C.ar    1  UNL1        0.0485
     20 C           7.3970   -0.8728   33.0129 C.ar    1  UNL1        0.0244
     21 C           7.4092   -1.7527   31.7982 C.ar    1  UNL1        0.0991
     22 N           6.2552   -2.6714   31.5260 N.ar    1  UNL1       -0.2400
     23 C           5.0889   -2.7103   32.4685 C.ar    1  UNL1        0.1285
     24 C           5.0767   -1.8304   33.6833 C.ar    1  UNL1        0.1606
     25 F           3.9105   -1.8692   34.6258 F       1  UNL1       -0.2025
@<TRIPOS>BOND
     1     1     2    1
     2     2     3   ar
     3     3     9    1
     4     9    10    1
     5    10    11    1
     6    11    12    1
     7    12    13    1
     8    13    14    1
     9    14    15    1
    10    15    16    1
    11    16    17    1
    12    18    17    1
    13     3     4   ar
    14     4     5   ar
    15     5    19    1
    16    19    20   ar
    17    20    21   ar
    18    21    22   ar
    19    22    23   ar
    20    23    24   ar
    21    24    25    1
    22     5     6   ar
    23     6     7   ar
    24     7     8    2
    25     7     2   ar
    26    18     9    1
    27    24    19   ar
    28    18    13    1
@<TRIPOS>MOLECULE
*****
 25 28 0 0 0
SMALL
GASTEIGER

@<TRIPOS>ATOM
      1 C          -4.7094  -21.0443   20.0542 C.3     1  UNL1        0.1363
      2 N          -5.9427  -20.2311   20.3144 N.ar    1  UNL1       -0.2667
      3 C          -5.8600  -18.9908   21.1540 C.ar    1  UNL1        0.2035
      4 N          -7.0932  -18.1776   21.4141 N.ar    1  UNL1       -0.2147
      5 C          -8.4093  -18.6046   20.8347 C.ar    1  UNL1        0.0911
      6 C          -8.4920  -19.8449   19.9951 C.ar    1  UNL1        0.0801
      7 C          -7.2587  -20.6581   19.7350 C.ar    1  UNL1        0.2645
      8 O          -7.3415  -21.8984   18.8954 O.2     1  UNL1       -0.2668
      9 N          -4.5440  -18.5637   21.7334 N.pl3   1  UNL1       -0.2761
     10 C          -4.3781  -18.4580   23.2204 C.3     1  UNL1        0.1256
     11 C          -3.0621  -18.0310   23.7998 C.3     1  UNL1        0.1635
     12 O          -1.9119  -17.7096   22.8922 O.3     1  UNL1       -0.3527
     13 C          -2.0777  -17.8153   21.4051 C.3     1  UNL1        0.1333
     14 C          -0.9275  -17.4940   20.4975 C.3     1  UNL1        0.0313
     15 C          -1.0934  -17.5997   19.0105 C.3     1  UNL1        0.0026
     16 C          -2.4094  -18.0268   18.4311 C.3     1  UNL1        0.0019
     17 C          -3.5596  -18.3481   19.3387 C.3     1  UNL1        0.0223
     18 C          -3.3937  -18.2424   20.8257 C.3     1  UNL1        0.1026
     19 C          -9.6426  -17.7913   21.0949 C.ar    1  UNL1        0.0485
     20 C         -10.6131  -17.5240   19.9828 C.ar    1  UNL1        0.0244
     21 C         -11.8463  -16.7108   20.2429 C.ar    1  UNL1        0.0991
     22 N         -12.1091  -16.1649   21.6151 N.ar    1  UNL1       -0.2400
     23 C         -11.1386  -16.4322   22.7272 C.ar    1  UNL1        0.1285
     24 C          -9.9053  -17.2455   22.4670 C.ar    1  UNL1        0.1606
     25 F          -8.9348  -17.5128   23.5791 F       1  UNL1       -0.2025
@<TRIPOS>BOND
     1     1     2    1
     2     2     3   ar
     3     3     9    1
     4     9    10    1
     5    10    11    1
     6    11    12    1
     7    12    13    1
     8    13    14    1
     9    14    15    1
    10    15    16    1
    11    16    17    1
    12    18    17    1
    13     3     4   ar
    14     4     5   ar
    15     5    19    1
    16    19    20   ar
    17    20    21   ar
    18    21    22   ar
    19    22    23   ar
    20    23    24   ar
    21    24    25    1
    22     5     6   ar
    23     6     7   ar
    24     7     8    2
    25     7     2   ar
    26    18     9    1
    27    24    19   ar
    28    18    13    1
@<TRIPOS>MOLECULE
*****
 25 28 0 0 0
SMALL
GASTEIGER

@<TRIPOS>ATOM
      1 C           1.1039    0.9897   18.5660 C.3     1  UNL1        0.1363
      2 N           1.4097    0.9820   20.0344 N.ar    1  UNL1       -0.2667
      3 C           2.7803    0.6047   20.5132 C.ar    1  UNL1        0.2035
      4 N           3.0860    0.5969   21.9817 N.ar    1  UNL1       -0.2147
      5 C           2.0212    0.9664   22.9714 C.ar    1  UNL1        0.0911
      6 C           0.6506    1.3437   22.4927 C.ar    1  UNL1        0.0801
      7 C           0.3448    1.3515   21.0242 C.ar    1  UNL1        0.2645
      8 O          -1.0257    1.7287   20.5455 O.2     1  UNL1       -0.2668
      9 N           3.8451    0.2352   19.5235 N.pl3   1  UNL1       -0.2761
     10 C           4.5966    1.3092   18.7943 C.3     1  UNL1        0.1256
     11 C           5.6614    0.9397   17.8045 C.3     1  UNL1        0.1635
     12 O           5.9748   -0.5038   17.5440 O.3     1  UNL1       -0.3527
     13 C           5.2233   -1.5779   18.2732 C.3     1  UNL1        0.1333
     14 C           5.5367   -3.0215   18.0126 C.3     1  UNL1        0.0313
     15 C           4.7853   -4.0955   18.7418 C.3     1  UNL1        0.0026
     16 C           3.7205   -3.7260   19.7315 C.3     1  UNL1        0.0019
     17 C           3.4071   -2.2825   19.9921 C.3     1  UNL1        0.0223
     18 C           4.1585   -1.2084   19.2629 C.3     1  UNL1        0.1026
     19 C           2.3270    0.9587   24.4400 C.ar    1  UNL1        0.0485
     20 C           1.9094    2.1152   25.2991 C.ar    1  UNL1        0.0244
     21 C           2.2152    2.1075   26.7676 C.ar    1  UNL1        0.0991
     22 N           2.9385    0.9432   27.3769 N.ar    1  UNL1       -0.2400
     23 C           3.3561   -0.2133   26.5177 C.ar    1  UNL1        0.1285
     24 C           3.0503   -0.2055   25.0493 C.ar    1  UNL1        0.1606
     25 F           3.4679   -1.3620   24.1901 F       1  UNL1       -0.2025
@<TRIPOS>BOND
     1     1     2    1
     2     2     3   ar
     3     3     9    1
     4     9    10    1
     5    10    11    1
     6    11    12    1
     7    12    13    1
     8    13    14    1
     9    14    15    1
    10    15    16    1
    11    16    17    1
    12    18    17    1
    13     3     4   ar
    14     4     5   ar
    15     5    19    1
    16    19    20   ar
    17    20    21   ar
    18    21    22   ar
    19    22    23   ar
    20    23    24   ar
    21    24    25    1
    22     5     6   ar
    23     6     7   ar
    24     7     8    2
    25     7     2   ar
    26    18     9    1
    27    24    19   ar
    28    18    13    1
