@<TRIPOS>MOLECULE
*****
 36 39 0 0 0
SMALL
GASTEIGER

@<TRIPOS>ATOM
      1 C          -6.8841  -19.8678   20.7920 C.ar    1  UNL1        0.1550
      2 C          -8.2002  -19.9843   20.0818 C.ar    1  UNL1        0.0553
      3 C          -9.4809  -19.8036   20.8414 C.ar    1  UNL1        0.1753
      4 F         -10.7970  -19.9201   20.1311 F       1  UNL1       -0.2009
      5 C          -9.4456  -19.5065   22.3112 C.ar    1  UNL1        0.1681
      6 C          -8.1296  -19.3900   23.0214 C.ar    1  UNL1        0.0702
      7 C          -6.8488  -19.5707   22.2619 C.ar    1  UNL1        0.1620
      8 F          -5.5328  -19.4542   22.9721 F       1  UNL1       -0.2026
      9 O          -5.6560  -21.5244   20.2945 O.2     1  UNL1       -0.1498
     10 S          -5.6033  -20.0485   20.0324 S.O2    1  UNL1        0.0780
     11 O          -5.5506  -18.5725   19.7703 O.2     1  UNL1       -0.1498
     12 N          -4.3226  -20.2291   19.2728 N.pl3   1  UNL1       -0.1835
     13 H          -4.2522  -20.9315   18.5865 H       1  UNL1        0.1767
     14 C          -3.1491  -19.3396   19.5587 C.ar    1  UNL1        0.2361
     15 N          -2.6828  -19.1440   20.9709 N.ar    1  UNL1       -0.2087
     16 C          -1.5094  -18.2545   21.2568 C.ar    1  UNL1        0.1330
     17 C          -0.8022  -17.5606   20.1305 C.ar    1  UNL1        0.1784
     18 F           0.3713  -16.6711   20.4165 F       1  UNL1       -0.2009
     19 C          -1.2685  -17.7562   18.7184 C.ar    1  UNL1        0.1330
     20 N          -2.4419  -18.6457   18.4325 N.ar    1  UNL1       -0.2087
     21 O         -10.7264  -19.3258   23.0708 O.3     1  UNL1       -0.4731
     22 C         -11.4106  -17.9910   23.0807 C.3     1  UNL1        0.2071
     23 C         -11.3414  -17.1038   21.8732 C.3     1  UNL1        0.0635
     24 C         -12.3729  -17.2279   20.7913 C.3     1  UNL1        0.0726
     25 N         -12.3036  -16.3406   19.5837 N.3     1  UNL1       -0.2973
     26 C         -11.2029  -15.3294   19.4582 C.3     1  UNL1        0.0689
     27 C         -10.1714  -15.2053   20.5402 C.3     1  UNL1        0.0216
     28 C         -10.2406  -16.0925   21.7477 C.3     1  UNL1        0.0286
     29 H         -13.1829  -15.8249   19.5464 H       1  UNL1        0.1232
     30 C          -9.2092  -15.9685   22.8296 C.ar    1  UNL1       -0.0222
     31 C          -9.6323  -15.9278   24.2681 C.ar    1  UNL1       -0.0034
     32 C          -8.6008  -15.8038   25.3501 C.ar    1  UNL1        0.0111
     33 C          -7.1462  -15.7204   24.9936 C.ar    1  UNL1        0.0577
     34 CL         -6.1147  -15.5963   26.0756 Cl      1  UNL1       -0.0822
     35 C          -6.7230  -15.7610   23.5550 C.ar    1  UNL1        0.0111
     36 C          -7.7545  -15.8850   22.4731 C.ar    1  UNL1       -0.0034
@<TRIPOS>BOND
     1     9    10    2
     2    10    11    2
     3    10    12    1
     4    12    14    1
     5    14    15   ar
     6    15    16   ar
     7    16    17   ar
     8    17    18    1
     9    17    19   ar
    10    19    20   ar
    11    10     1    1
    12     1     2   ar
    13     2     3   ar
    14     3     4    1
    15     3     5   ar
    16     5    21    1
    17    21    22    1
    18    23    22    1
    19    23    24    1
    20    24    25    1
    21    25    26    1
    22    26    27    1
    23    27    28    1
    24    28    30    1
    25    30    31   ar
    26    31    32   ar
    27    32    33   ar
    28    33    34    1
    29    33    35   ar
    30    35    36   ar
    31     5     6   ar
    32     6     7   ar
    33     7     8    1
    34    20    14   ar
    35     7     1   ar
    36    28    23    1
    37    36    30   ar
    38    12    13    1
    39    25    29    1
@<TRIPOS>MOLECULE
*****
 36 39 0 0 0
SMALL
GASTEIGER

@<TRIPOS>ATOM
      1 C          -6.8561  -19.9165   20.6676 C.ar    1  UNL1        0.1550
      2 C          -8.0632  -19.5654   19.8494 C.ar    1  UNL1        0.0553
      3 C          -9.3843  -19.3361   20.5218 C.ar    1  UNL1        0.1753
      4 F         -10.5914  -18.9851   19.7036 F       1  UNL1       -0.2009
      5 C          -9.4982  -19.4580   22.0125 C.ar    1  UNL1        0.1681
      6 C          -8.2910  -19.8091   22.8307 C.ar    1  UNL1        0.0702
      7 C          -6.9699  -20.0383   22.1583 C.ar    1  UNL1        0.1620
      8 F          -5.7628  -20.3894   22.9765 F       1  UNL1       -0.2026
      9 O          -5.3467  -18.6638   19.8596 O.2     1  UNL1       -0.1498
     10 S          -5.5349  -20.1457   19.9951 S.O2    1  UNL1        0.0780
     11 O          -5.7232  -21.6276   20.1306 O.2     1  UNL1       -0.1498
     12 N          -4.2139  -20.3750   19.3226 N.pl3   1  UNL1       -0.1835
     13 H          -4.0967  -21.1419   18.7165 H       1  UNL1        0.1767
     14 C          -3.0715  -19.4358   19.5736 C.ar    1  UNL1        0.2361
     15 N          -2.4545  -18.6834   18.4321 N.ar    1  UNL1       -0.2087
     16 C          -1.3121  -17.7443   18.6832 C.ar    1  UNL1        0.1330
     17 C          -0.7868  -17.5577   20.0758 C.ar    1  UNL1        0.1784
     18 F           0.3556  -16.6185   20.3268 F       1  UNL1       -0.2009
     19 C          -1.4038  -18.3101   21.2172 C.ar    1  UNL1        0.1330
     20 N          -2.5462  -19.2492   20.9662 N.ar    1  UNL1       -0.2087
     21 O         -10.8193  -19.2288   22.6850 O.3     1  UNL1       -0.4731
     22 C         -10.8799  -19.0276   24.1702 C.3     1  UNL1        0.2071
     23 C         -10.0548  -17.9543   24.8159 C.3     1  UNL1        0.0635
     24 C          -9.3991  -18.2075   26.1411 C.3     1  UNL1        0.0726
     25 N          -8.5739  -17.1340   26.7868 N.3     1  UNL1       -0.2973
     26 C          -8.4045  -15.8075   26.1075 C.3     1  UNL1        0.0689
     27 C          -9.0602  -15.5543   24.7823 C.3     1  UNL1        0.0216
     28 C          -9.8853  -16.6277   24.1366 C.3     1  UNL1        0.0286
     29 H          -7.6387  -17.5198   26.9170 H       1  UNL1        0.1232
     30 C         -10.5410  -16.3745   22.8115 C.ar    1  UNL1       -0.0222
     31 C          -9.7117  -15.9666   21.6300 C.ar    1  UNL1       -0.0034
     32 C         -10.3674  -15.7135   20.3049 C.ar    1  UNL1        0.0111
     33 C         -11.8524  -15.8682   20.1612 C.ar    1  UNL1        0.0577
     34 CL        -12.5082  -15.6150   18.8361 Cl      1  UNL1       -0.0822
     35 C         -12.6819  -16.2760   21.3427 C.ar    1  UNL1        0.0111
     36 C         -12.0262  -16.5292   22.6678 C.ar    1  UNL1       -0.0034
@<TRIPOS>BOND
     1     9    10    2
     2    10    11    2
     3    10    12    1
     4    12    14    1
     5    14    15   ar
     6    15    16   ar
     7    16    17   ar
     8    17    18    1
     9    17    19   ar
    10    19    20   ar
    11    10     1    1
    12     1     2   ar
    13     2     3   ar
    14     3     4    1
    15     3     5   ar
    16     5    21    1
    17    21    22    1
    18    23    22    1
    19    23    24    1
    20    24    25    1
    21    25    26    1
    22    26    27    1
    23    27    28    1
    24    28    30    1
    25    30    31   ar
    26    31    32   ar
    27    32    33   ar
    28    33    34    1
    29    33    35   ar
    30    35    36   ar
    31     5     6   ar
    32     6     7   ar
    33     7     8    1
    34    20    14   ar
    35     7     1   ar
    36    28    23    1
    37    36    30   ar
    38    12    13    1
    39    25    29    1
@<TRIPOS>MOLECULE
*****
 36 39 0 0 0
SMALL
GASTEIGER

@<TRIPOS>ATOM
      1 C           0.6450    2.6879   19.6224 C.ar    1  UNL1        0.1550
      2 C           1.0058    1.6410   18.6105 C.ar    1  UNL1        0.0553
      3 C           2.4374    1.2288   18.4357 C.ar    1  UNL1        0.1753
      4 F           2.7982    0.1819   17.4238 F       1  UNL1       -0.2009
      5 C           3.5082    1.8635   19.2726 C.ar    1  UNL1        0.1681
      6 C           3.1473    2.9104   20.2845 C.ar    1  UNL1        0.0702
      7 C           1.7158    3.3226   20.4593 C.ar    1  UNL1        0.1620
      8 F           1.3549    4.3695   21.4712 F       1  UNL1       -0.2026
      9 O          -1.0485    1.8544   20.5907 O.2     1  UNL1       -0.1498
     10 S          -0.7867    3.1001   19.7972 S.O2    1  UNL1        0.0780
     11 O          -0.5249    4.3458   19.0037 O.2     1  UNL1       -0.1498
     12 N          -2.2183    3.5123   19.9720 N.pl3   1  UNL1       -0.1835
     13 H          -2.7502    3.7874   19.1906 H       1  UNL1        0.1767
     14 C          -2.8394    3.5052   21.3374 C.ar    1  UNL1        0.2361
     15 N          -2.0813    4.0550   22.5091 N.ar    1  UNL1       -0.2087
     16 C          -2.7025    4.0479   23.8744 C.ar    1  UNL1        0.1330
     17 C          -4.0818    3.4911   24.0679 C.ar    1  UNL1        0.1784
     18 F          -4.7030    3.4840   25.4333 F       1  UNL1       -0.2009
     19 C          -4.8399    2.9413   22.8962 C.ar    1  UNL1        0.1330
     20 N          -4.2187    2.9483   21.5309 N.ar    1  UNL1       -0.2087
     21 O           4.9399    1.4513   19.0978 O.3     1  UNL1       -0.4731
     22 C           5.4802    0.2764   19.8577 C.3     1  UNL1        0.2071
     23 C           5.0559   -1.1144   19.4893 C.3     1  UNL1        0.0635
     24 C           5.5671   -1.7453   18.2281 C.3     1  UNL1        0.0726
     25 N           5.1428   -3.1361   17.8598 N.3     1  UNL1       -0.2973
     26 C           4.2071   -3.8959   18.7526 C.3     1  UNL1        0.0689
     27 C           3.6959   -3.2650   20.0138 C.3     1  UNL1        0.0216
     28 C           4.1202   -1.8743   20.3822 C.3     1  UNL1        0.0286
     29 H           5.9938   -3.6930   17.7830 H       1  UNL1        0.1232
     30 C           3.6089   -1.2434   21.6433 C.ar    1  UNL1       -0.0222
     31 C           4.3233   -1.4763   22.9415 C.ar    1  UNL1       -0.0034
     32 C           3.8121   -0.8454   24.2027 C.ar    1  UNL1        0.0111
     33 C           2.5863    0.0184   24.1657 C.ar    1  UNL1        0.0577
     34 CL          2.0750    0.6493   25.4269 Cl      1  UNL1       -0.0822
     35 C           1.8718    0.2513   22.8675 C.ar    1  UNL1        0.0111
     36 C           2.3831   -0.3796   21.6063 C.ar    1  UNL1       -0.0034
@<TRIPOS>BOND
     1     9    10    2
     2    10    11    2
     3    10    12    1
     4    12    14    1
     5    14    15   ar
     6    15    16   ar
     7    16    17   ar
     8    17    18    1
     9    17    19   ar
    10    19    20   ar
    11    10     1    1
    12     1     2   ar
    13     2     3   ar
    14     3     4    1
    15     3     5   ar
    16     5    21    1
    17    21    22    1
    18    23    22    1
    19    23    24    1
    20    24    25    1
    21    25    26    1
    22    26    27    1
    23    27    28    1
    24    28    30    1
    25    30    31   ar
    26    31    32   ar
    27    32    33   ar
    28    33    34    1
    29    33    35   ar
    30    35    36   ar
    31     5     6   ar
    32     6     7   ar
    33     7     8    1
    34    20    14   ar
    35     7     1   ar
    36    28    23    1
    37    36    30   ar
    38    12    13    1
    39    25    29    1
@<TRIPOS>MOLECULE
*****
 36 39 0 0 0
SMALL
GASTEIGER

@<TRIPOS>ATOM
      1 C           0.8620    1.8194   25.5368 C.ar    1  UNL1        0.1550
      2 C           1.9180    1.1874   26.3944 C.ar    1  UNL1        0.0553
      3 C           2.9336    0.2705   25.7799 C.ar    1  UNL1        0.1753
      4 F           3.9896   -0.3615   26.6375 F       1  UNL1       -0.2009
      5 C           2.8933   -0.0144   24.3078 C.ar    1  UNL1        0.1681
      6 C           1.8373    0.6176   23.4502 C.ar    1  UNL1        0.0702
      7 C           0.8216    1.5345   24.0647 C.ar    1  UNL1        0.1620
      8 F          -0.2343    2.1665   23.2072 F       1  UNL1       -0.2026
      9 O           0.5420    3.9165   25.5405 O.2     1  UNL1       -0.1498
     10 S          -0.1537    2.7364   26.1514 S.O2    1  UNL1        0.0780
     11 O          -0.8493    1.5562   26.7624 O.2     1  UNL1       -0.1498
     12 N          -1.1693    3.6532   26.7660 N.pl3   1  UNL1       -0.1835
     13 H          -0.9422    4.1691   27.5732 H       1  UNL1        0.1767
     14 C          -2.5311    3.7842   26.1508 C.ar    1  UNL1        0.2361
     15 N          -2.7613    3.3393   24.7369 N.ar    1  UNL1       -0.2087
     16 C          -4.1230    3.4702   24.1218 C.ar    1  UNL1        0.1330
     17 C          -5.2546    4.0460   24.9205 C.ar    1  UNL1        0.1784
     18 F          -6.6164    4.1770   24.3053 F       1  UNL1       -0.2009
     19 C          -5.0245    4.4909   26.3344 C.ar    1  UNL1        0.1330
     20 N          -3.6627    4.3600   26.9495 N.ar    1  UNL1       -0.2087
     21 O           3.9090   -0.9314   23.6932 O.3     1  UNL1       -0.4731
     22 C           4.2041   -0.8473   22.2249 C.3     1  UNL1        0.2071
     23 C           4.1681   -2.0865   21.3806 C.3     1  UNL1        0.0635
     24 C           4.9425   -3.3014   21.7982 C.3     1  UNL1        0.0726
     25 N           4.9065   -4.5407   20.9538 N.3     1  UNL1       -0.2973
     26 C           4.0962   -4.5651   19.6918 C.3     1  UNL1        0.0689
     27 C           3.3218   -3.3502   19.2742 C.3     1  UNL1        0.0216
     28 C           3.3577   -2.1110   20.1185 C.3     1  UNL1        0.0286
     29 H           4.5509   -5.2907   21.5466 H       1  UNL1        0.1232
     30 C           2.5833   -0.8961   19.7009 C.ar    1  UNL1       -0.0222
     31 C           3.2040    0.1071   18.7745 C.ar    1  UNL1       -0.0034
     32 C           2.4296    1.3219   18.3569 C.ar    1  UNL1        0.0111
     33 C           1.0345    1.5335   18.8656 C.ar    1  UNL1        0.0577
     34 CL          0.2600    2.7484   18.4479 Cl      1  UNL1       -0.0822
     35 C           0.4137    0.5303   19.7920 C.ar    1  UNL1        0.0111
     36 C           1.1881   -0.6846   20.2096 C.ar    1  UNL1       -0.0034
@<TRIPOS>BOND
     1     9    10    2
     2    10    11    2
     3    10    12    1
     4    12    14    1
     5    14    15   ar
     6    15    16   ar
     7    16    17   ar
     8    17    18    1
     9    17    19   ar
    10    19    20   ar
    11    10     1    1
    12     1     2   ar
    13     2     3   ar
    14     3     4    1
    15     3     5   ar
    16     5    21    1
    17    21    22    1
    18    23    22    1
    19    23    24    1
    20    24    25    1
    21    25    26    1
    22    26    27    1
    23    27    28    1
    24    28    30    1
    25    30    31   ar
    26    31    32   ar
    27    32    33   ar
    28    33    34    1
    29    33    35   ar
    30    35    36   ar
    31     5     6   ar
    32     6     7   ar
    33     7     8    1
    34    20    14   ar
    35     7     1   ar
    36    28    23    1
    37    36    30   ar
    38    12    13    1
    39    25    29    1
@<TRIPOS>MOLECULE
*****
 36 39 0 0 0
SMALL
GASTEIGER

@<TRIPOS>ATOM
      1 C           1.5468    0.6699   21.6623 C.ar    1  UNL1        0.1550
      2 C           1.8084    0.6819   23.1392 C.ar    1  UNL1        0.0553
      3 C           2.7624   -0.3074   23.7400 C.ar    1  UNL1        0.1753
      4 F           3.0239   -0.2955   25.2170 F       1  UNL1       -0.2009
      5 C           3.4549   -1.3087   22.8638 C.ar    1  UNL1        0.1681
      6 C           3.1934   -1.3207   21.3868 C.ar    1  UNL1        0.0702
      7 C           2.2394   -0.3314   20.7860 C.ar    1  UNL1        0.1620
      8 F           1.9778   -0.3433   19.3091 F       1  UNL1       -0.2026
      9 O          -0.3823    0.5529   20.7876 O.2     1  UNL1       -0.1498
     10 S           0.5927    1.6593   21.0615 S.O2    1  UNL1        0.0780
     11 O           1.5677    2.7658   21.3354 O.2     1  UNL1       -0.1498
     12 N          -0.3613    2.6487   20.4608 N.pl3   1  UNL1       -0.1835
     13 H          -0.1590    3.0615   19.5902 H       1  UNL1        0.1767
     14 C          -1.6237    3.0092   21.1865 C.ar    1  UNL1        0.2361
     15 N          -2.9483    2.8863   20.4937 N.ar    1  UNL1       -0.2087
     16 C          -4.2106    3.2468   21.2194 C.ar    1  UNL1        0.1330
     17 C          -4.1481    3.7302   22.6380 C.ar    1  UNL1        0.1784
     18 F          -5.4104    4.0908   23.3638 F       1  UNL1       -0.2009
     19 C          -2.8234    3.8532   23.3309 C.ar    1  UNL1        0.1330
     20 N          -1.5612    3.4927   22.6051 N.ar    1  UNL1       -0.2087
     21 O           4.4091   -2.2981   23.4645 O.3     1  UNL1       -0.4731
     22 C           4.8072   -3.5205   22.6917 C.3     1  UNL1        0.2071
     23 C           6.2574   -3.8725   22.5401 C.3     1  UNL1        0.0635
     24 C           6.9829   -4.5609   23.6580 C.3     1  UNL1        0.0726
     25 N           8.4331   -4.9130   23.5064 N.3     1  UNL1       -0.2973
     26 C           9.1578   -4.5767   22.2369 C.3     1  UNL1        0.0689
     27 C           8.4323   -3.8883   21.1190 C.3     1  UNL1        0.0216
     28 C           6.9821   -3.5362   21.2706 C.3     1  UNL1        0.0286
     29 H           8.5052   -5.9232   23.6277 H       1  UNL1        0.1232
     30 C           6.2566   -2.8478   20.1527 C.ar    1  UNL1       -0.0222
     31 C           6.4589   -1.3800   19.9188 C.ar    1  UNL1       -0.0034
     32 C           5.7334   -0.6916   18.8009 C.ar    1  UNL1        0.0111
     33 C           4.8055   -1.4710   17.9168 C.ar    1  UNL1        0.0577
     34 CL          4.0800   -0.7826   16.7989 Cl      1  UNL1       -0.0822
     35 C           4.6032   -2.9388   18.1506 C.ar    1  UNL1        0.0111
     36 C           5.3287   -3.6272   19.2685 C.ar    1  UNL1       -0.0034
@<TRIPOS>BOND
     1     9    10    2
     2    10    11    2
     3    10    12    1
     4    12    14    1
     5    14    15   ar
     6    15    16   ar
     7    16    17   ar
     8    17    18    1
     9    17    19   ar
    10    19    20   ar
    11    10     1    1
    12     1     2   ar
    13     2     3   ar
    14     3     4    1
    15     3     5   ar
    16     5    21    1
    17    21    22    1
    18    23    22    1
    19    23    24    1
    20    24    25    1
    21    25    26    1
    22    26    27    1
    23    27    28    1
    24    28    30    1
    25    30    31   ar
    26    31    32   ar
    27    32    33   ar
    28    33    34    1
    29    33    35   ar
    30    35    36   ar
    31     5     6   ar
    32     6     7   ar
    33     7     8    1
    34    20    14   ar
    35     7     1   ar
    36    28    23    1
    37    36    30   ar
    38    12    13    1
    39    25    29    1
@<TRIPOS>MOLECULE
*****
 36 39 0 0 0
SMALL
GASTEIGER

@<TRIPOS>ATOM
      1 C           3.0969   -0.1236   27.7116 C.ar    1  UNL1        0.1550
      2 C           4.1646   -1.1657   27.5563 C.ar    1  UNL1        0.0553
      3 C           4.6872   -1.5064   26.1922 C.ar    1  UNL1        0.1753
      4 F           5.7549   -2.5485   26.0369 F       1  UNL1       -0.2009
      5 C           4.1422   -0.8051   24.9835 C.ar    1  UNL1        0.1681
      6 C           3.0745    0.2370   25.1388 C.ar    1  UNL1        0.0702
      7 C           2.5518    0.5777   26.5029 C.ar    1  UNL1        0.1620
      8 F           1.4842    1.6198   26.6582 F       1  UNL1       -0.2026
      9 O           1.3629   -0.6309   28.8235 O.2     1  UNL1       -0.1498
     10 S           2.5742    0.2171   29.0757 S.O2    1  UNL1        0.0780
     11 O           3.7855    1.0651   29.3280 O.2     1  UNL1       -0.1498
     12 N           2.0516    0.5578   30.4398 N.pl3   1  UNL1       -0.1835
     13 H           1.1921    1.0286   30.5342 H       1  UNL1        0.1767
     14 C           2.8386    0.1814   31.6601 C.ar    1  UNL1        0.2361
     15 N           3.4101   -1.1996   31.7874 N.ar    1  UNL1       -0.2087
     16 C           4.1970   -1.5760   33.0076 C.ar    1  UNL1        0.1330
     17 C           4.4124   -0.5715   34.1006 C.ar    1  UNL1        0.1784
     18 F           5.1993   -0.9480   35.3209 F       1  UNL1       -0.2009
     19 C           3.8408    0.8094   33.9733 C.ar    1  UNL1        0.1330
     20 N           3.0539    1.1859   32.7531 N.ar    1  UNL1       -0.2087
     21 O           4.6649   -1.1458   23.6194 O.3     1  UNL1       -0.4731
     22 C           3.7191   -1.2593   22.4607 C.3     1  UNL1        0.2071
     23 C           3.9390   -2.3104   21.4133 C.3     1  UNL1        0.0635
     24 C           4.7308   -3.5415   21.7409 C.3     1  UNL1        0.0726
     25 N           4.9507   -4.5926   20.6935 N.3     1  UNL1       -0.2973
     26 C           4.3788   -4.4124   19.3186 C.3     1  UNL1        0.0689
     27 C           3.5871   -3.1813   18.9910 C.3     1  UNL1        0.0216
     28 C           3.3672   -2.1302   20.0383 C.3     1  UNL1        0.0286
     29 H           4.5632   -5.4612   21.0620 H       1  UNL1        0.1232
     30 C           2.5754   -0.8991   19.7107 C.ar    1  UNL1       -0.0222
     31 C           3.1796    0.1761   18.8570 C.ar    1  UNL1       -0.0034
     32 C           2.3878    1.4073   18.5294 C.ar    1  UNL1        0.0111
     33 C           0.9918    1.5633   19.0556 C.ar    1  UNL1        0.0577
     34 CL          0.2001    2.7945   18.7280 Cl      1  UNL1       -0.0822
     35 C           0.3876    0.4881   19.9093 C.ar    1  UNL1        0.0111
     36 C           1.1793   -0.7431   20.2369 C.ar    1  UNL1       -0.0034
@<TRIPOS>BOND
     1     9    10    2
     2    10    11    2
     3    10    12    1
     4    12    14    1
     5    14    15   ar
     6    15    16   ar
     7    16    17   ar
     8    17    18    1
     9    17    19   ar
    10    19    20   ar
    11    10     1    1
    12     1     2   ar
    13     2     3   ar
    14     3     4    1
    15     3     5   ar
    16     5    21    1
    17    21    22    1
    18    23    22    1
    19    23    24    1
    20    24    25    1
    21    25    26    1
    22    26    27    1
    23    27    28    1
    24    28    30    1
    25    30    31   ar
    26    31    32   ar
    27    32    33   ar
    28    33    34    1
    29    33    35   ar
    30    35    36   ar
    31     5     6   ar
    32     6     7   ar
    33     7     8    1
    34    20    14   ar
    35     7     1   ar
    36    28    23    1
    37    36    30   ar
    38    12    13    1
    39    25    29    1
@<TRIPOS>MOLECULE
*****
 36 39 0 0 0
SMALL
GASTEIGER

@<TRIPOS>ATOM
      1 C           6.8484   -2.1173   21.5708 C.ar    1  UNL1        0.1550
      2 C           6.0310   -1.4615   22.6440 C.ar    1  UNL1        0.0553
      3 C           5.4015   -0.1230   22.3948 C.ar    1  UNL1        0.1753
      4 F           4.5841    0.5329   23.4679 F       1  UNL1       -0.2009
      5 C           5.5893    0.5596   21.0724 C.ar    1  UNL1        0.1681
      6 C           6.4067   -0.0963   19.9992 C.ar    1  UNL1        0.0702
      7 C           7.0363   -1.4347   20.2484 C.ar    1  UNL1        0.1620
      8 F           7.8537   -2.0906   19.1753 F       1  UNL1       -0.2026
      9 O           8.7991   -2.7890   22.0646 O.2     1  UNL1       -0.1498
     10 S           7.4780   -3.4559   21.8201 S.O2    1  UNL1        0.0780
     11 O           6.1568   -4.1227   21.5756 O.2     1  UNL1       -0.1498
     12 N           8.1075   -4.7943   22.0693 N.pl3   1  UNL1       -0.1835
     13 H           8.6366   -5.2289   21.3619 H       1  UNL1        0.1767
     14 C           7.9307   -5.4709   23.3965 C.ar    1  UNL1        0.2361
     15 N           8.2691   -6.9242   23.5484 N.ar    1  UNL1       -0.2087
     16 C           8.0924   -7.6007   24.8755 C.ar    1  UNL1        0.1330
     17 C           7.5773   -6.8237   26.0506 C.ar    1  UNL1        0.1784
     18 F           7.4006   -7.5002   27.3777 F       1  UNL1       -0.2009
     19 C           7.2389   -5.3703   25.8987 C.ar    1  UNL1        0.1330
     20 N           7.4156   -4.6939   24.5716 N.ar    1  UNL1       -0.2087
     21 O           4.9598    1.8981   20.8231 O.3     1  UNL1       -0.4731
     22 C           4.5723    2.2969   19.4300 C.3     1  UNL1        0.2071
     23 C           3.1256    2.4746   19.0758 C.3     1  UNL1        0.0635
     24 C           2.5123    3.8434   19.0912 C.3     1  UNL1        0.0726
     25 N           1.0655    4.0211   18.7370 N.3     1  UNL1       -0.2973
     26 C           0.2321    2.8300   18.3674 C.3     1  UNL1        0.0689
     27 C           0.8454    1.4611   18.3521 C.3     1  UNL1        0.0216
     28 C           2.2921    1.2834   18.7063 C.3     1  UNL1        0.0286
     29 H           1.0332    4.6608   17.9432 H       1  UNL1        0.1232
     30 C           2.9053   -0.0854   18.6910 C.ar    1  UNL1       -0.0222
     31 C           2.7005   -1.0120   19.8525 C.ar    1  UNL1       -0.0034
     32 C           3.3138   -2.3809   19.8372 C.ar    1  UNL1        0.0111
     33 C           4.1319   -2.8230   18.6603 C.ar    1  UNL1        0.0577
     34 CL          4.7451   -4.1918   18.6449 Cl      1  UNL1       -0.0822
     35 C           4.3367   -1.8963   17.4986 C.ar    1  UNL1        0.0111
     36 C           3.7235   -0.5275   17.5140 C.ar    1  UNL1       -0.0034
@<TRIPOS>BOND
     1     9    10    2
     2    10    11    2
     3    10    12    1
     4    12    14    1
     5    14    15   ar
     6    15    16   ar
     7    16    17   ar
     8    17    18    1
     9    17    19   ar
    10    19    20   ar
    11    10     1    1
    12     1     2   ar
    13     2     3   ar
    14     3     4    1
    15     3     5   ar
    16     5    21    1
    17    21    22    1
    18    23    22    1
    19    23    24    1
    20    24    25    1
    21    25    26    1
    22    26    27    1
    23    27    28    1
    24    28    30    1
    25    30    31   ar
    26    31    32   ar
    27    32    33   ar
    28    33    34    1
    29    33    35   ar
    30    35    36   ar
    31     5     6   ar
    32     6     7   ar
    33     7     8    1
    34    20    14   ar
    35     7     1   ar
    36    28    23    1
    37    36    30   ar
    38    12    13    1
    39    25    29    1
@<TRIPOS>MOLECULE
*****
 36 39 0 0 0
SMALL
GASTEIGER

@<TRIPOS>ATOM
      1 C           1.9687    0.6329   27.5030 C.ar    1  UNL1        0.1550
      2 C           1.0249    1.2440   26.5102 C.ar    1  UNL1        0.0553
      3 C           1.2118    0.9908   25.0436 C.ar    1  UNL1        0.1753
      4 F           0.2681    1.6020   24.0507 F       1  UNL1       -0.2009
      5 C           2.3425    0.1265   24.5699 C.ar    1  UNL1        0.1681
      6 C           3.2863   -0.4846   25.5627 C.ar    1  UNL1        0.0702
      7 C           3.0994   -0.2314   27.0293 C.ar    1  UNL1        0.1620
      8 F           4.0432   -0.8426   28.0222 F       1  UNL1       -0.2026
      9 O           2.8918    1.8944   28.9372 O.2     1  UNL1       -0.1498
     10 S           1.7818    0.8861   28.9697 S.O2    1  UNL1        0.0780
     11 O           0.6717   -0.1222   29.0022 O.2     1  UNL1       -0.1498
     12 N           1.5948    1.1393   30.4363 N.pl3   1  UNL1       -0.1835
     13 H           0.8735    1.7339   30.7451 H       1  UNL1        0.1767
     14 C           2.5068    0.4865   31.4324 C.ar    1  UNL1        0.2361
     15 N           2.8991    1.2177   32.6819 N.ar    1  UNL1       -0.2087
     16 C           3.8111    0.5649   33.6779 C.ar    1  UNL1        0.1330
     17 C           4.3308   -0.8191   33.4244 C.ar    1  UNL1        0.1784
     18 F           5.2429   -1.4719   34.4204 F       1  UNL1       -0.2009
     19 C           3.9386   -1.5504   32.1748 C.ar    1  UNL1        0.1330
     20 N           3.0266   -0.8976   31.1788 N.ar    1  UNL1       -0.2087
     21 O           2.5295   -0.1267   23.1032 O.3     1  UNL1       -0.4731
     22 C           3.8572   -0.5957   22.5863 C.3     1  UNL1        0.2071
     23 C           3.9446   -1.8565   21.7785 C.3     1  UNL1        0.0635
     24 C           4.6418   -3.0601   22.3399 C.3     1  UNL1        0.0726
     25 N           4.7292   -4.3210   21.5320 N.3     1  UNL1       -0.2973
     26 C           4.1195   -4.3781   20.1627 C.3     1  UNL1        0.0689
     27 C           3.4223   -3.1745   19.6013 C.3     1  UNL1        0.0216
     28 C           3.3349   -1.9137   20.4092 C.3     1  UNL1        0.0286
     29 H           4.2848   -5.0552   22.0831 H       1  UNL1        0.1232
     30 C           2.6377   -0.7100   19.8478 C.ar    1  UNL1       -0.0222
     31 C           1.1813   -0.4875   20.1295 C.ar    1  UNL1       -0.0034
     32 C           0.4842    0.7161   19.5681 C.ar    1  UNL1        0.0111
     33 C           1.2434    1.6973   18.7249 C.ar    1  UNL1        0.0577
     34 CL          0.5462    2.9009   18.1635 Cl      1  UNL1       -0.0822
     35 C           2.6998    1.4748   18.4432 C.ar    1  UNL1        0.0111
     36 C           3.3970    0.2711   19.0046 C.ar    1  UNL1       -0.0034
@<TRIPOS>BOND
     1     9    10    2
     2    10    11    2
     3    10    12    1
     4    12    14    1
     5    14    15   ar
     6    15    16   ar
     7    16    17   ar
     8    17    18    1
     9    17    19   ar
    10    19    20   ar
    11    10     1    1
    12     1     2   ar
    13     2     3   ar
    14     3     4    1
    15     3     5   ar
    16     5    21    1
    17    21    22    1
    18    23    22    1
    19    23    24    1
    20    24    25    1
    21    25    26    1
    22    26    27    1
    23    27    28    1
    24    28    30    1
    25    30    31   ar
    26    31    32   ar
    27    32    33   ar
    28    33    34    1
    29    33    35   ar
    30    35    36   ar
    31     5     6   ar
    32     6     7   ar
    33     7     8    1
    34    20    14   ar
    35     7     1   ar
    36    28    23    1
    37    36    30   ar
    38    12    13    1
    39    25    29    1
@<TRIPOS>MOLECULE
*****
 36 39 0 0 0
SMALL
GASTEIGER

@<TRIPOS>ATOM
      1 C           4.8952   -2.5425   21.5240 C.ar    1  UNL1        0.1550
      2 C           4.2214   -1.6097   22.4862 C.ar    1  UNL1        0.0553
      3 C           2.9983   -0.8512   22.0636 C.ar    1  UNL1        0.1753
      4 F           2.3246    0.0817   23.0258 F       1  UNL1       -0.2009
      5 C           2.4490   -1.0256   20.6788 C.ar    1  UNL1        0.1681
      6 C           3.1227   -1.9585   19.7166 C.ar    1  UNL1        0.0702
      7 C           4.3458   -2.7169   20.1392 C.ar    1  UNL1        0.1620
      8 F           5.0196   -3.6498   19.1770 F       1  UNL1       -0.2026
      9 O           6.9313   -2.0442   21.8496 O.2     1  UNL1       -0.1498
     10 S           6.1184   -3.3010   21.9467 S.O2    1  UNL1        0.0780
     11 O           5.3054   -4.5579   22.0438 O.2     1  UNL1       -0.1498
     12 N           7.3415   -4.0595   22.3694 N.pl3   1  UNL1       -0.1835
     13 H           8.1433   -4.0583   21.7981 H       1  UNL1        0.1767
     14 C           7.3429   -4.8199   23.6624 C.ar    1  UNL1        0.2361
     15 N           6.8402   -4.1681   24.9163 N.ar    1  UNL1       -0.2087
     16 C           6.8416   -4.9285   26.2093 C.ar    1  UNL1        0.1330
     17 C           7.3458   -6.3406   26.2483 C.ar    1  UNL1        0.1784
     18 F           7.3473   -7.1010   27.5414 F       1  UNL1       -0.2009
     19 C           7.8486   -6.9925   24.9944 C.ar    1  UNL1        0.1330
     20 N           7.8471   -6.2321   23.7015 N.ar    1  UNL1       -0.2087
     21 O           1.2258   -0.2671   20.2561 O.3     1  UNL1       -0.4731
     22 C           1.1477    0.3229   18.8793 C.3     1  UNL1        0.2071
     23 C           1.3128    1.8013   18.6864 C.3     1  UNL1        0.0635
     24 C           0.1084    2.6953   18.6753 C.3     1  UNL1        0.0726
     25 N           0.2735    4.1737   18.4824 N.3     1  UNL1       -0.2973
     26 C           1.6430    4.7580   18.3007 C.3     1  UNL1        0.0689
     27 C           2.8474    3.8639   18.3118 C.3     1  UNL1        0.0216
     28 C           2.6823    2.3856   18.5046 C.3     1  UNL1        0.0286
     29 H          -0.1326    4.6248   19.3022 H       1  UNL1        0.1232
     30 C           3.8867    1.4916   18.5157 C.ar    1  UNL1       -0.0222
     31 C           4.1725    0.6037   17.3410 C.ar    1  UNL1       -0.0034
     32 C           5.3769   -0.2903   17.3521 C.ar    1  UNL1        0.0111
     33 C           6.2955   -0.2966   18.5379 C.ar    1  UNL1        0.0577
     34 CL          7.4998   -1.1906   18.5490 Cl      1  UNL1       -0.0822
     35 C           6.0096    0.5913   19.7127 C.ar    1  UNL1        0.0111
     36 C           4.8053    1.4854   19.7016 C.ar    1  UNL1       -0.0034
@<TRIPOS>BOND
     1     9    10    2
     2    10    11    2
     3    10    12    1
     4    12    14    1
     5    14    15   ar
     6    15    16   ar
     7    16    17   ar
     8    17    18    1
     9    17    19   ar
    10    19    20   ar
    11    10     1    1
    12     1     2   ar
    13     2     3   ar
    14     3     4    1
    15     3     5   ar
    16     5    21    1
    17    21    22    1
    18    23    22    1
    19    23    24    1
    20    24    25    1
    21    25    26    1
    22    26    27    1
    23    27    28    1
    24    28    30    1
    25    30    31   ar
    26    31    32   ar
    27    32    33   ar
    28    33    34    1
    29    33    35   ar
    30    35    36   ar
    31     5     6   ar
    32     6     7   ar
    33     7     8    1
    34    20    14   ar
    35     7     1   ar
    36    28    23    1
    37    36    30   ar
    38    12    13    1
    39    25    29    1
