@<TRIPOS>MOLECULE
*****
 42 45 0 0 0
SMALL
GASTEIGER

@<TRIPOS>ATOM
      1 C           2.1243    1.6376   25.3524 C.3     1  UNL1        0.0942
      2 C           1.6553    1.0322   26.6422 C.3     1  UNL1        0.1130
      3 N           0.2075    1.1131   27.0259 N.am    1  UNL1       -0.2767
      4 C          -0.2616    0.5077   28.3157 C.2     1  UNL1        0.2421
      5 O          -1.7094    0.5886   28.6994 O.2     1  UNL1       -0.2734
      6 C          -0.7713    1.7993   26.1198 C.3     1  UNL1        0.0936
      7 C          -0.3023    2.4046   24.8300 C.3     1  UNL1        0.0246
      8 C           1.1455    2.3238   24.4463 C.3     1  UNL1        0.0374
      9 N           5.6047    0.1699   24.1347 N.am    1  UNL1       -0.2485
     10 C           4.1569    0.2508   24.5185 C.2     1  UNL1        0.3059
     11 O           3.2938   -0.9742   24.4519 O.2     1  UNL1       -0.2524
     12 N           3.5722    1.5567   24.9687 N.am    1  UNL1       -0.2885
     13 H           6.1712    0.9739   24.1784 H       1  UNL1        0.1583
     14 H           4.1386    2.3607   25.0124 H       1  UNL1        0.1510
     15 C           7.1486   -2.8783   22.2933 C.ar    1  UNL1        0.0803
     16 S           6.6291   -1.4711   22.2901 S.2     1  UNL1       -0.0488
     17 C           6.1895   -1.1360   23.6845 C.ar    1  UNL1        0.1664
     18 N           6.4372   -2.3361   24.5496 N.ar    1  UNL1       -0.2282
     19 C           7.0300   -3.4129   23.6898 C.ar    1  UNL1        0.0701
     20 C           7.4333   -4.7836   24.1464 C.3     1  UNL1        0.0528
     21 C           8.7314   -2.9825   20.2358 C.3     1  UNL1        0.0779
     22 C           7.6914   -3.6205   21.1082 C.2     1  UNL1        0.1807
     23 O           7.1941   -5.0006   20.7956 O.2     1  UNL1       -0.2908
     24 C           0.7173   -0.1785   29.2218 C.3     1  UNL1        0.1587
     25 N           1.3951    0.5928   30.3153 N.3     1  UNL1       -0.2626
     26 C           2.6894    0.0987   30.8903 C.3     1  UNL1        0.0900
     27 C           0.7786    1.8582   30.8338 C.3     1  UNL1        0.0900
     28 C           1.6145    2.9291   23.1565 C.3     1  UNL1        0.0738
     29 N           1.5644    2.1273   21.8898 N.3     1  UNL1       -0.2726
     30 C           0.2452    1.8391   21.2363 C.3     1  UNL1        0.0721
     31 C           0.1951    1.0374   19.9696 C.3     1  UNL1        0.0174
     32 C           1.4640    0.5238   19.3563 C.3     1  UNL1        0.0031
     33 C           2.7830    0.8120   20.0097 C.3     1  UNL1        0.0204
     34 C           2.8332    1.6138   21.2765 C.3     1  UNL1        0.0724
     35 C           4.0520    0.2984   19.3964 C.3     1  UNL1        0.0277
     36 C           4.2357   -1.1737   19.1750 C.ar    1  UNL1       -0.0220
     37 C           5.3852   -1.6702   18.3489 C.ar    1  UNL1       -0.0020
     38 C           5.5689   -3.1424   18.1275 C.ar    1  UNL1        0.0293
     39 C           4.6032   -4.1180   18.7321 C.ar    1  UNL1        0.1401
     40 F           4.7869   -5.5902   18.5107 F       1  UNL1       -0.2042
     41 C           3.4538   -3.6215   19.5582 C.ar    1  UNL1        0.0293
     42 C           3.2701   -2.1494   19.7796 C.ar    1  UNL1       -0.0020
@<TRIPOS>BOND
     1    21    22    1
     2    22    23    2
     3    22    15    1
     4    15    16   ar
     5    16    17   ar
     6    17     9    1
     7     9    10   am
     8    10    11    2
     9    10    12   am
    10     1    12    1
    11     1     2    1
    12     2     3    1
    13     3     4   am
    14     4     5    2
    15     4    24    1
    16    24    25    1
    17    25    26    1
    18    25    27    1
    19     3     6    1
    20     6     7    1
    21     7     8    1
    22     8    28    1
    23    28    29    1
    24    29    30    1
    25    30    31    1
    26    31    32    1
    27    32    33    1
    28    33    35    1
    29    35    36    1
    30    36    37   ar
    31    37    38   ar
    32    38    39   ar
    33    39    40    1
    34    39    41   ar
    35    41    42   ar
    36    33    34    1
    37    17    18   ar
    38    18    19   ar
    39    19    20    1
    40    19    15   ar
    41     8     1    1
    42    34    29    1
    43    42    36   ar
    44     9    13    1
    45    12    14    1
@<TRIPOS>MOLECULE
*****
 42 45 0 0 0
SMALL
GASTEIGER

@<TRIPOS>ATOM
      1 C           6.2298   -3.5030   24.2858 C.3     1  UNL1        0.0942
      2 C           6.5945   -4.5527   25.2933 C.3     1  UNL1        0.1130
      3 N           7.8827   -5.3087   25.1559 N.am    1  UNL1       -0.2767
      4 C           8.2475   -6.3585   26.1634 C.2     1  UNL1        0.2421
      5 O           9.5357   -7.1145   26.0260 O.2     1  UNL1       -0.2734
      6 C           8.8062   -5.0151   24.0109 C.3     1  UNL1        0.0936
      7 C           8.4415   -3.9655   23.0034 C.3     1  UNL1        0.0246
      8 C           7.1533   -3.2094   23.1408 C.3     1  UNL1        0.0374
      9 N           3.4362   -1.0870   25.7379 N.am    1  UNL1       -0.2485
     10 C           4.7244   -1.8431   25.6005 C.2     1  UNL1        0.3059
     11 O           5.7954   -1.6954   26.6403 O.2     1  UNL1       -0.2524
     12 N           4.9416   -2.7469   24.4232 N.am    1  UNL1       -0.2885
     13 H           2.7333   -1.1840   25.0555 H       1  UNL1        0.1583
     14 H           4.2387   -2.8439   23.7408 H       1  UNL1        0.1510
     15 C           2.6393    0.6244   29.1294 C.ar    1  UNL1        0.0803
     16 S           2.6942   -0.5957   28.2585 S.2     1  UNL1       -0.0488
     17 C           3.2190   -0.1832   26.9152 C.ar    1  UNL1        0.1664
     18 N           3.4885    1.2918   26.9559 N.ar    1  UNL1       -0.2282
     19 C           3.1302    1.7910   28.3243 C.ar    1  UNL1        0.0701
     20 C           3.2430    3.2079   28.8035 C.3     1  UNL1        0.0528
     21 C           3.0641    0.1593   31.6499 C.3     1  UNL1        0.0779
     22 C           2.1750    0.6699   30.5550 C.2     1  UNL1        0.1807
     23 O           0.8218    1.2259   30.8856 O.2     1  UNL1       -0.2908
     24 C           7.3240   -6.6521   27.3084 C.3     1  UNL1        0.1587
     25 N           7.5622   -6.0165   28.6460 N.3     1  UNL1       -0.2626
     26 C           6.6344   -4.9486   29.1448 C.3     1  UNL1        0.0900
     27 C           8.7281   -6.4488   29.4849 C.3     1  UNL1        0.0900
     28 C           6.7885   -2.1597   22.1333 C.3     1  UNL1        0.0738
     29 N           5.7943   -2.4696   21.0538 N.3     1  UNL1       -0.2726
     30 C           5.4304   -3.8940   20.7557 C.3     1  UNL1        0.0721
     31 C           4.4362   -4.2040   19.6762 C.3     1  UNL1        0.0174
     32 C           3.8057   -3.0895   18.8947 C.3     1  UNL1        0.0031
     33 C           4.1696   -1.6652   19.1928 C.3     1  UNL1        0.0204
     34 C           5.1639   -1.3553   20.2723 C.3     1  UNL1        0.0724
     35 C           3.5392   -0.5508   18.4113 C.3     1  UNL1        0.0277
     36 C           2.3551    0.1810   18.9704 C.ar    1  UNL1       -0.0220
     37 C           1.4516   -0.4975   19.9570 C.ar    1  UNL1       -0.0020
     38 C           0.2675    0.2342   20.5161 C.ar    1  UNL1        0.0293
     39 C          -0.0130    1.6444   20.0886 C.ar    1  UNL1        0.1401
     40 F          -1.1971    2.3761   20.6477 F       1  UNL1       -0.2042
     41 C           0.8905    2.3228   19.1020 C.ar    1  UNL1        0.0293
     42 C           2.0746    1.5911   18.5429 C.ar    1  UNL1       -0.0020
@<TRIPOS>BOND
     1    21    22    1
     2    22    23    2
     3    22    15    1
     4    15    16   ar
     5    16    17   ar
     6    17     9    1
     7     9    10   am
     8    10    11    2
     9    10    12   am
    10     1    12    1
    11     1     2    1
    12     2     3    1
    13     3     4   am
    14     4     5    2
    15     4    24    1
    16    24    25    1
    17    25    26    1
    18    25    27    1
    19     3     6    1
    20     6     7    1
    21     7     8    1
    22     8    28    1
    23    28    29    1
    24    29    30    1
    25    30    31    1
    26    31    32    1
    27    32    33    1
    28    33    35    1
    29    35    36    1
    30    36    37   ar
    31    37    38   ar
    32    38    39   ar
    33    39    40    1
    34    39    41   ar
    35    41    42   ar
    36    33    34    1
    37    17    18   ar
    38    18    19   ar
    39    19    20    1
    40    19    15   ar
    41     8     1    1
    42    34    29    1
    43    42    36   ar
    44     9    13    1
    45    12    14    1
@<TRIPOS>MOLECULE
*****
 42 45 0 0 0
SMALL
GASTEIGER

@<TRIPOS>ATOM
      1 C           6.8490   -2.5541   24.7250 C.3     1  UNL1        0.0942
      2 C           6.7285   -3.6572   25.7342 C.3     1  UNL1        0.1130
      3 N           7.1457   -5.0522   25.3739 N.am    1  UNL1       -0.2767
      4 C           7.0253   -6.1554   26.3831 C.2     1  UNL1        0.2421
      5 O           7.4425   -7.5504   26.0228 O.2     1  UNL1       -0.2734
      6 C           7.6835   -5.3440   24.0043 C.3     1  UNL1        0.0936
      7 C           7.8040   -4.2409   22.9951 C.3     1  UNL1        0.0246
      8 C           7.3867   -2.8459   23.3555 C.3     1  UNL1        0.0374
      9 N           4.5886    0.5207   25.8144 N.am    1  UNL1       -0.2485
     10 C           5.0059   -0.8743   25.4541 C.2     1  UNL1        0.3059
     11 O           3.9973   -1.9846   25.4625 O.2     1  UNL1       -0.2524
     12 N           6.4317   -1.1590   25.0853 N.am    1  UNL1       -0.2885
     13 H           5.2506    1.2494   25.8088 H       1  UNL1        0.1583
     14 H           7.0937   -0.4303   25.0798 H       1  UNL1        0.1510
     15 C           1.1051    1.0178   27.4526 C.ar    1  UNL1        0.0803
     16 S           2.5455    0.6075   27.5358 S.2     1  UNL1       -0.0488
     17 C           3.1628    0.8054   26.1831 C.ar    1  UNL1        0.1664
     18 N           2.1039    1.3381   25.2639 N.ar    1  UNL1       -0.2282
     19 C           0.8322    1.4693   26.0484 C.ar    1  UNL1        0.0701
     20 C          -0.4818    1.9651   25.5214 C.3     1  UNL1        0.0528
     21 C          -0.9674   -0.0587   28.5909 C.3     1  UNL1        0.0779
     22 C           0.1121    0.9827   28.5762 C.2     1  UNL1        0.1807
     23 O           0.1985    1.9890   29.6852 O.2     1  UNL1       -0.2908
     24 C           6.4875   -5.8635   27.7527 C.3     1  UNL1        0.1587
     25 N           7.4297   -5.6868   28.9064 N.3     1  UNL1       -0.2626
     26 C           8.9097   -5.7993   28.6901 C.3     1  UNL1        0.0900
     27 C           6.8918   -5.3974   30.2764 C.3     1  UNL1        0.0900
     28 C           7.5072   -1.7427   22.3462 C.3     1  UNL1        0.0738
     29 N           6.8713   -1.8891   20.9956 N.3     1  UNL1       -0.2726
     30 C           7.7287   -1.9618   19.7669 C.3     1  UNL1        0.0721
     31 C           7.0929   -2.1082   18.4162 C.3     1  UNL1        0.0174
     32 C           5.5996   -2.1819   18.2943 C.3     1  UNL1        0.0031
     33 C           4.7423   -2.1092   19.5230 C.3     1  UNL1        0.0204
     34 C           5.3782   -1.9628   20.8736 C.3     1  UNL1        0.0724
     35 C           3.2490   -2.1829   19.4011 C.3     1  UNL1        0.0277
     36 C           2.4349   -0.9232   19.3825 C.ar    1  UNL1       -0.0220
     37 C           1.2143   -0.8062   20.2465 C.ar    1  UNL1       -0.0020
     38 C           0.4003    0.4535   20.2280 C.ar    1  UNL1        0.0293
     39 C           0.8068    1.5963   19.3454 C.ar    1  UNL1        0.1401
     40 F          -0.0072    2.8561   19.3269 F       1  UNL1       -0.2042
     41 C           2.0274    1.4793   18.4815 C.ar    1  UNL1        0.0293
     42 C           2.8415    0.2196   18.5000 C.ar    1  UNL1       -0.0020
@<TRIPOS>BOND
     1    21    22    1
     2    22    23    2
     3    22    15    1
     4    15    16   ar
     5    16    17   ar
     6    17     9    1
     7     9    10   am
     8    10    11    2
     9    10    12   am
    10     1    12    1
    11     1     2    1
    12     2     3    1
    13     3     4   am
    14     4     5    2
    15     4    24    1
    16    24    25    1
    17    25    26    1
    18    25    27    1
    19     3     6    1
    20     6     7    1
    21     7     8    1
    22     8    28    1
    23    28    29    1
    24    29    30    1
    25    30    31    1
    26    31    32    1
    27    32    33    1
    28    33    35    1
    29    35    36    1
    30    36    37   ar
    31    37    38   ar
    32    38    39   ar
    33    39    40    1
    34    39    41   ar
    35    41    42   ar
    36    33    34    1
    37    17    18   ar
    38    18    19   ar
    39    19    20    1
    40    19    15   ar
    41     8     1    1
    42    34    29    1
    43    42    36   ar
    44     9    13    1
    45    12    14    1
@<TRIPOS>MOLECULE
*****
 42 45 0 0 0
SMALL
GASTEIGER

@<TRIPOS>ATOM
      1 C           1.7592    1.8290   24.8388 C.3     1  UNL1        0.0942
      2 C           1.4891    1.1380   26.1425 C.3     1  UNL1        0.1130
      3 N           0.1319    1.2323   26.7741 N.am    1  UNL1       -0.2767
      4 C          -0.1382    0.5414   28.0779 C.2     1  UNL1        0.2421
      5 O          -1.4954    0.6357   28.7096 O.2     1  UNL1       -0.2734
      6 C          -0.9552    2.0176   26.1022 C.3     1  UNL1        0.0936
      7 C          -0.6852    2.7085   24.7985 C.3     1  UNL1        0.0246
      8 C           0.6720    2.6142   24.1668 C.3     1  UNL1        0.0374
      9 N           4.8352    0.4408   22.7504 N.am    1  UNL1       -0.2485
     10 C           3.4780    0.5351   23.3822 C.2     1  UNL1        0.3059
     11 O           2.4824   -0.5701   23.1892 O.2     1  UNL1       -0.2524
     12 N           3.1164    1.7347   24.2070 N.am    1  UNL1       -0.2885
     13 H           5.4886    1.1662   22.8771 H       1  UNL1        0.1583
     14 H           3.7698    2.4601   24.3337 H       1  UNL1        0.1510
     15 C           5.1670   -2.4728   20.2076 C.ar    1  UNL1        0.0803
     16 S           4.4608   -1.2505   20.7147 S.2     1  UNL1       -0.0488
     17 C           5.1968   -0.7587   21.9256 C.ar    1  UNL1        0.1664
     18 N           6.3580   -1.6771   22.1669 N.ar    1  UNL1       -0.2282
     19 C           6.3396   -2.7365   21.1051 C.ar    1  UNL1        0.0701
     20 C           7.3214   -3.8619   20.9654 C.3     1  UNL1        0.0528
     21 C           3.6276   -4.2550   19.1104 C.3     1  UNL1        0.0779
     22 C           4.7704   -3.2883   19.0128 C.2     1  UNL1        0.1807
     23 O           5.5164   -3.1371   17.7204 O.2     1  UNL1       -0.2908
     24 C           0.9489   -0.2438   28.7499 C.3     1  UNL1        0.1587
     25 N           1.5864    0.2785   30.0032 N.3     1  UNL1       -0.2626
     26 C           2.6433   -0.5270   30.6990 C.3     1  UNL1        0.0900
     27 C           1.1669    1.6064   30.5607 C.3     1  UNL1        0.0900
     28 C           0.9422    3.3052   22.8630 C.3     1  UNL1        0.0738
     29 N           1.1704    2.4978   21.6196 N.3     1  UNL1       -0.2726
     30 C           0.3047    1.3079   21.3285 C.3     1  UNL1        0.0721
     31 C           0.5329    0.5006   20.0851 C.3     1  UNL1        0.0174
     32 C           1.6268    0.8832   19.1327 C.3     1  UNL1        0.0031
     33 C           2.4924    2.0732   19.4237 C.3     1  UNL1        0.0204
     34 C           2.2642    2.8805   20.6672 C.3     1  UNL1        0.0724
     35 C           3.5863    2.4558   18.4713 C.3     1  UNL1        0.0277
     36 C           4.9230    1.7803   18.5539 C.ar    1  UNL1       -0.0220
     37 C           5.2988    0.7353   17.5455 C.ar    1  UNL1       -0.0020
     38 C           6.6355    0.0597   17.6281 C.ar    1  UNL1        0.0293
     39 C           7.5964    0.4292   18.7192 C.ar    1  UNL1        0.1401
     40 F           8.9331   -0.2464   18.8018 F       1  UNL1       -0.2042
     41 C           7.2206    1.4741   19.7275 C.ar    1  UNL1        0.0293
     42 C           5.8838    2.1497   19.6449 C.ar    1  UNL1       -0.0020
@<TRIPOS>BOND
     1    21    22    1
     2    22    23    2
     3    22    15    1
     4    15    16   ar
     5    16    17   ar
     6    17     9    1
     7     9    10   am
     8    10    11    2
     9    10    12   am
    10     1    12    1
    11     1     2    1
    12     2     3    1
    13     3     4   am
    14     4     5    2
    15     4    24    1
    16    24    25    1
    17    25    26    1
    18    25    27    1
    19     3     6    1
    20     6     7    1
    21     7     8    1
    22     8    28    1
    23    28    29    1
    24    29    30    1
    25    30    31    1
    26    31    32    1
    27    32    33    1
    28    33    35    1
    29    35    36    1
    30    36    37   ar
    31    37    38   ar
    32    38    39   ar
    33    39    40    1
    34    39    41   ar
    35    41    42   ar
    36    33    34    1
    37    17    18   ar
    38    18    19   ar
    39    19    20    1
    40    19    15   ar
    41     8     1    1
    42    34    29    1
    43    42    36   ar
    44     9    13    1
    45    12    14    1
@<TRIPOS>MOLECULE
*****
 42 45 0 0 0
SMALL
GASTEIGER

@<TRIPOS>ATOM
      1 C           4.3253    0.3330   29.6359 C.3     1  UNL1        0.0942
      2 C           5.2817   -0.8051   29.8360 C.3     1  UNL1        0.1130
      3 N           5.1998   -1.6442   31.0766 N.am    1  UNL1       -0.2767
      4 C           6.1562   -2.7824   31.2767 C.2     1  UNL1        0.2421
      5 O           6.0743   -3.6215   32.5173 O.2     1  UNL1       -0.2734
      6 C           4.1615   -1.3453   32.1171 C.3     1  UNL1        0.0936
      7 C           3.2051   -0.2072   31.9169 C.3     1  UNL1        0.0246
      8 C           3.2870    0.6319   30.6763 C.3     1  UNL1        0.0374
      9 N           3.8561    1.5320   25.8819 N.am    1  UNL1       -0.2485
     10 C           3.7742    0.6929   27.1225 C.2     1  UNL1        0.3059
     11 O           3.0595   -0.6255   27.0905 O.2     1  UNL1       -0.2524
     12 N           4.4072    1.1722   28.3952 N.am    1  UNL1       -0.2885
     13 H           4.3252    2.3973   25.9030 H       1  UNL1        0.1583
     14 H           4.8763    2.0374   28.4163 H       1  UNL1        0.1510
     15 C           1.7168    0.8392   22.7182 C.ar    1  UNL1        0.0803
     16 S           1.9896    1.6187   23.9704 S.2     1  UNL1       -0.0488
     17 C           3.2232    1.0528   24.6092 C.ar    1  UNL1        0.1664
     18 N           3.7127   -0.0765   23.7518 N.ar    1  UNL1       -0.2282
     19 C           2.7817   -0.2085   22.5832 C.ar    1  UNL1        0.0701
     20 C           2.8956   -1.2121   21.4742 C.3     1  UNL1        0.0528
     21 C          -0.0824    2.4119   21.6989 C.3     1  UNL1        0.0779
     22 C           0.5788    1.0673   21.7680 C.2     1  UNL1        0.1807
     23 O           0.1020   -0.0491   20.8870 O.2     1  UNL1       -0.2908
     24 C           7.1945   -3.0813   30.2363 C.3     1  UNL1        0.1587
     25 N           7.0082   -4.2399   29.3020 N.3     1  UNL1       -0.2626
     26 C           6.3377   -4.0339   27.9761 C.3     1  UNL1        0.0900
     27 C           7.4923   -5.6046   29.6936 C.3     1  UNL1        0.0900
     28 C           2.3306    1.7700   30.4762 C.3     1  UNL1        0.0738
     29 N           1.2089    1.6422   29.4885 N.3     1  UNL1       -0.2726
     30 C           0.5188    0.3232   29.3039 C.3     1  UNL1        0.0721
     31 C          -0.6029    0.1954   28.3162 C.3     1  UNL1        0.0174
     32 C          -1.0344    1.3866   27.5131 C.3     1  UNL1        0.0031
     33 C          -0.3442    2.7055   27.6977 C.3     1  UNL1        0.0204
     34 C           0.7774    2.8333   28.6854 C.3     1  UNL1        0.0724
     35 C          -0.7757    3.8967   26.8945 C.3     1  UNL1        0.0277
     36 C          -2.0469    3.8449   26.1000 C.ar    1  UNL1       -0.0220
     37 C          -3.3659    4.0643   26.7800 C.ar    1  UNL1       -0.0020
     38 C          -4.6371    4.0126   25.9854 C.ar    1  UNL1        0.0293
     39 C          -4.5894    3.7414   24.5109 C.ar    1  UNL1        0.1401
     40 F          -5.8606    3.6896   23.7163 F       1  UNL1       -0.2042
     41 C          -3.2705    3.5220   23.8309 C.ar    1  UNL1        0.0293
     42 C          -1.9993    3.5738   24.6255 C.ar    1  UNL1       -0.0020
@<TRIPOS>BOND
     1    21    22    1
     2    22    23    2
     3    22    15    1
     4    15    16   ar
     5    16    17   ar
     6    17     9    1
     7     9    10   am
     8    10    11    2
     9    10    12   am
    10     1    12    1
    11     1     2    1
    12     2     3    1
    13     3     4   am
    14     4     5    2
    15     4    24    1
    16    24    25    1
    17    25    26    1
    18    25    27    1
    19     3     6    1
    20     6     7    1
    21     7     8    1
    22     8    28    1
    23    28    29    1
    24    29    30    1
    25    30    31    1
    26    31    32    1
    27    32    33    1
    28    33    35    1
    29    35    36    1
    30    36    37   ar
    31    37    38   ar
    32    38    39   ar
    33    39    40    1
    34    39    41   ar
    35    41    42   ar
    36    33    34    1
    37    17    18   ar
    38    18    19   ar
    39    19    20    1
    40    19    15   ar
    41     8     1    1
    42    34    29    1
    43    42    36   ar
    44     9    13    1
    45    12    14    1
@<TRIPOS>MOLECULE
*****
 42 45 0 0 0
SMALL
GASTEIGER

@<TRIPOS>ATOM
      1 C           2.9589    0.6541   21.9808 C.3     1  UNL1        0.0942
      2 C           3.1915   -0.4919   21.0414 C.3     1  UNL1        0.1130
      3 N           3.7517   -1.7837   21.5586 N.am    1  UNL1       -0.2767
      4 C           3.9844   -2.9298   20.6193 C.2     1  UNL1        0.2421
      5 O           4.5446   -4.2215   21.1365 O.2     1  UNL1       -0.2734
      6 C           4.0794   -1.9293   23.0151 C.3     1  UNL1        0.0936
      7 C           3.8468   -0.7832   23.9545 C.3     1  UNL1        0.0246
      8 C           3.2865    0.5085   23.4373 C.3     1  UNL1        0.0374
      9 N           0.3789    3.3434   20.6163 N.am    1  UNL1       -0.2485
     10 C           0.9392    2.0517   21.1334 C.2     1  UNL1        0.3059
     11 O           0.0401    0.8656   21.3205 O.2     1  UNL1       -0.2524
     12 N           2.3986    1.9459   21.4636 N.am    1  UNL1       -0.2885
     13 H           0.9690    4.1218   20.4935 H       1  UNL1        0.1583
     14 H           2.9887    2.7244   21.3408 H       1  UNL1        0.1510
     15 C          -3.1533    3.8774   19.0984 C.ar    1  UNL1        0.0803
     16 S          -1.6584    3.9410   18.9923 S.2     1  UNL1       -0.0488
     17 C          -1.0805    3.4491   20.2862 C.ar    1  UNL1        0.1664
     18 N          -2.2183    3.0815   21.1919 N.ar    1  UNL1       -0.2282
     19 C          -3.4993    3.3462   20.4579 C.ar    1  UNL1        0.0701
     20 C          -4.8834    3.1195   20.9899 C.3     1  UNL1        0.0528
     21 C          -4.7004    5.6626   18.0171 C.3     1  UNL1        0.0779
     22 C          -4.1306    4.2751   18.0322 C.2     1  UNL1        0.1807
     23 O          -4.5380    3.2855   16.9813 O.2     1  UNL1       -0.2908
     24 C           3.6567   -2.7842   19.1628 C.3     1  UNL1        0.1587
     25 N           4.6431   -2.1424   18.2327 N.3     1  UNL1       -0.2626
     26 C           6.0811   -2.5686   18.2541 C.3     1  UNL1        0.0900
     27 C           4.1914   -1.0744   17.2811 C.3     1  UNL1        0.0900
     28 C           3.0539    1.6547   24.3766 C.3     1  UNL1        0.0738
     29 N           1.7433    1.7814   25.0950 N.3     1  UNL1       -0.2726
     30 C           0.6781    2.6905   24.5574 C.3     1  UNL1        0.0721
     31 C          -0.6325    2.8172   25.2758 C.3     1  UNL1        0.0174
     32 C          -0.8780    2.0349   26.5319 C.3     1  UNL1        0.0031
     33 C           0.1871    1.1258   27.0695 C.3     1  UNL1        0.0204
     34 C           1.4978    0.9991   26.3511 C.3     1  UNL1        0.0724
     35 C          -0.0583    0.3434   28.3256 C.3     1  UNL1        0.0277
     36 C           0.7911    0.5854   29.5380 C.ar    1  UNL1       -0.0220
     37 C           1.9287   -0.3400   29.8535 C.ar    1  UNL1       -0.0020
     38 C           2.7782   -0.0980   31.0659 C.ar    1  UNL1        0.0293
     39 C           2.4900    1.0694   31.9627 C.ar    1  UNL1        0.1401
     40 F           3.3395    1.3114   33.1751 F       1  UNL1       -0.2042
     41 C           1.3525    1.9948   31.6471 C.ar    1  UNL1        0.0293
     42 C           0.5030    1.7528   30.4348 C.ar    1  UNL1       -0.0020
@<TRIPOS>BOND
     1    21    22    1
     2    22    23    2
     3    22    15    1
     4    15    16   ar
     5    16    17   ar
     6    17     9    1
     7     9    10   am
     8    10    11    2
     9    10    12   am
    10     1    12    1
    11     1     2    1
    12     2     3    1
    13     3     4   am
    14     4     5    2
    15     4    24    1
    16    24    25    1
    17    25    26    1
    18    25    27    1
    19     3     6    1
    20     6     7    1
    21     7     8    1
    22     8    28    1
    23    28    29    1
    24    29    30    1
    25    30    31    1
    26    31    32    1
    27    32    33    1
    28    33    35    1
    29    35    36    1
    30    36    37   ar
    31    37    38   ar
    32    38    39   ar
    33    39    40    1
    34    39    41   ar
    35    41    42   ar
    36    33    34    1
    37    17    18   ar
    38    18    19   ar
    39    19    20    1
    40    19    15   ar
    41     8     1    1
    42    34    29    1
    43    42    36   ar
    44     9    13    1
    45    12    14    1
@<TRIPOS>MOLECULE
*****
 42 45 0 0 0
SMALL
GASTEIGER

@<TRIPOS>ATOM
      1 C           1.2658    2.8797   21.3714 C.3     1  UNL1        0.0942
      2 C           2.2463    1.8399   20.9163 C.3     1  UNL1        0.1130
      3 N           2.1521    1.2763   19.5294 N.am    1  UNL1       -0.2767
      4 C           3.1327    0.2364   19.0742 C.2     1  UNL1        0.2421
      5 O           3.0385   -0.3272   17.6874 O.2     1  UNL1       -0.2734
      6 C           1.0774    1.7525   18.5977 C.3     1  UNL1        0.0936
      7 C           0.0968    2.7924   19.0528 C.3     1  UNL1        0.0246
      8 C           0.1910    3.3560   20.4397 C.3     1  UNL1        0.0374
      9 N           1.1362    3.1427   25.3292 N.am    1  UNL1       -0.2485
     10 C           1.0421    2.5791   23.9424 C.2     1  UNL1        0.3059
     11 O           0.6301    1.1510   23.7395 O.2     1  UNL1       -0.2524
     12 N           1.3599    3.4434   22.7584 N.am    1  UNL1       -0.2885
     13 H           1.4066    4.0799   25.4624 H       1  UNL1        0.1583
     14 H           1.6303    4.3806   22.8915 H       1  UNL1        0.1510
     15 C           1.0108    1.0842   28.6175 C.ar    1  UNL1        0.0803
     16 S           1.7342    1.9904   27.6659 S.2     1  UNL1       -0.0488
     17 C           0.8184    2.2783   26.5132 C.ar    1  UNL1        0.1664
     18 N          -0.4709    1.5501   26.7526 N.ar    1  UNL1       -0.2282
     19 C          -0.3521    0.8121   28.0531 C.ar    1  UNL1        0.0701
     20 C          -1.4102   -0.0471   28.6791 C.3     1  UNL1        0.0528
     21 C           2.5339   -0.5913   29.8913 C.3     1  UNL1        0.0779
     22 C           1.5548    0.5449   29.9072 C.2     1  UNL1        0.1807
     23 O           1.1196    1.1418   31.2126 O.2     1  UNL1       -0.2908
     24 C           4.2075   -0.2398   20.0060 C.3     1  UNL1        0.1587
     25 N           4.7577   -1.6285   19.8690 N.3     1  UNL1       -0.2626
     26 C           3.8749   -2.8137   20.1257 C.3     1  UNL1        0.0900
     27 C           6.1907   -1.8320   19.4751 C.3     1  UNL1        0.0900
     28 C          -0.7896    4.3959   20.8949 C.3     1  UNL1        0.0738
     29 N          -2.2533    4.0728   20.9512 N.3     1  UNL1       -0.2726
     30 C          -3.0989    4.2067   19.7195 C.3     1  UNL1        0.0721
     31 C          -4.5626    3.8836   19.7758 C.3     1  UNL1        0.0174
     32 C          -5.1807    3.4267   21.0640 C.3     1  UNL1        0.0031
     33 C          -4.3352    3.2928   22.2956 C.3     1  UNL1        0.0204
     34 C          -2.8714    3.6159   22.2393 C.3     1  UNL1        0.0724
     35 C          -4.9533    2.8358   23.5837 C.3     1  UNL1        0.0277
     36 C          -5.1118    3.7990   24.7227 C.ar    1  UNL1       -0.0220
     37 C          -6.2581    4.7666   24.7327 C.ar    1  UNL1       -0.0020
     38 C          -6.4166    5.7297   25.8716 C.ar    1  UNL1        0.0293
     39 C          -5.4289    5.7252   27.0006 C.ar    1  UNL1        0.1401
     40 F          -5.5875    6.6884   28.1396 F       1  UNL1       -0.2042
     41 C          -4.2828    4.7577   26.9906 C.ar    1  UNL1        0.0293
     42 C          -4.1243    3.7945   25.8517 C.ar    1  UNL1       -0.0020
@<TRIPOS>BOND
     1    21    22    1
     2    22    23    2
     3    22    15    1
     4    15    16   ar
     5    16    17   ar
     6    17     9    1
     7     9    10   am
     8    10    11    2
     9    10    12   am
    10     1    12    1
    11     1     2    1
    12     2     3    1
    13     3     4   am
    14     4     5    2
    15     4    24    1
    16    24    25    1
    17    25    26    1
    18    25    27    1
    19     3     6    1
    20     6     7    1
    21     7     8    1
    22     8    28    1
    23    28    29    1
    24    29    30    1
    25    30    31    1
    26    31    32    1
    27    32    33    1
    28    33    35    1
    29    35    36    1
    30    36    37   ar
    31    37    38   ar
    32    38    39   ar
    33    39    40    1
    34    39    41   ar
    35    41    42   ar
    36    33    34    1
    37    17    18   ar
    38    18    19   ar
    39    19    20    1
    40    19    15   ar
    41     8     1    1
    42    34    29    1
    43    42    36   ar
    44     9    13    1
    45    12    14    1
@<TRIPOS>MOLECULE
*****
 42 45 0 0 0
SMALL
GASTEIGER

@<TRIPOS>ATOM
      1 C           7.2320   -3.2893   23.9284 C.3     1  UNL1        0.0942
      2 C           7.1721   -3.8395   25.3225 C.3     1  UNL1        0.1130
      3 N           7.5289   -5.2737   25.5786 N.am    1  UNL1       -0.2767
      4 C           7.4691   -5.8241   26.9728 C.2     1  UNL1        0.2421
      5 O           7.8259   -7.2583   27.2289 O.2     1  UNL1       -0.2734
      6 C           7.9456   -6.1577   24.4407 C.3     1  UNL1        0.0936
      7 C           8.0054   -5.6075   23.0466 C.3     1  UNL1        0.0246
      8 C           7.6486   -4.1732   22.7904 C.3     1  UNL1        0.0374
      9 N           5.0782   -0.0068   23.3479 N.am    1  UNL1       -0.2485
     10 C           5.4350   -1.4411   23.6040 C.2     1  UNL1        0.3059
     11 O           4.3517   -2.4614   23.7921 O.2     1  UNL1       -0.2524
     12 N           6.8752   -1.8550   23.6722 N.am    1  UNL1       -0.2885
     13 H           5.7892    0.6628   23.2245 H       1  UNL1        0.1583
     14 H           7.5862   -1.1853   23.5488 H       1  UNL1        0.1510
     15 C           1.4492    1.0158   22.4258 C.ar    1  UNL1        0.0803
     16 S           2.8358    0.6046   22.0278 S.2     1  UNL1       -0.0488
     17 C           3.6381    0.4071   23.2797 C.ar    1  UNL1        0.1664
     18 N           2.7473    0.6961   24.4515 N.ar    1  UNL1       -0.2282
     19 C           1.3945    1.0723   23.9238 C.ar    1  UNL1        0.0701
     20 C           0.1973    1.4404   24.7491 C.3     1  UNL1        0.0528
     21 C          -0.2351    2.7097   21.4044 C.3     1  UNL1        0.0779
     22 C           0.3162    1.3174   21.4902 C.2     1  UNL1        0.1807
     23 O          -0.2653    0.2267   20.6404 O.2     1  UNL1       -0.2908
     24 C           7.0525   -4.9401   28.1108 C.3     1  UNL1        0.1587
     25 N           7.7231   -5.0704   29.4462 N.3     1  UNL1       -0.2626
     26 C           9.1170   -4.5511   29.6393 C.3     1  UNL1        0.0900
     27 C           6.9998   -5.7201   30.5885 C.3     1  UNL1        0.0900
     28 C           7.7085   -3.6229   21.3962 C.3     1  UNL1        0.0738
     29 N           6.4427   -3.4016   20.6223 N.3     1  UNL1       -0.2726
     30 C           5.2483   -4.2738   20.8728 C.3     1  UNL1        0.0721
     31 C           3.9826   -4.0526   20.0989 C.3     1  UNL1        0.0174
     32 C           3.9113   -2.9591   19.0745 C.3     1  UNL1        0.0031
     33 C           5.1057   -2.0869   18.8241 C.3     1  UNL1        0.0204
     34 C           6.3714   -2.3082   19.5980 C.3     1  UNL1        0.0724
     35 C           5.0344   -0.9934   17.7997 C.3     1  UNL1        0.0277
     36 C           4.2654    0.2605   18.0936 C.ar    1  UNL1       -0.0220
     37 C           4.9954    1.5229   18.4453 C.ar    1  UNL1       -0.0020
     38 C           4.2265    2.7769   18.7391 C.ar    1  UNL1        0.0293
     39 C           2.7276    2.7685   18.6813 C.ar    1  UNL1        0.1401
     40 F           1.9587    4.0224   18.9752 F       1  UNL1       -0.2042
     41 C           1.9977    1.5061   18.3297 C.ar    1  UNL1        0.0293
     42 C           2.7666    0.2522   18.0358 C.ar    1  UNL1       -0.0020
@<TRIPOS>BOND
     1    21    22    1
     2    22    23    2
     3    22    15    1
     4    15    16   ar
     5    16    17   ar
     6    17     9    1
     7     9    10   am
     8    10    11    2
     9    10    12   am
    10     1    12    1
    11     1     2    1
    12     2     3    1
    13     3     4   am
    14     4     5    2
    15     4    24    1
    16    24    25    1
    17    25    26    1
    18    25    27    1
    19     3     6    1
    20     6     7    1
    21     7     8    1
    22     8    28    1
    23    28    29    1
    24    29    30    1
    25    30    31    1
    26    31    32    1
    27    32    33    1
    28    33    35    1
    29    35    36    1
    30    36    37   ar
    31    37    38   ar
    32    38    39   ar
    33    39    40    1
    34    39    41   ar
    35    41    42   ar
    36    33    34    1
    37    17    18   ar
    38    18    19   ar
    39    19    20    1
    40    19    15   ar
    41     8     1    1
    42    34    29    1
    43    42    36   ar
    44     9    13    1
    45    12    14    1
@<TRIPOS>MOLECULE
*****
 42 45 0 0 0
SMALL
GASTEIGER

@<TRIPOS>ATOM
      1 C           7.7722   -6.8966   26.8613 C.3     1  UNL1        0.0942
      2 C           7.2964   -5.8669   25.8799 C.3     1  UNL1        0.1130
      3 N           7.7531   -5.9241   24.4523 N.am    1  UNL1       -0.2767
      4 C           7.2773   -4.8943   23.4708 C.2     1  UNL1        0.2421
      5 O           7.7340   -4.9515   22.0432 O.2     1  UNL1       -0.2734
      6 C           8.6855   -7.0111   24.0061 C.3     1  UNL1        0.0936
      7 C           9.1612   -8.0408   24.9875 C.3     1  UNL1        0.0246
      8 C           8.7046   -7.9836   26.4151 C.3     1  UNL1        0.0374
      9 N           7.0793   -5.5382   30.5253 N.am    1  UNL1       -0.2485
     10 C           7.5359   -5.5954   29.0977 C.2     1  UNL1        0.3059
     11 O           8.2130   -4.4086   28.4786 O.2     1  UNL1       -0.2524
     12 N           7.3155   -6.8394   28.2890 N.am    1  UNL1       -0.2885
     13 H           6.6350   -6.3171   30.9316 H       1  UNL1        0.1583
     14 H           6.8712   -7.6184   28.6953 H       1  UNL1        0.1510
     15 C           6.9076   -2.2201   32.5319 C.ar    1  UNL1        0.0803
     16 S           6.2460   -3.3045   31.7342 S.2     1  UNL1       -0.0488
     17 C           7.2997   -4.2942   31.3339 C.ar    1  UNL1        0.1664
     18 N           8.6126   -3.8215   31.8843 N.ar    1  UNL1       -0.2282
     19 C           8.3702   -2.5396   32.6247 C.ar    1  UNL1        0.0701
     20 C           9.4083   -1.7210   33.3335 C.3     1  UNL1        0.0528
     21 C           5.1320   -1.2147   34.1401 C.3     1  UNL1        0.0779
     22 C           6.2262   -1.0260   33.1316 C.2     1  UNL1        0.1807
     23 O           6.6388    0.3569   32.7227 O.2     1  UNL1       -0.2908
     24 C           6.3449   -3.8073   23.9170 C.3     1  UNL1        0.1587
     25 N           5.5382   -3.0490   22.9051 N.3     1  UNL1       -0.2626
     26 C           4.5547   -3.7734   22.0344 C.3     1  UNL1        0.0900
     27 C           5.7148   -1.5661   22.7638 C.3     1  UNL1        0.0900
     28 C           9.1803   -9.0134   27.3966 C.3     1  UNL1        0.0738
     29 N           8.3411  -10.2241   27.6794 N.3     1  UNL1       -0.2726
     30 C           8.9981  -11.5328   28.0045 C.3     1  UNL1        0.0721
     31 C           8.1588  -12.7435   28.2872 C.3     1  UNL1        0.0174
     32 C           6.6626  -12.6454   28.2449 C.3     1  UNL1        0.0031
     33 C           6.0057  -11.3367   27.9198 C.3     1  UNL1        0.0204
     34 C           6.8449  -10.1260   27.6371 C.3     1  UNL1        0.0724
     35 C           4.5094  -11.2386   27.8775 C.3     1  UNL1        0.0277
     36 C           3.6720  -12.4722   28.0422 C.ar    1  UNL1       -0.0220
     37 C           3.7634  -13.5806   27.0356 C.ar    1  UNL1       -0.0020
     38 C           2.9260  -14.8142   27.2003 C.ar    1  UNL1        0.0293
     39 C           1.9972  -14.9393   28.3716 C.ar    1  UNL1        0.1401
     40 F           1.1598  -16.1728   28.5363 F       1  UNL1       -0.2042
     41 C           1.9058  -13.8308   29.3780 C.ar    1  UNL1        0.0293
     42 C           2.7432  -12.5973   29.2133 C.ar    1  UNL1       -0.0020
@<TRIPOS>BOND
     1    21    22    1
     2    22    23    2
     3    22    15    1
     4    15    16   ar
     5    16    17   ar
     6    17     9    1
     7     9    10   am
     8    10    11    2
     9    10    12   am
    10     1    12    1
    11     1     2    1
    12     2     3    1
    13     3     4   am
    14     4     5    2
    15     4    24    1
    16    24    25    1
    17    25    26    1
    18    25    27    1
    19     3     6    1
    20     6     7    1
    21     7     8    1
    22     8    28    1
    23    28    29    1
    24    29    30    1
    25    30    31    1
    26    31    32    1
    27    32    33    1
    28    33    35    1
    29    35    36    1
    30    36    37   ar
    31    37    38   ar
    32    38    39   ar
    33    39    40    1
    34    39    41   ar
    35    41    42   ar
    36    33    34    1
    37    17    18   ar
    38    18    19   ar
    39    19    20    1
    40    19    15   ar
    41     8     1    1
    42    34    29    1
    43    42    36   ar
    44     9    13    1
    45    12    14    1
