@<TRIPOS>MOLECULE
*****
 16 16 0 0 0
SMALL
GASTEIGER

@<TRIPOS>ATOM
      1 C          -9.0709  -18.3309   22.0481 C.ar    1  UNL1        0.1383
      2 C          -7.7908  -17.5492   22.0642 C.ar    1  UNL1        0.0766
      3 C          -7.5722  -16.4896   23.1031 C.ar    1  UNL1        0.1754
      4 C          -8.6335  -16.2117   24.1259 C.ar    1  UNL1        0.1723
      5 C          -9.9136  -16.9934   24.1098 C.ar    1  UNL1        0.0392
      6 C         -10.1323  -18.0530   23.0709 C.ar    1  UNL1        0.0224
      7 C          -9.9525  -19.0414   19.7097 C.3     1  UNL1        0.2525
      8 O          -9.2896  -19.3905   21.0091 O.3     1  UNL1       -0.4716
      9 O          -6.2920  -15.7078   23.1192 O.3     1  UNL1       -0.4683
     10 C          -5.1895  -16.0935   24.0603 C.3     1  UNL1        0.2526
     11 O          -8.4149  -15.1520   25.1649 O.3     1  UNL1       -0.4684
     12 C          -8.1195  -15.5416   26.5829 C.3     1  UNL1        0.2526
     13 C         -11.4124  -18.8347   23.0548 C.3     1  UNL1        0.0939
     14 C         -12.7022  -18.1545   22.7030 C.2     1  UNL1        0.1556
     15 C         -13.7359  -17.9125   23.7627 C.3     1  UNL1        0.0726
     16 O         -12.9583  -17.7162   21.2915 O.2     1  UNL1       -0.2957
@<TRIPOS>BOND
     1     7     8    1
     2     8     1    1
     3     1     2   ar
     4     2     3   ar
     5     3     9    1
     6     9    10    1
     7     3     4   ar
     8     4    11    1
     9    11    12    1
    10     4     5   ar
    11     5     6   ar
    12     6    13    1
    13    13    14    1
    14    14    15    1
    15    14    16    2
    16     6     1   ar
@<TRIPOS>MOLECULE
*****
 16 16 0 0 0
SMALL
GASTEIGER

@<TRIPOS>ATOM
      1 C          -7.4374  -16.6887   23.1380 C.ar    1  UNL1        0.1383
      2 C          -7.6783  -17.7461   22.1018 C.ar    1  UNL1        0.0766
      3 C          -9.0161  -18.4189   22.0137 C.ar    1  UNL1        0.1754
      4 C         -10.1129  -18.0342   22.9618 C.ar    1  UNL1        0.1723
      5 C          -9.8720  -16.9769   23.9981 C.ar    1  UNL1        0.0392
      6 C          -8.5342  -16.3041   24.0862 C.ar    1  UNL1        0.0224
      7 C          -4.8885  -16.8046   23.6277 C.3     1  UNL1        0.2525
      8 O          -6.0996  -16.0160   23.2262 O.3     1  UNL1       -0.4716
      9 O          -9.2571  -19.4763   20.9773 O.3     1  UNL1       -0.4683
     10 C          -9.9543  -19.1259   19.6963 C.3     1  UNL1        0.2526
     11 O         -11.4507  -18.7070   22.8737 O.3     1  UNL1       -0.4684
     12 C         -12.6869  -17.9783   23.3105 C.3     1  UNL1        0.2526
     13 C          -8.2933  -15.2467   25.1225 C.3     1  UNL1        0.0939
     14 C          -7.5732  -15.5915   26.3924 C.2     1  UNL1        0.1556
     15 C          -8.2878  -16.3350   27.4816 C.3     1  UNL1        0.0726
     16 O          -6.1385  -15.1926   26.5731 O.2     1  UNL1       -0.2957
@<TRIPOS>BOND
     1     7     8    1
     2     8     1    1
     3     1     2   ar
     4     2     3   ar
     5     3     9    1
     6     9    10    1
     7     3     4   ar
     8     4    11    1
     9    11    12    1
    10     4     5   ar
    11     5     6   ar
    12     6    13    1
    13    13    14    1
    14    14    15    1
    15    14    16    2
    16     6     1   ar
@<TRIPOS>MOLECULE
*****
 16 16 0 0 0
SMALL
GASTEIGER

@<TRIPOS>ATOM
      1 C          -9.1330  -18.2388   23.1630 C.ar    1  UNL1        0.1383
      2 C          -7.7892  -18.0791   22.5160 C.ar    1  UNL1        0.0766
      3 C          -7.5993  -18.4603   21.0777 C.ar    1  UNL1        0.1754
      4 C          -8.7531  -19.0010   20.2865 C.ar    1  UNL1        0.1723
      5 C         -10.0969  -19.1607   20.9335 C.ar    1  UNL1        0.0392
      6 C         -10.2869  -18.7795   22.3718 C.ar    1  UNL1        0.0224
      7 C          -8.9345  -16.4873   25.0717 C.3     1  UNL1        0.2525
      8 O          -9.3230  -17.8576   24.6013 O.3     1  UNL1       -0.4716
      9 O          -6.2554  -18.3006   20.4307 O.3     1  UNL1       -0.4683
     10 C          -5.2935  -19.4513   20.4059 C.3     1  UNL1        0.2526
     11 O          -8.5632  -19.3822   18.8482 O.3     1  UNL1       -0.4684
     12 C          -9.0497  -20.7123   18.3542 C.3     1  UNL1        0.2526
     13 C         -11.6308  -18.9392   23.0188 C.3     1  UNL1        0.0939
     14 C         -12.5401  -17.7548   23.1610 C.2     1  UNL1        0.1556
     15 C         -12.1810  -16.4512   22.5116 C.3     1  UNL1        0.0726
     16 O         -13.8086  -17.8739   23.9528 O.2     1  UNL1       -0.2957
@<TRIPOS>BOND
     1     7     8    1
     2     8     1    1
     3     1     2   ar
     4     2     3   ar
     5     3     9    1
     6     9    10    1
     7     3     4   ar
     8     4    11    1
     9    11    12    1
    10     4     5   ar
    11     5     6   ar
    12     6    13    1
    13    13    14    1
    14    14    15    1
    15    14    16    2
    16     6     1   ar
@<TRIPOS>MOLECULE
*****
 16 16 0 0 0
SMALL
GASTEIGER

@<TRIPOS>ATOM
      1 C          -5.3239  -19.0694   22.1656 C.ar    1  UNL1        0.1383
      2 C          -6.6611  -18.5310   22.5800 C.ar    1  UNL1        0.0766
      3 C          -7.7887  -18.4818   21.5920 C.ar    1  UNL1        0.1754
      4 C          -7.5791  -18.9710   20.1897 C.ar    1  UNL1        0.1723
      5 C          -6.2418  -19.5095   19.7753 C.ar    1  UNL1        0.0392
      6 C          -5.1142  -19.5586   20.7632 C.ar    1  UNL1        0.0224
      7 C          -3.5056  -17.8529   23.5670 C.3     1  UNL1        0.2525
      8 O          -4.1962  -19.1186   23.1536 O.3     1  UNL1       -0.4716
      9 O          -9.1261  -17.9433   22.0065 O.3     1  UNL1       -0.4683
     10 C          -9.3506  -16.4617   22.0717 C.3     1  UNL1        0.2526
     11 O          -8.7067  -18.9219   19.2017 O.3     1  UNL1       -0.4684
     12 C          -9.8190  -19.9250   19.2826 C.3     1  UNL1        0.2526
     13 C          -3.7769  -20.0971   20.3488 C.3     1  UNL1        0.0939
     14 C          -2.6271  -19.1597   20.1266 C.2     1  UNL1        0.1556
     15 C          -2.7303  -18.0780   19.0927 C.3     1  UNL1        0.0726
     16 O          -1.3740  -19.3042   20.9385 O.2     1  UNL1       -0.2957
@<TRIPOS>BOND
     1     7     8    1
     2     8     1    1
     3     1     2   ar
     4     2     3   ar
     5     3     9    1
     6     9    10    1
     7     3     4   ar
     8     4    11    1
     9    11    12    1
    10     4     5   ar
    11     5     6   ar
    12     6    13    1
    13    13    14    1
    14    14    15    1
    15    14    16    2
    16     6     1   ar
@<TRIPOS>MOLECULE
*****
 16 16 0 0 0
SMALL
GASTEIGER

@<TRIPOS>ATOM
      1 C          -6.5482  -17.4141   22.7598 C.ar    1  UNL1        0.1383
      2 C          -7.9108  -16.7872   22.7580 C.ar    1  UNL1        0.0766
      3 C          -9.0719  -17.5180   22.1516 C.ar    1  UNL1        0.1754
      4 C          -8.8703  -18.8759   21.5469 C.ar    1  UNL1        0.1723
      5 C          -7.5076  -19.5028   21.5487 C.ar    1  UNL1        0.0392
      6 C          -6.3466  -18.7719   22.1551 C.ar    1  UNL1        0.0224
      7 C          -5.6190  -15.4246   24.1484 C.3     1  UNL1        0.2525
      8 O          -5.3871  -16.6832   23.3662 O.3     1  UNL1       -0.4716
      9 O         -10.4346  -16.8910   22.1498 O.3     1  UNL1       -0.4683
     10 C         -11.4566  -17.3151   23.1625 C.3     1  UNL1        0.2526
     11 O         -10.0314  -19.6067   20.9405 O.3     1  UNL1       -0.4684
     12 C         -10.3536  -19.4278   19.4865 C.3     1  UNL1        0.2526
     13 C          -4.9838  -19.3990   22.1569 C.3     1  UNL1        0.0939
     14 C          -4.1114  -19.3004   20.9407 C.2     1  UNL1        0.1556
     15 C          -3.9853  -20.4709   20.0112 C.3     1  UNL1        0.0726
     16 O          -3.3650  -18.0312   20.6540 O.2     1  UNL1       -0.2957
@<TRIPOS>BOND
     1     7     8    1
     2     8     1    1
     3     1     2   ar
     4     2     3   ar
     5     3     9    1
     6     9    10    1
     7     3     4   ar
     8     4    11    1
     9    11    12    1
    10     4     5   ar
    11     5     6   ar
    12     6    13    1
    13    13    14    1
    14    14    15    1
    15    14    16    2
    16     6     1   ar
@<TRIPOS>MOLECULE
*****
 16 16 0 0 0
SMALL
GASTEIGER

@<TRIPOS>ATOM
      1 C          -5.6416  -16.2877   23.7873 C.ar    1  UNL1        0.1383
      2 C          -4.3793  -17.0557   23.5290 C.ar    1  UNL1        0.0766
      3 C          -4.4214  -18.3173   22.7188 C.ar    1  UNL1        0.1754
      4 C          -5.7259  -18.8110   22.1668 C.ar    1  UNL1        0.1723
      5 C          -6.9882  -18.0430   22.4250 C.ar    1  UNL1        0.0392
      6 C          -6.9460  -16.7813   23.2352 C.ar    1  UNL1        0.0224
      7 C          -5.5456  -15.0977   26.0948 C.3     1  UNL1        0.2525
      8 O          -5.5995  -15.0260   24.5975 O.3     1  UNL1       -0.4716
      9 O          -3.1591  -19.0854   22.4606 O.3     1  UNL1       -0.4683
     10 C          -2.0028  -18.4193   21.7756 C.3     1  UNL1        0.2526
     11 O          -5.7680  -20.0726   21.3566 O.3     1  UNL1       -0.4684
     12 C          -6.7268  -20.1957   20.2096 C.3     1  UNL1        0.2526
     13 C          -8.2084  -16.0133   23.4934 C.3     1  UNL1        0.0939
     14 C          -9.4459  -16.3164   22.7017 C.2     1  UNL1        0.1556
     15 C         -10.5930  -17.0344   23.3486 C.3     1  UNL1        0.0726
     16 O          -9.5362  -15.9014   21.2631 O.2     1  UNL1       -0.2957
@<TRIPOS>BOND
     1     7     8    1
     2     8     1    1
     3     1     2   ar
     4     2     3   ar
     5     3     9    1
     6     9    10    1
     7     3     4   ar
     8     4    11    1
     9    11    12    1
    10     4     5   ar
    11     5     6   ar
    12     6    13    1
    13    13    14    1
    14    14    15    1
    15    14    16    2
    16     6     1   ar
@<TRIPOS>MOLECULE
*****
 16 16 0 0 0
SMALL
GASTEIGER

@<TRIPOS>ATOM
      1 C          -8.2329  -17.7038   21.9502 C.ar    1  UNL1        0.1383
      2 C          -6.8813  -17.8466   22.5846 C.ar    1  UNL1        0.0766
      3 C          -5.9335  -18.9038   22.1008 C.ar    1  UNL1        0.1754
      4 C          -6.3375  -19.8183   20.9825 C.ar    1  UNL1        0.1723
      5 C          -7.6891  -19.6755   20.3481 C.ar    1  UNL1        0.0392
      6 C          -8.6369  -18.6183   20.8319 C.ar    1  UNL1        0.0224
      7 C          -9.8431  -16.7887   23.7723 C.3     1  UNL1        0.2525
      8 O          -9.1807  -16.6466   22.4340 O.3     1  UNL1       -0.4716
      9 O          -4.5818  -19.0466   22.7353 O.3     1  UNL1       -0.4683
     10 C          -3.6459  -17.8752   22.7780 C.3     1  UNL1        0.2526
     11 O          -5.3898  -20.8755   20.4987 O.3     1  UNL1       -0.4684
     12 C          -4.0918  -20.4827   19.8577 C.3     1  UNL1        0.2526
     13 C          -9.9886  -18.4755   20.1974 C.3     1  UNL1        0.0939
     14 C         -11.2207  -18.8563   20.9636 C.2     1  UNL1        0.1556
     15 C         -11.2164  -20.0804   21.8304 C.3     1  UNL1        0.0726
     16 O         -12.4571  -18.0130   20.8628 O.2     1  UNL1       -0.2957
@<TRIPOS>BOND
     1     7     8    1
     2     8     1    1
     3     1     2   ar
     4     2     3   ar
     5     3     9    1
     6     9    10    1
     7     3     4   ar
     8     4    11    1
     9    11    12    1
    10     4     5   ar
    11     5     6   ar
    12     6    13    1
    13    13    14    1
    14    14    15    1
    15    14    16    2
    16     6     1   ar
@<TRIPOS>MOLECULE
*****
 16 16 0 0 0
SMALL
GASTEIGER

@<TRIPOS>ATOM
      1 C         -11.5934   -6.3089   18.5242 C.ar    1  UNL1        0.1383
      2 C         -12.8880   -7.0372   18.7326 C.ar    1  UNL1        0.0766
      3 C         -14.0505   -6.3336   19.3679 C.ar    1  UNL1        0.1754
      4 C         -13.9184   -4.9018   19.7947 C.ar    1  UNL1        0.1723
      5 C         -12.6238   -4.1734   19.5863 C.ar    1  UNL1        0.0392
      6 C         -11.4613   -4.8770   18.9511 C.ar    1  UNL1        0.0224
      7 C          -9.4622   -7.7791   18.7398 C.3     1  UNL1        0.2525
      8 O         -10.4309   -7.0125   17.8890 O.3     1  UNL1       -0.4716
      9 O         -15.3452   -7.0620   19.5763 O.3     1  UNL1       -0.4683
     10 C         -15.5528   -8.4138   18.9602 C.3     1  UNL1        0.2526
     11 O         -15.0810   -4.1982   20.4300 O.3     1  UNL1       -0.4684
     12 C         -16.1591   -3.6058   19.5717 C.3     1  UNL1        0.2526
     13 C         -10.1666   -4.1486   18.7427 C.3     1  UNL1        0.0939
     14 C          -9.8983   -3.4534   17.4409 C.2     1  UNL1        0.1556
     15 C          -8.9971   -4.0881   16.4235 C.3     1  UNL1        0.0726
     16 O         -10.5313   -2.1236   17.1564 O.2     1  UNL1       -0.2957
@<TRIPOS>BOND
     1     7     8    1
     2     8     1    1
     3     1     2   ar
     4     2     3   ar
     5     3     9    1
     6     9    10    1
     7     3     4   ar
     8     4    11    1
     9    11    12    1
    10     4     5   ar
    11     5     6   ar
    12     6    13    1
    13    13    14    1
    14    14    15    1
    15    14    16    2
    16     6     1   ar
@<TRIPOS>MOLECULE
*****
 16 16 0 0 0
SMALL
GASTEIGER

@<TRIPOS>ATOM
      1 C          -7.1560  -16.3973   23.4705 C.ar    1  UNL1        0.1383
      2 C          -5.6773  -16.4917   23.7036 C.ar    1  UNL1        0.0766
      3 C          -4.8946  -17.6236   23.1068 C.ar    1  UNL1        0.1754
      4 C          -5.5907  -18.6611   22.2768 C.ar    1  UNL1        0.1723
      5 C          -7.0695  -18.5667   22.0436 C.ar    1  UNL1        0.0392
      6 C          -7.8521  -17.4348   22.6404 C.ar    1  UNL1        0.0224
      7 C          -8.3738  -15.3285   25.5014 C.3     1  UNL1        0.2525
      8 O          -7.9386  -15.2653   24.0673 O.3     1  UNL1       -0.4716
      9 O          -3.4158  -17.7180   23.3400 O.3     1  UNL1       -0.4683
     10 C          -2.4603  -17.1397   22.3388 C.3     1  UNL1        0.2526
     11 O          -4.8081  -19.7930   21.6799 O.3     1  UNL1       -0.4684
     12 C          -5.2878  -20.4556   20.4226 C.3     1  UNL1        0.2526
     13 C          -9.3309  -17.3404   22.4072 C.3     1  UNL1        0.0939
     14 C         -10.2878  -17.8402   23.4487 C.2     1  UNL1        0.1556
     15 C          -9.7853  -18.6711   24.5919 C.3     1  UNL1        0.0726
     16 O         -11.7473  -17.5089   23.3469 O.2     1  UNL1       -0.2957
@<TRIPOS>BOND
     1     7     8    1
     2     8     1    1
     3     1     2   ar
     4     2     3   ar
     5     3     9    1
     6     9    10    1
     7     3     4   ar
     8     4    11    1
     9    11    12    1
    10     4     5   ar
    11     5     6   ar
    12     6    13    1
    13    13    14    1
    14    14    15    1
    15    14    16    2
    16     6     1   ar
