@<TRIPOS>MOLECULE
*****
 17 18 0 0 0
SMALL
GASTEIGER

@<TRIPOS>ATOM
      1 C          -5.7538  -19.9728   21.1303 C.2     1  UNL1        0.0435
      2 C          -6.9030  -19.2065   20.5455 C.2     1  UNL1        0.0033
      3 C          -8.2911  -19.4168   21.0738 C.ar    1  UNL1        0.0006
      4 C          -9.4595  -19.4176   20.1333 C.ar    1  UNL1        0.0000
      5 C         -10.8475  -19.6279   20.6616 C.ar    1  UNL1        0.0005
      6 C         -11.0670  -19.8375   22.1306 C.ar    1  UNL1        0.0067
      7 C          -9.8986  -19.8367   23.0712 C.ar    1  UNL1        0.0346
      8 BR        -10.1182  -20.0463   24.5402 Br      1  UNL1       -0.0490
      9 C          -8.5106  -19.6264   22.5428 C.ar    1  UNL1        0.0067
     10 O          -3.8013  -20.7048   19.5805 O.2     1  UNL1       -0.2850
     11 C          -4.3657  -19.7625   20.6019 C.2     1  UNL1        0.2111
     12 C          -3.5422  -18.6098   21.0950 C.ar    1  UNL1        0.0961
     13 C          -3.3604  -18.2054   22.5279 C.ar    1  UNL1        0.0218
     14 C          -2.4617  -17.0048   22.5603 C.ar    1  UNL1        0.0200
     15 C          -2.0880  -16.6673   21.1472 C.ar    1  UNL1        0.0725
     16 N          -2.7558  -17.6593   20.2417 N.ar    1  UNL1       -0.3495
     17 H          -2.6896  -17.6824   19.2597 H       1  UNL1        0.1661
@<TRIPOS>BOND
     1    10    11    2
     2    11     1    1
     3     1     2    2
     4     2     3    1
     5     3     4   ar
     6     4     5   ar
     7     5     6   ar
     8     6     7   ar
     9     7     8    1
    10     7     9   ar
    11    11    12    1
    12    12    13   ar
    13    13    14   ar
    14    14    15   ar
    15    15    16   ar
    16     9     3   ar
    17    16    12   ar
    18    16    17    1
@<TRIPOS>MOLECULE
*****
 17 18 0 0 0
SMALL
GASTEIGER

@<TRIPOS>ATOM
      1 C          -8.1059  -19.2870   22.4087 C.2     1  UNL1        0.0435
      2 C          -6.9955  -20.2929   22.3372 C.2     1  UNL1        0.0033
      3 C          -5.6891  -19.9238   21.6990 C.ar    1  UNL1        0.0006
      4 C          -5.2931  -20.5405   20.3903 C.ar    1  UNL1        0.0000
      5 C          -3.9868  -20.1715   19.7521 C.ar    1  UNL1        0.0005
      6 C          -3.0765  -19.1857   20.4227 C.ar    1  UNL1        0.0067
      7 C          -3.4726  -18.5690   21.7314 C.ar    1  UNL1        0.0346
      8 BR         -2.5623  -17.5832   22.4020 Br      1  UNL1       -0.0490
      9 C          -4.7789  -18.9381   22.3695 C.ar    1  UNL1        0.0067
     10 O          -9.4624  -20.7451   24.0773 O.2     1  UNL1       -0.2850
     11 C          -9.4123  -19.6561   23.0469 C.2     1  UNL1        0.2111
     12 C         -10.6684  -18.9362   22.6548 C.ar    1  UNL1        0.0961
     13 C         -11.7524  -18.4826   23.5872 C.ar    1  UNL1        0.0218
     14 C         -12.8151  -17.8096   22.7700 C.ar    1  UNL1        0.0200
     15 C         -12.3879  -17.8472   21.3326 C.ar    1  UNL1        0.0725
     16 N         -11.0612  -18.5435   21.2614 N.ar    1  UNL1       -0.3495
     17 H         -10.5398  -18.7131   20.4437 H       1  UNL1        0.1661
@<TRIPOS>BOND
     1    10    11    2
     2    11     1    1
     3     1     2    2
     4     2     3    1
     5     3     4   ar
     6     4     5   ar
     7     5     6   ar
     8     6     7   ar
     9     7     8    1
    10     7     9   ar
    11    11    12    1
    12    12    13   ar
    13    13    14   ar
    14    14    15   ar
    15    15    16   ar
    16     9     3   ar
    17    16    12   ar
    18    16    17    1
@<TRIPOS>MOLECULE
*****
 17 18 0 0 0
SMALL
GASTEIGER

@<TRIPOS>ATOM
      1 C          -6.7261  -20.0810   22.1380 C.2     1  UNL1        0.0435
      2 C          -7.8602  -19.1867   21.7332 C.2     1  UNL1        0.0033
      3 C          -9.1010  -19.1218   22.5736 C.ar    1  UNL1        0.0006
      4 C          -9.2427  -20.0128   23.7719 C.ar    1  UNL1        0.0000
      5 C         -10.4835  -19.9478   24.6122 C.ar    1  UNL1        0.0005
      6 C         -11.5825  -18.9918   24.2543 C.ar    1  UNL1        0.0067
      7 C         -11.4408  -18.1007   23.0561 C.ar    1  UNL1        0.0346
      8 BR        -12.5398  -17.1447   22.6982 Br      1  UNL1       -0.0490
      9 C         -10.2000  -18.1657   22.2157 C.ar    1  UNL1        0.0067
     10 O          -5.4461  -21.0281   20.0850 O.2     1  UNL1       -0.2850
     11 C          -5.4853  -20.1460   21.2976 C.2     1  UNL1        0.2111
     12 C          -4.2838  -19.3288   21.6697 C.ar    1  UNL1        0.0961
     13 C          -2.8512  -19.7239   21.4655 C.ar    1  UNL1        0.0218
     14 C          -1.9859  -18.6124   21.9810 C.ar    1  UNL1        0.0200
     15 C          -2.8836  -17.5303   22.5038 C.ar    1  UNL1        0.0725
     16 N          -4.3038  -17.9732   22.3115 N.ar    1  UNL1       -0.3495
     17 H          -5.1079  -17.4635   22.5623 H       1  UNL1        0.1661
@<TRIPOS>BOND
     1    10    11    2
     2    11     1    1
     3     1     2    2
     4     2     3    1
     5     3     4   ar
     6     4     5   ar
     7     5     6   ar
     8     6     7   ar
     9     7     8    1
    10     7     9   ar
    11    11    12    1
    12    12    13   ar
    13    13    14   ar
    14    14    15   ar
    15    15    16   ar
    16     9     3   ar
    17    16    12   ar
    18    16    17    1
@<TRIPOS>MOLECULE
*****
 17 18 0 0 0
SMALL
GASTEIGER

@<TRIPOS>ATOM
      1 C          -7.0647  -16.2721   23.5809 C.2     1  UNL1        0.0435
      2 C          -8.1068  -16.6385   24.5956 C.2     1  UNL1        0.0033
      3 C          -9.4472  -17.1402   24.1465 C.ar    1  UNL1        0.0006
      4 C         -10.1221  -18.2505   24.8960 C.ar    1  UNL1        0.0000
      5 C         -11.4624  -18.7522   24.4468 C.ar    1  UNL1        0.0005
      6 C         -12.1279  -18.1435   23.2482 C.ar    1  UNL1        0.0067
      7 C         -11.4531  -17.0332   22.4988 C.ar    1  UNL1        0.0346
      8 BR        -12.1186  -16.4245   21.3002 Br      1  UNL1       -0.0490
      9 C         -10.1127  -16.5315   22.9479 C.ar    1  UNL1        0.0067
     10 O          -5.6361  -14.7101   25.0874 O.2     1  UNL1       -0.2850
     11 C          -5.7242  -15.7704   24.0301 C.2     1  UNL1        0.2111
     12 C          -4.4721  -16.3290   23.4219 C.ar    1  UNL1        0.0961
     13 C          -3.9683  -17.7336   23.5746 C.ar    1  UNL1        0.0218
     14 C          -2.6887  -17.8538   22.8012 C.ar    1  UNL1        0.0200
     15 C          -2.4015  -16.5234   22.1705 C.ar    1  UNL1        0.0725
     16 N          -3.5037  -15.5811   22.5541 N.ar    1  UNL1       -0.3495
     17 H          -3.5784  -14.6374   22.2838 H       1  UNL1        0.1661
@<TRIPOS>BOND
     1    10    11    2
     2    11     1    1
     3     1     2    2
     4     2     3    1
     5     3     4   ar
     6     4     5   ar
     7     5     6   ar
     8     6     7   ar
     9     7     8    1
    10     7     9   ar
    11    11    12    1
    12    12    13   ar
    13    13    14   ar
    14    14    15   ar
    15    15    16   ar
    16     9     3   ar
    17    16    12   ar
    18    16    17    1
@<TRIPOS>MOLECULE
*****
 17 18 0 0 0
SMALL
GASTEIGER

@<TRIPOS>ATOM
      1 C          -7.5584  -15.7763   22.8093 C.2     1  UNL1        0.0435
      2 C          -8.0910  -17.1785   22.8199 C.2     1  UNL1        0.0033
      3 C          -9.0831  -17.6120   21.7817 C.ar    1  UNL1        0.0006
      4 C          -9.0579  -19.0185   21.2612 C.ar    1  UNL1        0.0000
      5 C         -10.0501  -19.4519   20.2231 C.ar    1  UNL1        0.0005
      6 C         -11.0674  -18.4787   19.7054 C.ar    1  UNL1        0.0067
      7 C         -11.0926  -17.0721   20.2259 C.ar    1  UNL1        0.0346
      8 BR        -12.1099  -16.0989   19.7082 Br      1  UNL1       -0.0490
      9 C         -10.1004  -16.6388   21.2640 C.ar    1  UNL1        0.0067
     10 O          -5.1777  -14.9486   23.4395 O.2     1  UNL1       -0.2850
     11 C          -6.5663  -15.3429   23.8475 C.2     1  UNL1        0.2111
     12 C          -6.9627  -15.3038   25.2936 C.ar    1  UNL1        0.0961
     13 C          -8.3499  -15.4905   25.8329 C.ar    1  UNL1        0.0218
     14 C          -8.2861  -15.3732   27.3269 C.ar    1  UNL1        0.0200
     15 C          -6.8594  -15.1139   27.7110 C.ar    1  UNL1        0.0725
     16 N          -6.0416  -15.0710   26.4544 N.ar    1  UNL1       -0.3495
     17 H          -5.0706  -14.9171   26.4008 H       1  UNL1        0.1661
@<TRIPOS>BOND
     1    10    11    2
     2    11     1    1
     3     1     2    2
     4     2     3    1
     5     3     4   ar
     6     4     5   ar
     7     5     6   ar
     8     6     7   ar
     9     7     8    1
    10     7     9   ar
    11    11    12    1
    12    12    13   ar
    13    13    14   ar
    14    14    15   ar
    15    15    16   ar
    16     9     3   ar
    17    16    12   ar
    18    16    17    1
@<TRIPOS>MOLECULE
*****
 17 18 0 0 0
SMALL
GASTEIGER

@<TRIPOS>ATOM
      1 C          -5.8969  -19.1408   21.6967 C.2     1  UNL1        0.0435
      2 C          -7.0280  -18.2561   22.1301 C.2     1  UNL1        0.0033
      3 C          -8.4385  -18.6054   21.7578 C.ar    1  UNL1        0.0006
      4 C          -8.7245  -19.2721   20.4448 C.ar    1  UNL1        0.0000
      5 C         -10.1349  -19.6213   20.0725 C.ar    1  UNL1        0.0005
      6 C         -11.2594  -19.3040   21.0132 C.ar    1  UNL1        0.0067
      7 C         -10.9735  -18.6374   22.3261 C.ar    1  UNL1        0.0346
      8 BR        -12.0980  -18.3200   23.2667 Br      1  UNL1       -0.0490
      9 C          -9.5630  -18.2881   22.6984 C.ar    1  UNL1        0.0067
     10 O          -4.0669  -18.8000   23.5091 O.2     1  UNL1       -0.2850
     11 C          -4.4864  -18.7915   22.0690 C.2     1  UNL1        0.2111
     12 C          -3.4955  -18.4337   21.0013 C.ar    1  UNL1        0.0961
     13 C          -3.2830  -19.1716   19.7128 C.ar    1  UNL1        0.0218
     14 C          -2.1993  -18.4692   18.9497 C.ar    1  UNL1        0.0200
     15 C          -1.7421  -17.2971   19.7666 C.ar    1  UNL1        0.0725
     16 N          -2.5432  -17.2753   21.0346 N.ar    1  UNL1       -0.3495
     17 H          -2.4588  -16.6162   21.7611 H       1  UNL1        0.1661
@<TRIPOS>BOND
     1    10    11    2
     2    11     1    1
     3     1     2    2
     4     2     3    1
     5     3     4   ar
     6     4     5   ar
     7     5     6   ar
     8     6     7   ar
     9     7     8    1
    10     7     9   ar
    11    11    12    1
    12    12    13   ar
    13    13    14   ar
    14    14    15   ar
    15    15    16   ar
    16     9     3   ar
    17    16    12   ar
    18    16    17    1
@<TRIPOS>MOLECULE
*****
 17 18 0 0 0
SMALL
GASTEIGER

@<TRIPOS>ATOM
      1 C          -7.3805  -16.3216   22.8560 C.2     1  UNL1        0.0435
      2 C          -8.2928  -17.3966   23.3679 C.2     1  UNL1        0.0033
      3 C          -9.1424  -18.1782   22.4101 C.ar    1  UNL1        0.0006
      4 C         -10.5745  -18.4720   22.7457 C.ar    1  UNL1        0.0000
      5 C         -11.4241  -19.2536   21.7880 C.ar    1  UNL1        0.0005
      6 C         -10.8415  -19.7413   20.4946 C.ar    1  UNL1        0.0067
      7 C          -9.4094  -19.4475   20.1590 C.ar    1  UNL1        0.0346
      8 BR         -8.8269  -19.9353   18.8657 Br      1  UNL1       -0.0490
      9 C          -8.5599  -18.6660   21.1168 C.ar    1  UNL1        0.0067
     10 O          -5.2893  -14.8535   23.3267 O.2     1  UNL1       -0.2850
     11 C          -6.5309  -15.5400   23.8138 C.2     1  UNL1        0.2111
     12 C          -6.9228  -15.4449   25.2585 C.ar    1  UNL1        0.0961
     13 C          -6.0031  -15.5982   26.4335 C.ar    1  UNL1        0.0218
     14 C          -6.8152  -15.4279   27.6831 C.ar    1  UNL1        0.0200
     15 C          -8.2368  -15.1692   27.2804 C.ar    1  UNL1        0.0725
     16 N          -8.3033  -15.1797   25.7819 N.ar    1  UNL1       -0.3495
     17 H          -9.1112  -15.0375   25.2376 H       1  UNL1        0.1661
@<TRIPOS>BOND
     1    10    11    2
     2    11     1    1
     3     1     2    2
     4     2     3    1
     5     3     4   ar
     6     4     5   ar
     7     5     6   ar
     8     6     7   ar
     9     7     8    1
    10     7     9   ar
    11    11    12    1
    12    12    13   ar
    13    13    14   ar
    14    14    15   ar
    15    15    16   ar
    16     9     3   ar
    17    16    12   ar
    18    16    17    1
@<TRIPOS>MOLECULE
*****
 17 18 0 0 0
SMALL
GASTEIGER

@<TRIPOS>ATOM
      1 C          -7.1649  -19.7207   20.9767 C.2     1  UNL1        0.0435
      2 C          -7.0941  -18.4378   21.7506 C.2     1  UNL1        0.0033
      3 C          -8.3527  -17.7945   22.2530 C.ar    1  UNL1        0.0006
      4 C          -8.3273  -16.9790   23.5117 C.ar    1  UNL1        0.0000
      5 C          -9.5858  -16.3358   24.0140 C.ar    1  UNL1        0.0005
      6 C         -10.8697  -16.5080   23.2576 C.ar    1  UNL1        0.0067
      7 C         -10.8950  -17.3234   21.9989 C.ar    1  UNL1        0.0346
      8 BR        -12.1788  -17.4957   21.2426 Br      1  UNL1       -0.0490
      9 C          -9.6365  -17.9667   21.4966 C.ar    1  UNL1        0.0067
     10 O          -5.9068  -21.8141   20.0907 O.2     1  UNL1       -0.2850
     11 C          -5.9064  -20.3640   20.4743 C.2     1  UNL1        0.2111
     12 C          -4.6474  -19.5572   20.3556 C.ar    1  UNL1        0.0961
     13 C          -3.4236  -19.7019   21.2108 C.ar    1  UNL1        0.0218
     14 C          -2.4111  -18.6982   20.7446 C.ar    1  UNL1        0.0200
     15 C          -3.0091  -17.9332   19.6013 C.ar    1  UNL1        0.0725
     16 N          -4.3913  -18.4641   19.3609 N.ar    1  UNL1       -0.3495
     17 H          -5.0199  -18.1502   18.6713 H       1  UNL1        0.1661
@<TRIPOS>BOND
     1    10    11    2
     2    11     1    1
     3     1     2    2
     4     2     3    1
     5     3     4   ar
     6     4     5   ar
     7     5     6   ar
     8     6     7   ar
     9     7     8    1
    10     7     9   ar
    11    11    12    1
    12    12    13   ar
    13    13    14   ar
    14    14    15   ar
    15    15    16   ar
    16     9     3   ar
    17    16    12   ar
    18    16    17    1
@<TRIPOS>MOLECULE
*****
 17 18 0 0 0
SMALL
GASTEIGER

@<TRIPOS>ATOM
      1 C          -8.0563  -17.8419   22.0440 C.2     1  UNL1        0.0435
      2 C          -8.3612  -16.6033   22.8332 C.2     1  UNL1        0.0033
      3 C          -7.4469  -16.1773   23.9434 C.ar    1  UNL1        0.0006
      4 C          -5.9780  -16.0170   23.6855 C.ar    1  UNL1        0.0000
      5 C          -5.0637  -15.5910   24.7957 C.ar    1  UNL1        0.0005
      6 C          -5.6184  -15.3253   26.1639 C.ar    1  UNL1        0.0067
      7 C          -7.0873  -15.4856   26.4218 C.ar    1  UNL1        0.0346
      8 BR         -7.6419  -15.2199   27.7899 Br      1  UNL1       -0.0490
      9 C          -8.0015  -15.9116   25.3116 C.ar    1  UNL1        0.0067
     10 O          -8.4584  -19.1575   19.8400 O.2     1  UNL1       -0.2850
     11 C          -8.9706  -18.2679   20.9337 C.2     1  UNL1        0.2111
     12 C         -10.3970  -17.8043   20.9173 C.ar    1  UNL1        0.0961
     13 C         -11.5453  -18.4597   21.6256 C.ar    1  UNL1        0.0218
     14 C         -12.7836  -17.6643   21.3357 C.ar    1  UNL1        0.0200
     15 C         -12.4006  -16.5173   20.4481 C.ar    1  UNL1        0.0725
     16 N         -10.9256  -16.6038   20.1895 N.ar    1  UNL1       -0.3495
     17 H         -10.3972  -15.9819   19.6388 H       1  UNL1        0.1661
@<TRIPOS>BOND
     1    10    11    2
     2    11     1    1
     3     1     2    2
     4     2     3    1
     5     3     4   ar
     6     4     5   ar
     7     5     6   ar
     8     6     7   ar
     9     7     8    1
    10     7     9   ar
    11    11    12    1
    12    12    13   ar
    13    13    14   ar
    14    14    15   ar
    15    15    16   ar
    16     9     3   ar
    17    16    12   ar
    18    16    17    1
