@<TRIPOS>MOLECULE
*****
 36 40 0 0 0
SMALL
GASTEIGER

@<TRIPOS>ATOM
      1 C           3.3634    0.0071   22.3629 C.ar    1  UNL1        0.0884
      2 C           3.1763    0.7969   23.6243 C.ar    1  UNL1        0.0846
      3 N           1.9955    1.7104   23.7691 N.ar    1  UNL1       -0.2897
      4 C           1.0016    1.8342   22.6523 C.ar    1  UNL1        0.2641
      5 O          -0.1793    2.7477   22.7971 O.2     1  UNL1       -0.2669
      6 C           1.1888    1.0444   21.3909 C.ar    1  UNL1        0.0944
      7 C           0.3809    0.9610   20.1298 C.ar    1  UNL1        0.1263
      8 N           1.0625   -0.0041   19.2057 N.ar    1  UNL1       -0.1676
      9 N           2.2916   -0.5172   19.8957 N.ar    1  UNL1       -0.2524
     10 C           2.3697    0.1308   21.2462 C.ar    1  UNL1        0.0897
     11 C           3.2707   -1.5049   19.3337 C.3     1  UNL1        0.1079
     12 C           3.0747   -2.9730   19.5706 C.3     1  UNL1        0.0415
     13 C           4.0539   -3.9607   19.0087 C.3     1  UNL1        0.0706
     14 N           5.2290   -3.4803   18.2098 N.3     1  UNL1       -0.2974
     15 C           5.4250   -2.0121   17.9729 C.3     1  UNL1        0.0706
     16 C           4.4459   -1.0244   18.5348 C.3     1  UNL1        0.0415
     17 H           5.1607   -3.9201   17.2921 H       1  UNL1        0.1232
     18 O           5.7722   -0.4364   21.4959 O.2     1  UNL1       -0.2697
     19 C           4.5443   -0.9065   22.2182 C.2     1  UNL1        0.2524
     20 N           4.4975   -2.2900   22.7957 N.am    1  UNL1       -0.2802
     21 H           3.6916   -2.5986   23.2697 H       1  UNL1        0.1552
     22 C           5.6784   -3.2035   22.6510 C.ar    1  UNL1        0.0537
     23 C           6.1906   -3.9612   23.8399 C.ar    1  UNL1        0.0353
     24 C           7.3715   -4.8747   23.6952 C.ar    1  UNL1        0.1002
     25 N           8.0403   -5.0305   22.3616 N.ar    1  UNL1       -0.2422
     26 C           7.5281   -4.2727   21.1727 C.ar    1  UNL1        0.1002
     27 C           6.3472   -3.3593   21.3174 C.ar    1  UNL1        0.0353
     28 C           1.8084    2.5002   25.0306 C.3     1  UNL1        0.1358
     29 C           0.9653    1.9494   26.1422 C.ar    1  UNL1        0.0014
     30 C          -0.4860    2.3167   26.2355 C.ar    1  UNL1       -0.0015
     31 C          -1.3291    1.7658   27.3472 C.ar    1  UNL1        0.0120
     32 C          -0.7208    0.8478   28.3656 C.ar    1  UNL1        0.0682
     33 CL         -1.5638    0.2969   29.4773 Cl      1  UNL1       -0.0814
     34 C           0.7306    0.4805   28.2723 C.ar    1  UNL1        0.0679
     35 CL          1.3389   -0.4376   29.2907 Cl      1  UNL1       -0.0814
     36 C           1.5737    1.0313   27.1606 C.ar    1  UNL1        0.0099
@<TRIPOS>BOND
     1    18    19    2
     2    19    20   am
     3    20    22    1
     4    22    23   ar
     5    23    24   ar
     6    24    25   ar
     7    25    26   ar
     8    26    27   ar
     9    19     1    1
    10     1     2   ar
    11     2     3   ar
    12     3    28    1
    13    28    29    1
    14    29    30   ar
    15    30    31   ar
    16    31    32   ar
    17    32    33    1
    18    32    34   ar
    19    34    35    1
    20    34    36   ar
    21     3     4   ar
    22     4     5    2
    23     4     6   ar
    24     6     7   ar
    25     7     8   ar
    26     8     9   ar
    27     9    11    1
    28    11    12    1
    29    12    13    1
    30    13    14    1
    31    14    15    1
    32    15    16    1
    33     9    10   ar
    34    27    22   ar
    35    10     1   ar
    36    36    29   ar
    37    10     6   ar
    38    16    11    1
    39    20    21    1
    40    14    17    1
@<TRIPOS>MOLECULE
*****
 36 40 0 0 0
SMALL
GASTEIGER

@<TRIPOS>ATOM
      1 C           5.2424   -1.8603   23.4710 C.ar    1  UNL1        0.0884
      2 C           5.0274   -1.3063   24.8482 C.ar    1  UNL1        0.0846
      3 N           5.6317   -1.9944   26.0361 N.ar    1  UNL1       -0.2897
      4 C           6.4512   -3.2365   25.8469 C.ar    1  UNL1        0.2641
      5 O           7.0555   -3.9246   27.0349 O.2     1  UNL1       -0.2669
      6 C           6.6662   -3.7905   24.4696 C.ar    1  UNL1        0.0944
      7 C           7.4209   -4.9893   23.9766 C.ar    1  UNL1        0.1263
      8 N           7.2830   -5.0421   22.4839 N.ar    1  UNL1       -0.1676
      9 N           6.4430   -3.8759   22.0544 N.ar    1  UNL1       -0.2524
     10 C           6.0618   -3.1024   23.2817 C.ar    1  UNL1        0.0897
     11 C           6.0528   -3.5420   20.6451 C.3     1  UNL1        0.1079
     12 C           6.9312   -2.6545   19.8139 C.3     1  UNL1        0.0415
     13 C           6.5410   -2.3205   18.4045 C.3     1  UNL1        0.0706
     14 N           5.2724   -2.8740   17.8264 N.3     1  UNL1       -0.2974
     15 C           4.3940   -3.7616   18.6576 C.3     1  UNL1        0.0706
     16 C           4.7842   -4.0955   20.0669 C.3     1  UNL1        0.0415
     17 H           5.5352   -3.4106   16.9997 H       1  UNL1        0.1232
     18 O           5.4569   -0.2063   21.4788 O.2     1  UNL1       -0.2697
     19 C           4.6380   -1.1722   22.2830 C.2     1  UNL1        0.2524
     20 N           3.2148   -1.4499   21.8992 N.am    1  UNL1       -0.2802
     21 H           2.6773   -2.0838   22.4270 H       1  UNL1        0.1552
     22 C           2.6105   -0.7617   20.7112 C.ar    1  UNL1        0.0537
     23 C           3.3972   -0.6288   19.4411 C.ar    1  UNL1        0.0353
     24 C           2.7930    0.0593   18.2530 C.ar    1  UNL1        0.1002
     25 N           1.4020    0.6146   18.3352 N.ar    1  UNL1       -0.2422
     26 C           0.6152    0.4816   19.6054 C.ar    1  UNL1        0.1002
     27 C           1.2195   -0.2065   20.7933 C.ar    1  UNL1        0.0353
     28 C           5.4167   -1.4403   27.4135 C.3     1  UNL1        0.1358
     29 C           4.3351   -0.4295   27.6548 C.ar    1  UNL1        0.0014
     30 C           4.6132    1.0301   27.4490 C.ar    1  UNL1       -0.0015
     31 C           3.5315    2.0410   27.6904 C.ar    1  UNL1        0.0120
     32 C           2.1720    1.5923   28.1376 C.ar    1  UNL1        0.0682
     33 CL          1.0903    2.6031   28.3790 Cl      1  UNL1       -0.0814
     34 C           1.8939    0.1327   28.3434 C.ar    1  UNL1        0.0679
     35 CL          0.5342   -0.3160   28.7906 Cl      1  UNL1       -0.0814
     36 C           2.9754   -0.8782   28.1020 C.ar    1  UNL1        0.0099
@<TRIPOS>BOND
     1    18    19    2
     2    19    20   am
     3    20    22    1
     4    22    23   ar
     5    23    24   ar
     6    24    25   ar
     7    25    26   ar
     8    26    27   ar
     9    19     1    1
    10     1     2   ar
    11     2     3   ar
    12     3    28    1
    13    28    29    1
    14    29    30   ar
    15    30    31   ar
    16    31    32   ar
    17    32    33    1
    18    32    34   ar
    19    34    35    1
    20    34    36   ar
    21     3     4   ar
    22     4     5    2
    23     4     6   ar
    24     6     7   ar
    25     7     8   ar
    26     8     9   ar
    27     9    11    1
    28    11    12    1
    29    12    13    1
    30    13    14    1
    31    14    15    1
    32    15    16    1
    33     9    10   ar
    34    27    22   ar
    35    10     1   ar
    36    36    29   ar
    37    10     6   ar
    38    16    11    1
    39    20    21    1
    40    14    17    1
@<TRIPOS>MOLECULE
*****
 36 40 0 0 0
SMALL
GASTEIGER

@<TRIPOS>ATOM
      1 C           8.2457   -4.2078   26.3362 C.ar    1  UNL1        0.0884
      2 C           8.2579   -3.7641   24.9034 C.ar    1  UNL1        0.0846
      3 N           8.2739   -4.7829   23.8028 N.ar    1  UNL1       -0.2897
      4 C           8.2776   -6.2458   24.1349 C.ar    1  UNL1        0.2641
      5 O           8.2936   -7.2647   23.0341 O.2     1  UNL1       -0.2669
      6 C           8.2655   -6.6896   25.5676 C.ar    1  UNL1        0.0944
      7 C           8.2658   -8.0513   26.1966 C.ar    1  UNL1        0.1263
      8 N           8.2501   -7.8740   27.6860 N.ar    1  UNL1       -0.1676
      9 N           8.2400   -6.4026   27.9775 N.ar    1  UNL1       -0.2524
     10 C           8.2495   -5.6706   26.6683 C.ar    1  UNL1        0.0897
     11 C           8.2233   -5.7737   29.3392 C.3     1  UNL1        0.1079
     12 C           9.5083   -5.3435   29.9824 C.3     1  UNL1        0.0415
     13 C           9.4917   -4.7146   31.3441 C.3     1  UNL1        0.0706
     14 N           8.1902   -4.5160   32.0626 N.3     1  UNL1       -0.2974
     15 C           6.9051   -4.9462   31.4194 C.3     1  UNL1        0.0706
     16 C           6.9217   -5.5751   30.0577 C.3     1  UNL1        0.0415
     17 H           8.1061   -3.5166   32.2488 H       1  UNL1        0.1232
     18 O           9.5149   -2.7615   28.0820 O.2     1  UNL1       -0.2697
     19 C           8.2298   -3.1889   27.4369 C.2     1  UNL1        0.2524
     20 N           6.9289   -2.5972   27.8924 N.am    1  UNL1       -0.2802
     21 H           6.0855   -2.8777   27.4690 H       1  UNL1        0.1552
     22 C           6.9130   -1.5783   28.9931 C.ar    1  UNL1        0.0537
     23 C           7.5678   -0.2442   28.7895 C.ar    1  UNL1        0.0353
     24 C           7.5520    0.7748   29.8901 C.ar    1  UNL1        0.1002
     25 N           6.8814    0.4598   31.1943 N.ar    1  UNL1       -0.2422
     26 C           6.2266   -0.8744   31.3979 C.ar    1  UNL1        0.1002
     27 C           6.2424   -1.8933   30.2973 C.ar    1  UNL1        0.0353
     28 C           8.2860   -4.3391   22.3699 C.3     1  UNL1        0.1358
     29 C           7.0106   -3.9112   21.7065 C.ar    1  UNL1        0.0014
     30 C           5.7394   -3.8413   22.4997 C.ar    1  UNL1       -0.0015
     31 C           4.4640   -3.4133   21.8361 C.ar    1  UNL1        0.0120
     32 C           4.4598   -3.0554   20.3796 C.ar    1  UNL1        0.0682
     33 CL          3.1844   -2.6274   19.7160 Cl      1  UNL1       -0.0814
     34 C           5.7311   -3.1253   19.5863 C.ar    1  UNL1        0.0679
     35 CL          5.7268   -2.7672   18.1297 Cl      1  UNL1       -0.0814
     36 C           7.0065   -3.5532   20.2498 C.ar    1  UNL1        0.0099
@<TRIPOS>BOND
     1    18    19    2
     2    19    20   am
     3    20    22    1
     4    22    23   ar
     5    23    24   ar
     6    24    25   ar
     7    25    26   ar
     8    26    27   ar
     9    19     1    1
    10     1     2   ar
    11     2     3   ar
    12     3    28    1
    13    28    29    1
    14    29    30   ar
    15    30    31   ar
    16    31    32   ar
    17    32    33    1
    18    32    34   ar
    19    34    35    1
    20    34    36   ar
    21     3     4   ar
    22     4     5    2
    23     4     6   ar
    24     6     7   ar
    25     7     8   ar
    26     8     9   ar
    27     9    11    1
    28    11    12    1
    29    12    13    1
    30    13    14    1
    31    14    15    1
    32    15    16    1
    33     9    10   ar
    34    27    22   ar
    35    10     1   ar
    36    36    29   ar
    37    10     6   ar
    38    16    11    1
    39    20    21    1
    40    14    17    1
@<TRIPOS>MOLECULE
*****
 36 40 0 0 0
SMALL
GASTEIGER

@<TRIPOS>ATOM
      1 C           5.0970   -1.3189   21.8345 C.ar    1  UNL1        0.0884
      2 C           6.2142   -1.8055   22.7092 C.ar    1  UNL1        0.0846
      3 N           6.9893   -3.0305   22.3238 N.ar    1  UNL1       -0.2897
      4 C           6.6473   -3.7690   21.0637 C.ar    1  UNL1        0.2641
      5 O           7.4225   -4.9940   20.6784 O.2     1  UNL1       -0.2669
      6 C           5.5301   -3.2823   20.1890 C.ar    1  UNL1        0.0944
      7 C           4.9685   -3.7992   18.8978 C.ar    1  UNL1        0.1263
      8 N           3.8462   -2.8935   18.4851 N.ar    1  UNL1       -0.1676
      9 N           3.7142   -1.8170   19.5213 N.ar    1  UNL1       -0.2524
     10 C           4.7550   -2.0573   20.5744 C.ar    1  UNL1        0.0897
     11 C           2.7167   -0.6969   19.5069 C.3     1  UNL1        0.1079
     12 C           3.0252    0.5727   18.7701 C.3     1  UNL1        0.0415
     13 C           2.0276    1.6929   18.7557 C.3     1  UNL1        0.0706
     14 N           0.7216    1.5434   19.4780 N.3     1  UNL1       -0.2974
     15 C           0.4131    0.2737   20.2148 C.3     1  UNL1        0.0706
     16 C           1.4106   -0.8464   20.2292 C.3     1  UNL1        0.0415
     17 H          -0.0149    1.6671   18.7833 H       1  UNL1        0.1232
     18 O           4.6125    1.2181   21.5532 O.2     1  UNL1       -0.2697
     19 C           4.3219   -0.0939   22.2199 C.2     1  UNL1        0.2524
     20 N           3.2561   -0.1808   23.2718 N.am    1  UNL1       -0.2802
     21 H           3.0654   -1.0419   23.7093 H       1  UNL1        0.1552
     22 C           2.4810    1.0443   23.6571 C.ar    1  UNL1        0.0537
     23 C           0.9966    1.0897   23.4462 C.ar    1  UNL1        0.0353
     24 C           0.2215    2.3147   23.8315 C.ar    1  UNL1        0.1002
     25 N           0.9307    3.4943   24.4277 N.ar    1  UNL1       -0.2422
     26 C           2.4152    3.4489   24.6386 C.ar    1  UNL1        0.1002
     27 C           3.1903    2.2239   24.2533 C.ar    1  UNL1        0.0353
     28 C           8.1065   -3.5171   23.1986 C.3     1  UNL1        0.1358
     29 C           7.9096   -4.7270   24.0632 C.ar    1  UNL1        0.0014
     30 C           8.4427   -6.0581   23.6230 C.ar    1  UNL1       -0.0015
     31 C           8.2458   -7.2680   24.4876 C.ar    1  UNL1        0.0120
     32 C           7.5158   -7.1467   25.7923 C.ar    1  UNL1        0.0682
     33 CL          7.3188   -8.3565   26.6569 Cl      1  UNL1       -0.0814
     34 C           6.9827   -5.8154   26.2325 C.ar    1  UNL1        0.0679
     35 CL          6.2527   -5.6941   27.5372 Cl      1  UNL1       -0.0814
     36 C           7.1796   -4.6056   25.3679 C.ar    1  UNL1        0.0099
@<TRIPOS>BOND
     1    18    19    2
     2    19    20   am
     3    20    22    1
     4    22    23   ar
     5    23    24   ar
     6    24    25   ar
     7    25    26   ar
     8    26    27   ar
     9    19     1    1
    10     1     2   ar
    11     2     3   ar
    12     3    28    1
    13    28    29    1
    14    29    30   ar
    15    30    31   ar
    16    31    32   ar
    17    32    33    1
    18    32    34   ar
    19    34    35    1
    20    34    36   ar
    21     3     4   ar
    22     4     5    2
    23     4     6   ar
    24     6     7   ar
    25     7     8   ar
    26     8     9   ar
    27     9    11    1
    28    11    12    1
    29    12    13    1
    30    13    14    1
    31    14    15    1
    32    15    16    1
    33     9    10   ar
    34    27    22   ar
    35    10     1   ar
    36    36    29   ar
    37    10     6   ar
    38    16    11    1
    39    20    21    1
    40    14    17    1
@<TRIPOS>MOLECULE
*****
 36 40 0 0 0
SMALL
GASTEIGER

@<TRIPOS>ATOM
      1 C           5.1195   -1.9835   25.0887 C.ar    1  UNL1        0.0884
      2 C           4.4096   -2.4915   23.8688 C.ar    1  UNL1        0.0846
      3 N           5.0979   -3.4538   22.9468 N.ar    1  UNL1       -0.2897
      4 C           6.4961   -3.9082   23.2445 C.ar    1  UNL1        0.2641
      5 O           7.1844   -4.8705   22.3224 O.2     1  UNL1       -0.2669
      6 C           7.2060   -3.4002   24.4644 C.ar    1  UNL1        0.0944
      7 C           8.5762   -3.6681   25.0127 C.ar    1  UNL1        0.1263
      8 N           8.7348   -2.8714   26.2737 N.ar    1  UNL1       -0.1676
      9 N           7.4625   -2.1110   26.5047 N.ar    1  UNL1       -0.2524
     10 C           6.5177   -2.4378   25.3864 C.ar    1  UNL1        0.0897
     11 C           7.1841   -1.1862   27.6524 C.3     1  UNL1        0.1079
     12 C           7.5037    0.2744   27.5331 C.3     1  UNL1        0.0415
     13 C           7.2252    1.1993   28.6808 C.3     1  UNL1        0.0706
     14 N           6.6272    0.6634   29.9477 N.3     1  UNL1       -0.2974
     15 C           6.3077   -0.7973   30.0670 C.3     1  UNL1        0.0706
     16 C           6.5861   -1.7221   28.9193 C.3     1  UNL1        0.0415
     17 H           5.7543    1.1691   30.0982 H       1  UNL1        0.1232
     18 O           4.7094    0.4490   25.9041 O.2     1  UNL1       -0.2697
     19 C           4.4312   -1.0212   26.0107 C.2     1  UNL1        0.2524
     20 N           3.4648   -1.5290   27.0394 N.am    1  UNL1       -0.2802
     21 H           3.2822   -2.4939   27.1094 H       1  UNL1        0.1552
     22 C           2.7765   -0.5666   27.9614 C.ar    1  UNL1        0.0537
     23 C           1.9431    0.5460   27.3980 C.ar    1  UNL1        0.0353
     24 C           1.2548    1.5085   28.3200 C.ar    1  UNL1        0.1002
     25 N           1.3999    1.3583   29.8053 N.ar    1  UNL1       -0.2422
     26 C           2.2334    0.2456   30.3687 C.ar    1  UNL1        0.1002
     27 C           2.9216   -0.7168   29.4468 C.ar    1  UNL1        0.0353
     28 C           4.3879   -3.9618   21.7269 C.3     1  UNL1        0.1358
     29 C           4.3538   -3.1309   20.4785 C.ar    1  UNL1        0.0014
     30 C           5.3140   -3.4154   19.3618 C.ar    1  UNL1       -0.0015
     31 C           5.2799   -2.5845   18.1134 C.ar    1  UNL1        0.0120
     32 C           4.2856   -1.4692   17.9817 C.ar    1  UNL1        0.0682
     33 CL          4.2514   -0.6383   16.7334 Cl      1  UNL1       -0.0814
     34 C           3.3253   -1.1847   19.0985 C.ar    1  UNL1        0.0679
     35 CL          2.3310   -0.0694   18.9668 Cl      1  UNL1       -0.0814
     36 C           3.3595   -2.0156   20.3469 C.ar    1  UNL1        0.0099
@<TRIPOS>BOND
     1    18    19    2
     2    19    20   am
     3    20    22    1
     4    22    23   ar
     5    23    24   ar
     6    24    25   ar
     7    25    26   ar
     8    26    27   ar
     9    19     1    1
    10     1     2   ar
    11     2     3   ar
    12     3    28    1
    13    28    29    1
    14    29    30   ar
    15    30    31   ar
    16    31    32   ar
    17    32    33    1
    18    32    34   ar
    19    34    35    1
    20    34    36   ar
    21     3     4   ar
    22     4     5    2
    23     4     6   ar
    24     6     7   ar
    25     7     8   ar
    26     8     9   ar
    27     9    11    1
    28    11    12    1
    29    12    13    1
    30    13    14    1
    31    14    15    1
    32    15    16    1
    33     9    10   ar
    34    27    22   ar
    35    10     1   ar
    36    36    29   ar
    37    10     6   ar
    38    16    11    1
    39    20    21    1
    40    14    17    1
@<TRIPOS>MOLECULE
*****
 36 40 0 0 0
SMALL
GASTEIGER

@<TRIPOS>ATOM
      1 C           2.6592    0.2453   22.5223 C.ar    1  UNL1        0.0884
      2 C           1.8531    0.9996   23.5379 C.ar    1  UNL1        0.0846
      3 N           0.6144    1.7335   23.1173 N.ar    1  UNL1       -0.2897
      4 C           0.1818    1.7132   21.6812 C.ar    1  UNL1        0.2641
      5 O          -1.0570    2.4472   21.2606 O.2     1  UNL1       -0.2669
      6 C           0.9879    0.9590   20.6656 C.ar    1  UNL1        0.0944
      7 C           0.8102    0.7606   19.1895 C.ar    1  UNL1        0.1263
      8 N           1.9391   -0.0960   18.6978 N.ar    1  UNL1       -0.1676
      9 N           2.8145   -0.4270   19.8700 N.ar    1  UNL1       -0.2524
     10 C           2.2266    0.2251   21.0862 C.ar    1  UNL1        0.0897
     11 C           4.0592   -1.2632   19.8325 C.3     1  UNL1        0.1079
     12 C           3.9645   -2.7551   19.9559 C.3     1  UNL1        0.0415
     13 C           5.2092   -3.5914   19.9184 C.3     1  UNL1        0.0706
     14 N           6.5486   -2.9357   19.7576 N.3     1  UNL1       -0.2974
     15 C           6.6434   -1.4437   19.6343 C.3     1  UNL1        0.0706
     16 C           5.3987   -0.6075   19.6717 C.3     1  UNL1        0.0415
     17 H           6.9693   -3.3281   18.9154 H       1  UNL1        0.1232
     18 O           5.2467    0.1319   22.7284 O.2     1  UNL1       -0.2697
     19 C           3.8980   -0.4886   22.9429 C.2     1  UNL1        0.2524
     20 N           3.7880   -1.8430   23.5781 N.am    1  UNL1       -0.2802
     21 H           2.9028   -2.2503   23.7189 H       1  UNL1        0.1552
     22 C           5.0268   -2.5769   23.9986 C.ar    1  UNL1        0.0537
     23 C           5.7285   -2.1973   25.2689 C.ar    1  UNL1        0.0353
     24 C           6.9673   -2.9311   25.6895 C.ar    1  UNL1        0.1002
     25 N           7.5044   -4.0446   24.8399 N.ar    1  UNL1       -0.2422
     26 C           6.8026   -4.4241   23.5697 C.ar    1  UNL1        0.1002
     27 C           5.5639   -3.6903   23.1491 C.ar    1  UNL1        0.0353
     28 C          -0.1917    2.4877   24.1329 C.3     1  UNL1        0.1358
     29 C           0.0567    2.2740   25.5967 C.ar    1  UNL1        0.0014
     30 C           0.9565    3.2090   26.3490 C.ar    1  UNL1       -0.0015
     31 C           1.2049    2.9952   27.8129 C.ar    1  UNL1        0.0120
     32 C           0.5536    1.8465   28.5242 C.ar    1  UNL1        0.0682
     33 CL          0.8020    1.6326   29.9879 Cl      1  UNL1       -0.0814
     34 C          -0.3461    0.9113   27.7717 C.ar    1  UNL1        0.0679
     35 CL         -0.9974   -0.2375   28.4831 Cl      1  UNL1       -0.0814
     36 C          -0.5946    1.1251   26.3080 C.ar    1  UNL1        0.0099
@<TRIPOS>BOND
     1    18    19    2
     2    19    20   am
     3    20    22    1
     4    22    23   ar
     5    23    24   ar
     6    24    25   ar
     7    25    26   ar
     8    26    27   ar
     9    19     1    1
    10     1     2   ar
    11     2     3   ar
    12     3    28    1
    13    28    29    1
    14    29    30   ar
    15    30    31   ar
    16    31    32   ar
    17    32    33    1
    18    32    34   ar
    19    34    35    1
    20    34    36   ar
    21     3     4   ar
    22     4     5    2
    23     4     6   ar
    24     6     7   ar
    25     7     8   ar
    26     8     9   ar
    27     9    11    1
    28    11    12    1
    29    12    13    1
    30    13    14    1
    31    14    15    1
    32    15    16    1
    33     9    10   ar
    34    27    22   ar
    35    10     1   ar
    36    36    29   ar
    37    10     6   ar
    38    16    11    1
    39    20    21    1
    40    14    17    1
@<TRIPOS>MOLECULE
*****
 36 40 0 0 0
SMALL
GASTEIGER

@<TRIPOS>ATOM
      1 C           1.8123    1.4131   21.6174 C.ar    1  UNL1        0.0884
      2 C           1.0747    1.5996   22.9101 C.ar    1  UNL1        0.0846
      3 N           0.0286    2.6679   23.0293 N.ar    1  UNL1       -0.2897
      4 C          -0.2800    3.5498   21.8558 C.ar    1  UNL1        0.2641
      5 O          -1.3262    4.6182   21.9751 O.2     1  UNL1       -0.2669
      6 C           0.4576    3.3634   20.5631 C.ar    1  UNL1        0.0944
      7 C           0.3700    4.0754   19.2458 C.ar    1  UNL1        0.1263
      8 N           1.3620    3.4471   18.3125 N.ar    1  UNL1       -0.1676
      9 N           2.0627    2.3468   19.0529 N.ar    1  UNL1       -0.2524
     10 C           1.5038    2.2950   20.4439 C.ar    1  UNL1        0.0897
     11 C           3.1342    1.4548   18.4995 C.3     1  UNL1        0.1079
     12 C           2.7662    0.1512   17.8552 C.3     1  UNL1        0.0415
     13 C           3.8377   -0.7408   17.3018 C.3     1  UNL1        0.0706
     14 N           5.2772   -0.3292   17.3926 N.3     1  UNL1       -0.2974
     15 C           5.6452    0.9745   18.0369 C.3     1  UNL1        0.0706
     16 C           4.5738    1.8665   18.5903 C.3     1  UNL1        0.0415
     17 H           5.6351   -0.2973   16.4380 H       1  UNL1        0.1232
     18 O           4.3108    0.7005   21.6183 O.2     1  UNL1       -0.2697
     19 C           2.8585    0.3448   21.4982 C.2     1  UNL1        0.2524
     20 N           2.4524   -1.0792   21.2589 N.am    1  UNL1       -0.2802
     21 H           1.4992   -1.3127   21.1801 H       1  UNL1        0.1552
     22 C           3.4986   -2.1475   21.1397 C.ar    1  UNL1        0.0537
     23 C           3.7518   -2.8048   19.8154 C.ar    1  UNL1        0.0353
     24 C           4.7980   -3.8731   19.6961 C.ar    1  UNL1        0.1002
     25 N           5.5910   -4.2841   20.9011 N.ar    1  UNL1       -0.2422
     26 C           5.3378   -3.6267   22.2255 C.ar    1  UNL1        0.1002
     27 C           4.2917   -2.5585   22.3448 C.ar    1  UNL1        0.0353
     28 C          -0.7091    2.8543   24.3221 C.3     1  UNL1        0.1358
     29 C          -0.0549    2.4815   25.6194 C.ar    1  UNL1        0.0014
     30 C           1.1333    3.2547   26.1095 C.ar    1  UNL1       -0.0015
     31 C           1.7875    2.8818   27.4069 C.ar    1  UNL1        0.0120
     32 C           1.2534    1.7360   28.2141 C.ar    1  UNL1        0.0682
     33 CL          1.9075    1.3631   29.5114 Cl      1  UNL1       -0.0814
     34 C           0.0651    0.9628   27.7239 C.ar    1  UNL1        0.0679
     35 CL         -0.4690   -0.1832   28.5311 Cl      1  UNL1       -0.0814
     36 C          -0.5891    1.3356   26.4266 C.ar    1  UNL1        0.0099
@<TRIPOS>BOND
     1    18    19    2
     2    19    20   am
     3    20    22    1
     4    22    23   ar
     5    23    24   ar
     6    24    25   ar
     7    25    26   ar
     8    26    27   ar
     9    19     1    1
    10     1     2   ar
    11     2     3   ar
    12     3    28    1
    13    28    29    1
    14    29    30   ar
    15    30    31   ar
    16    31    32   ar
    17    32    33    1
    18    32    34   ar
    19    34    35    1
    20    34    36   ar
    21     3     4   ar
    22     4     5    2
    23     4     6   ar
    24     6     7   ar
    25     7     8   ar
    26     8     9   ar
    27     9    11    1
    28    11    12    1
    29    12    13    1
    30    13    14    1
    31    14    15    1
    32    15    16    1
    33     9    10   ar
    34    27    22   ar
    35    10     1   ar
    36    36    29   ar
    37    10     6   ar
    38    16    11    1
    39    20    21    1
    40    14    17    1
@<TRIPOS>MOLECULE
*****
 36 40 0 0 0
SMALL
GASTEIGER

@<TRIPOS>ATOM
      1 C           2.8571    1.0838   24.7578 C.ar    1  UNL1        0.0884
      2 C           3.8072    0.6900   23.6660 C.ar    1  UNL1        0.0846
      3 N           3.4316    0.9076   22.2302 N.ar    1  UNL1       -0.2897
      4 C           2.1057    1.5191   21.8862 C.ar    1  UNL1        0.2641
      5 O           1.7301    1.7367   20.4503 O.2     1  UNL1       -0.2669
      6 C           1.1555    1.9129   22.9780 C.ar    1  UNL1        0.0944
      7 C          -0.2103    2.5321   22.9450 C.ar    1  UNL1        0.1263
      8 N          -0.6787    2.6972   24.3603 N.ar    1  UNL1       -0.1676
      9 N           0.3976    2.1800   25.2682 N.ar    1  UNL1       -0.2524
     10 C           1.5312    1.6953   24.4138 C.ar    1  UNL1        0.0897
     11 C           0.3488    2.1524   26.7671 C.3     1  UNL1        0.1079
     12 C          -0.3432    1.0250   27.4743 C.3     1  UNL1        0.0415
     13 C          -0.3920    0.9973   28.9733 C.3     1  UNL1        0.0706
     14 N           0.2511    2.0971   29.7650 N.3     1  UNL1       -0.2974
     15 C           0.9430    3.2245   29.0577 C.3     1  UNL1        0.0706
     16 C           0.9919    3.2522   27.5588 C.3     1  UNL1        0.0415
     17 H           0.9458    1.6577   30.3689 H       1  UNL1        0.1232
     18 O           3.7947    1.9982   27.0017 O.2     1  UNL1       -0.2697
     19 C           3.2328    0.8662   26.1936 C.2     1  UNL1        0.2524
     20 N           3.0466   -0.4833   26.8213 N.am    1  UNL1       -0.2802
     21 H           2.6778   -1.2263   26.2910 H       1  UNL1        0.1552
     22 C           3.4223   -0.7009   28.2571 C.ar    1  UNL1        0.0537
     23 C           2.3859   -0.5628   29.3327 C.ar    1  UNL1        0.0353
     24 C           2.7616   -0.7803   30.7685 C.ar    1  UNL1        0.1002
     25 N           4.1736   -1.1359   31.1288 N.ar    1  UNL1       -0.2422
     26 C           5.2099   -1.2739   30.0531 C.ar    1  UNL1        0.1002
     27 C           4.8343   -1.0564   28.6174 C.ar    1  UNL1        0.0353
     28 C           4.3818    0.5138   21.1383 C.3     1  UNL1        0.1358
     29 C           4.3909   -0.8953   20.6241 C.ar    1  UNL1        0.0014
     30 C           3.1834   -1.4465   19.9255 C.ar    1  UNL1       -0.0015
     31 C           3.1926   -2.8557   19.4113 C.ar    1  UNL1        0.0120
     32 C           4.4091   -3.7134   19.5958 C.ar    1  UNL1        0.0682
     33 CL          4.4184   -5.1225   19.0816 Cl      1  UNL1       -0.0814
     34 C           5.6167   -3.1622   20.2945 C.ar    1  UNL1        0.0679
     35 CL          6.8333   -4.0200   20.4789 Cl      1  UNL1       -0.0814
     36 C           5.6076   -1.7531   20.8087 C.ar    1  UNL1        0.0099
@<TRIPOS>BOND
     1    18    19    2
     2    19    20   am
     3    20    22    1
     4    22    23   ar
     5    23    24   ar
     6    24    25   ar
     7    25    26   ar
     8    26    27   ar
     9    19     1    1
    10     1     2   ar
    11     2     3   ar
    12     3    28    1
    13    28    29    1
    14    29    30   ar
    15    30    31   ar
    16    31    32   ar
    17    32    33    1
    18    32    34   ar
    19    34    35    1
    20    34    36   ar
    21     3     4   ar
    22     4     5    2
    23     4     6   ar
    24     6     7   ar
    25     7     8   ar
    26     8     9   ar
    27     9    11    1
    28    11    12    1
    29    12    13    1
    30    13    14    1
    31    14    15    1
    32    15    16    1
    33     9    10   ar
    34    27    22   ar
    35    10     1   ar
    36    36    29   ar
    37    10     6   ar
    38    16    11    1
    39    20    21    1
    40    14    17    1
@<TRIPOS>MOLECULE
*****
 36 40 0 0 0
SMALL
GASTEIGER

@<TRIPOS>ATOM
      1 C           5.5409    0.9814   33.8300 C.ar    1  UNL1        0.0884
      2 C           5.1838    1.5181   35.1844 C.ar    1  UNL1        0.0846
      3 N           6.1141    1.3105   36.3425 N.ar    1  UNL1       -0.2897
      4 C           7.4017    0.5663   36.1463 C.ar    1  UNL1        0.2641
      5 O           8.3320    0.3588   37.3046 O.2     1  UNL1       -0.2669
      6 C           7.7588    0.0297   34.7919 C.ar    1  UNL1        0.0944
      7 C           8.9493   -0.7378   34.2983 C.ar    1  UNL1        0.1263
      8 N           8.7547   -1.0045   32.8351 N.ar    1  UNL1       -0.1676
      9 N           7.4439   -0.4019   32.4244 N.ar    1  UNL1       -0.2524
     10 C           6.8284    0.2372   33.6337 C.ar    1  UNL1        0.0897
     11 C           6.8526   -0.4331   31.0462 C.3     1  UNL1        0.1079
     12 C           7.1434    0.6768   30.0801 C.3     1  UNL1        0.0415
     13 C           6.5520    0.6458   28.7019 C.3     1  UNL1        0.0706
     14 N           5.6698   -0.4952   28.2899 N.3     1  UNL1       -0.2974
     15 C           5.3790   -1.6052   29.2561 C.3     1  UNL1        0.0706
     16 C           5.9704   -1.5742   30.6342 C.3     1  UNL1        0.0415
     17 H           6.1043   -0.9230   27.4722 H       1  UNL1        0.1232
     18 O           4.8944    2.2641   31.6651 O.2     1  UNL1       -0.2697
     19 C           4.6105    1.1890   32.6719 C.2     1  UNL1        0.2524
     20 N           3.3962    0.3215   32.5205 N.am    1  UNL1       -0.2802
     21 H           3.2099   -0.3841   33.1812 H       1  UNL1        0.1552
     22 C           2.4659    0.5291   31.3623 C.ar    1  UNL1        0.0537
     23 C           2.4621   -0.4429   30.2198 C.ar    1  UNL1        0.0353
     24 C           1.5318   -0.2353   29.0616 C.ar    1  UNL1        0.1002
     25 N           0.6053    0.9443   29.0458 N.ar    1  UNL1       -0.2422
     26 C           0.6091    1.9163   30.1884 C.ar    1  UNL1        0.1002
     27 C           1.5394    1.7087   31.3465 C.ar    1  UNL1        0.0353
     28 C           5.7570    1.8472   37.6970 C.3     1  UNL1        0.1358
     29 C           4.3172    2.0339   38.0741 C.ar    1  UNL1        0.0014
     30 C           3.6802    3.3867   37.9555 C.ar    1  UNL1       -0.0015
     31 C           2.2404    3.5733   38.3325 C.ar    1  UNL1        0.0120
     32 C           1.4376    2.4073   38.8281 C.ar    1  UNL1        0.0682
     33 CL         -0.0022    2.5938   39.2051 Cl      1  UNL1       -0.0814
     34 C           2.0747    1.0543   38.9467 C.ar    1  UNL1        0.0679
     35 CL          1.2719   -0.1118   39.4423 Cl      1  UNL1       -0.0814
     36 C           3.5145    0.8677   38.5697 C.ar    1  UNL1        0.0099
@<TRIPOS>BOND
     1    18    19    2
     2    19    20   am
     3    20    22    1
     4    22    23   ar
     5    23    24   ar
     6    24    25   ar
     7    25    26   ar
     8    26    27   ar
     9    19     1    1
    10     1     2   ar
    11     2     3   ar
    12     3    28    1
    13    28    29    1
    14    29    30   ar
    15    30    31   ar
    16    31    32   ar
    17    32    33    1
    18    32    34   ar
    19    34    35    1
    20    34    36   ar
    21     3     4   ar
    22     4     5    2
    23     4     6   ar
    24     6     7   ar
    25     7     8   ar
    26     8     9   ar
    27     9    11    1
    28    11    12    1
    29    12    13    1
    30    13    14    1
    31    14    15    1
    32    15    16    1
    33     9    10   ar
    34    27    22   ar
    35    10     1   ar
    36    36    29   ar
    37    10     6   ar
    38    16    11    1
    39    20    21    1
    40    14    17    1
