@<TRIPOS>MOLECULE
*****
 32 35 0 0 0
SMALL
GASTEIGER

@<TRIPOS>ATOM
      1 C          -9.8081  -19.6221   22.0047 C.ar    1  UNL1        0.1311
      2 C          -8.7460  -20.1007   22.9496 C.ar    1  UNL1        0.0339
      3 C          -7.3352  -20.2694   22.4689 C.ar    1  UNL1        0.0027
      4 C          -6.9865  -19.9596   21.0433 C.ar    1  UNL1        0.0283
      5 C          -8.0486  -19.4810   20.0983 C.ar    1  UNL1        0.2196
      6 F          -7.6999  -19.1712   18.6727 F       1  UNL1       -0.1835
      7 N          -9.4594  -19.3123   20.5790 N.ar    1  UNL1       -0.2035
      8 N         -11.2190  -19.4534   22.4853 N.pl3   1  UNL1       -0.3143
      9 H         -11.9702  -19.7370   21.9158 H       1  UNL1        0.1485
     10 C         -11.4852  -18.8526   23.8337 C.3     1  UNL1        0.1200
     11 C          -8.4545  -16.1073   25.7120 C.ar    1  UNL1        0.2275
     12 C          -8.8413  -17.3819   26.4020 C.ar    1  UNL1        0.0576
     13 C          -9.8515  -18.2969   25.7758 C.ar    1  UNL1        0.0068
     14 C         -10.4750  -17.9375   24.4598 C.ar    1  UNL1        0.0508
     15 C         -10.0883  -16.6630   23.7698 C.ar    1  UNL1        0.2249
     16 N          -9.0781  -15.7479   24.3959 N.ar    1  UNL1       -0.1769
     17 C          -5.9826  -15.3902   26.0657 C.3     1  UNL1        0.2542
     18 O          -7.4443  -15.1922   26.3380 O.3     1  UNL1       -0.4561
     19 O         -10.7118  -16.3035   22.4537 O.3     1  UNL1       -0.4562
     20 C         -12.1438  -15.8607   22.3983 C.3     1  UNL1        0.2542
     21 C          -5.5756  -20.1283   20.5625 C.3     1  UNL1        0.0582
     22 C          -4.4614  -19.3764   21.2283 C.ar    1  UNL1        0.0044
     23 C          -4.3036  -19.1580   22.7039 C.ar    1  UNL1        0.0966
     24 N          -3.0541  -18.3575   22.9229 N.ar    1  UNL1       -0.2273
     25 C          -2.4398  -18.0810   21.5827 C.ar    1  UNL1        0.1402
     26 N          -1.2008  -17.3373   21.1807 N.ar    1  UNL1       -0.3377
     27 C          -0.8316  -17.2233   19.7314 C.ar    1  UNL1        0.0691
     28 C          -1.7014  -17.8530   18.6840 C.ar    1  UNL1       -0.0047
     29 C          -1.3321  -17.7389   17.2346 C.3     1  UNL1        0.0326
     30 C          -2.9404  -18.5967   19.0860 C.ar    1  UNL1       -0.0001
     31 C          -3.3096  -18.7108   20.5354 C.ar    1  UNL1        0.0315
     32 H          -0.6299  -16.9240   21.8681 H       1  UNL1        0.1674
@<TRIPOS>BOND
     1    17    18    1
     2    18    11    1
     3    11    12   ar
     4    12    13   ar
     5    13    14   ar
     6    14    10    1
     7    10     8    1
     8     8     1    1
     9     1     2   ar
    10     2     3   ar
    11     3     4   ar
    12     4    21    1
    13    21    22    1
    14    22    23   ar
    15    23    24   ar
    16    24    25   ar
    17    25    26   ar
    18    26    27   ar
    19    27    28   ar
    20    28    29    1
    21    28    30   ar
    22    30    31   ar
    23     4     5   ar
    24     5     6    1
    25     5     7   ar
    26    14    15   ar
    27    15    19    1
    28    19    20    1
    29    15    16   ar
    30    16    11   ar
    31     7     1   ar
    32    31    22   ar
    33    31    25    1
    34     8     9    1
    35    26    32    1
@<TRIPOS>MOLECULE
*****
 32 35 0 0 0
SMALL
GASTEIGER

@<TRIPOS>ATOM
      1 C          -9.4380  -19.3020   22.0271 C.ar    1  UNL1        0.1311
      2 C          -8.4600  -20.0162   22.9122 C.ar    1  UNL1        0.0339
      3 C          -7.1618  -20.5126   22.3482 C.ar    1  UNL1        0.0027
      4 C          -6.8415  -20.2948   20.8991 C.ar    1  UNL1        0.0283
      5 C          -7.8194  -19.5805   20.0139 C.ar    1  UNL1        0.2196
      6 F          -7.4991  -19.3627   18.5648 F       1  UNL1       -0.1835
      7 N          -9.1176  -19.0841   20.5780 N.ar    1  UNL1       -0.2035
      8 N         -10.7362  -18.8055   22.5910 N.pl3   1  UNL1       -0.3143
      9 H         -11.5346  -19.3812   22.5690 H       1  UNL1        0.1485
     10 C         -10.8182  -17.4321   23.1885 C.3     1  UNL1        0.1200
     11 C          -7.0585  -15.2806   24.4072 C.ar    1  UNL1        0.2275
     12 C          -7.8588  -16.0303   25.4306 C.ar    1  UNL1        0.0576
     13 C          -9.1121  -16.7474   25.0243 C.ar    1  UNL1        0.0068
     14 C          -9.5649  -16.7149   23.5947 C.ar    1  UNL1        0.0508
     15 C          -8.7646  -15.9652   22.5713 C.ar    1  UNL1        0.2249
     16 N          -7.5113  -15.2480   22.9776 N.ar    1  UNL1       -0.1769
     17 C          -5.2695  -14.7195   26.2057 C.3     1  UNL1        0.2542
     18 O          -5.8052  -14.5634   24.8134 O.3     1  UNL1       -0.4561
     19 O          -9.2174  -15.9326   21.1416 O.3     1  UNL1       -0.4562
     20 C         -10.6445  -15.6071   20.8142 C.3     1  UNL1        0.2542
     21 C          -5.5431  -20.7912   20.3351 C.3     1  UNL1        0.0582
     22 C          -4.3754  -19.8584   20.2074 C.ar    1  UNL1        0.0044
     23 C          -3.5464  -19.6471   18.9754 C.ar    1  UNL1        0.0966
     24 N          -2.4903  -18.6313   19.2959 N.ar    1  UNL1       -0.2273
     25 C          -2.6666  -18.2147   20.7261 C.ar    1  UNL1        0.1402
     26 N          -1.9169  -17.2429   21.5882 N.ar    1  UNL1       -0.3377
     27 C          -2.3322  -17.0294   23.0136 C.ar    1  UNL1        0.0691
     28 C          -3.4972  -17.7879   23.5770 C.ar    1  UNL1       -0.0047
     29 C          -3.9125  -17.5744   25.0025 C.3     1  UNL1        0.0326
     30 C          -4.2470  -18.7597   22.7149 C.ar    1  UNL1       -0.0001
     31 C          -3.8317  -18.9732   21.2895 C.ar    1  UNL1        0.0315
     32 H          -1.1522  -16.7451   21.2184 H       1  UNL1        0.1674
@<TRIPOS>BOND
     1    17    18    1
     2    18    11    1
     3    11    12   ar
     4    12    13   ar
     5    13    14   ar
     6    14    10    1
     7    10     8    1
     8     8     1    1
     9     1     2   ar
    10     2     3   ar
    11     3     4   ar
    12     4    21    1
    13    21    22    1
    14    22    23   ar
    15    23    24   ar
    16    24    25   ar
    17    25    26   ar
    18    26    27   ar
    19    27    28   ar
    20    28    29    1
    21    28    30   ar
    22    30    31   ar
    23     4     5   ar
    24     5     6    1
    25     5     7   ar
    26    14    15   ar
    27    15    19    1
    28    19    20    1
    29    15    16   ar
    30    16    11   ar
    31     7     1   ar
    32    31    22   ar
    33    31    25    1
    34     8     9    1
    35    26    32    1
@<TRIPOS>MOLECULE
*****
 32 35 0 0 0
SMALL
GASTEIGER

@<TRIPOS>ATOM
      1 C          -9.5325  -18.6503   21.2896 C.ar    1  UNL1        0.1311
      2 C          -8.7451  -19.3149   22.3798 C.ar    1  UNL1        0.0339
      3 C          -7.4557  -20.0099   22.0567 C.ar    1  UNL1        0.0027
      4 C          -6.9537  -20.0403   20.6435 C.ar    1  UNL1        0.0283
      5 C          -7.7410  -19.3757   19.5534 C.ar    1  UNL1        0.2196
      6 F          -7.2390  -19.4062   18.1402 F       1  UNL1       -0.1835
      7 N          -9.0304  -18.6808   19.8765 N.ar    1  UNL1       -0.2035
      8 N         -10.8219  -17.9553   21.6126 N.pl3   1  UNL1       -0.3143
      9 H         -11.3563  -17.5496   20.8921 H       1  UNL1        0.1485
     10 C         -11.2972  -17.8784   23.0333 C.3     1  UNL1        0.1200
     11 C          -8.4692  -16.5828   26.2849 C.ar    1  UNL1        0.2275
     12 C          -8.7734  -15.6586   25.1433 C.ar    1  UNL1        0.0576
     13 C          -9.7160  -16.0905   24.0594 C.ar    1  UNL1        0.0068
     14 C         -10.3545  -17.4466   24.1172 C.ar    1  UNL1        0.0508
     15 C         -10.0503  -18.3708   25.2588 C.ar    1  UNL1        0.2249
     16 N          -9.1077  -17.9389   26.3426 N.ar    1  UNL1       -0.1769
     17 C          -6.5269  -15.0643   27.1044 C.3     1  UNL1        0.2542
     18 O          -7.5265  -16.1510   27.3688 O.3     1  UNL1       -0.4561
     19 O         -10.6888  -19.7269   25.3165 O.3     1  UNL1       -0.4562
     20 C          -9.9051  -20.9425   24.9191 C.3     1  UNL1        0.2542
     21 C          -5.6642  -20.7354   20.3205 C.3     1  UNL1        0.0582
     22 C          -4.3865  -19.9524   20.2536 C.ar    1  UNL1        0.0044
     23 C          -3.3192  -20.0943   19.2091 C.ar    1  UNL1        0.0966
     24 N          -2.2249  -19.1197   19.5294 N.ar    1  UNL1       -0.2273
     25 C          -2.6158  -18.3755   20.7718 C.ar    1  UNL1        0.1402
     26 N          -1.9278  -17.2958   21.5533 N.ar    1  UNL1       -0.3377
     27 C          -2.5759  -16.7307   22.7824 C.ar    1  UNL1        0.0691
     28 C          -3.9118  -17.2454   23.2300 C.ar    1  UNL1       -0.0047
     29 C          -4.5599  -16.6803   24.4591 C.3     1  UNL1        0.0326
     30 C          -4.5998  -18.3251   22.4484 C.ar    1  UNL1       -0.0001
     31 C          -3.9517  -18.8902   21.2193 C.ar    1  UNL1        0.0315
     32 H          -1.0510  -16.9580   21.2596 H       1  UNL1        0.1674
@<TRIPOS>BOND
     1    17    18    1
     2    18    11    1
     3    11    12   ar
     4    12    13   ar
     5    13    14   ar
     6    14    10    1
     7    10     8    1
     8     8     1    1
     9     1     2   ar
    10     2     3   ar
    11     3     4   ar
    12     4    21    1
    13    21    22    1
    14    22    23   ar
    15    23    24   ar
    16    24    25   ar
    17    25    26   ar
    18    26    27   ar
    19    27    28   ar
    20    28    29    1
    21    28    30   ar
    22    30    31   ar
    23     4     5   ar
    24     5     6    1
    25     5     7   ar
    26    14    15   ar
    27    15    19    1
    28    19    20    1
    29    15    16   ar
    30    16    11   ar
    31     7     1   ar
    32    31    22   ar
    33    31    25    1
    34     8     9    1
    35    26    32    1
@<TRIPOS>MOLECULE
*****
 32 35 0 0 0
SMALL
GASTEIGER

@<TRIPOS>ATOM
      1 C          -0.6294    2.2752   20.4211 C.ar    1  UNL1        0.1311
      2 C           0.1064    3.0480   19.3669 C.ar    1  UNL1        0.0339
      3 C           1.1722    2.3772   18.5520 C.ar    1  UNL1        0.0027
      4 C           1.5022    0.9337   18.7913 C.ar    1  UNL1        0.0283
      5 C           0.7664    0.1608   19.8455 C.ar    1  UNL1        0.2196
      6 F           1.0965   -1.2827   20.0848 F       1  UNL1       -0.1835
      7 N          -0.2993    0.8316   20.6604 N.ar    1  UNL1       -0.2035
      8 N          -1.6952    2.9459   21.2361 N.pl3   1  UNL1       -0.3143
      9 H          -1.5066    3.2209   22.1624 H       1  UNL1        0.1485
     10 C          -3.0484    3.1976   20.6398 C.3     1  UNL1        0.1200
     11 C          -6.5227    4.2379   23.3038 C.ar    1  UNL1        0.2275
     12 C          -5.2321    3.7653   23.9046 C.ar    1  UNL1        0.0576
     13 C          -4.0740    3.4186   23.0166 C.ar    1  UNL1        0.0068
     14 C          -4.2065    3.5444   21.5277 C.ar    1  UNL1        0.0508
     15 C          -5.4971    4.0169   20.9269 C.ar    1  UNL1        0.2249
     16 N          -6.6552    4.3637   21.8149 N.ar    1  UNL1       -0.1769
     17 C          -8.3806    5.9017   24.0316 C.3     1  UNL1        0.2542
     18 O          -7.6808    4.5846   24.1917 O.3     1  UNL1       -0.4561
     19 O          -5.6296    4.1428   19.4381 O.3     1  UNL1       -0.4562
     20 C          -6.6358    3.3092   18.7015 C.3     1  UNL1        0.2542
     21 C           2.5681    0.2629   17.9763 C.3     1  UNL1        0.0582
     22 C           3.8936   -0.0634   18.5980 C.ar    1  UNL1        0.0044
     23 C           5.0122    0.9041   18.8482 C.ar    1  UNL1        0.0966
     24 N           6.1431    0.1509   19.4835 N.ar    1  UNL1       -0.2273
     25 C           5.7235   -1.2822   19.6258 C.ar    1  UNL1        0.1402
     26 N           6.4278   -2.4836   20.1830 N.ar    1  UNL1       -0.3377
     27 C           5.7418   -3.8175   20.1930 C.ar    1  UNL1        0.0691
     28 C           4.3515   -3.9499   19.6457 C.ar    1  UNL1       -0.0047
     29 C           3.6655   -5.2839   19.6556 C.3     1  UNL1        0.0326
     30 C           3.6472   -2.7485   19.0885 C.ar    1  UNL1       -0.0001
     31 C           4.3332   -1.4147   19.0785 C.ar    1  UNL1        0.0315
     32 H           7.3403   -2.3967   20.5422 H       1  UNL1        0.1674
@<TRIPOS>BOND
     1    17    18    1
     2    18    11    1
     3    11    12   ar
     4    12    13   ar
     5    13    14   ar
     6    14    10    1
     7    10     8    1
     8     8     1    1
     9     1     2   ar
    10     2     3   ar
    11     3     4   ar
    12     4    21    1
    13    21    22    1
    14    22    23   ar
    15    23    24   ar
    16    24    25   ar
    17    25    26   ar
    18    26    27   ar
    19    27    28   ar
    20    28    29    1
    21    28    30   ar
    22    30    31   ar
    23     4     5   ar
    24     5     6    1
    25     5     7   ar
    26    14    15   ar
    27    15    19    1
    28    19    20    1
    29    15    16   ar
    30    16    11   ar
    31     7     1   ar
    32    31    22   ar
    33    31    25    1
    34     8     9    1
    35    26    32    1
@<TRIPOS>MOLECULE
*****
 32 35 0 0 0
SMALL
GASTEIGER

@<TRIPOS>ATOM
      1 C          -0.5611    2.2739   20.5733 C.ar    1  UNL1        0.1311
      2 C           0.1875    3.0669   19.5433 C.ar    1  UNL1        0.0339
      3 C           1.2119    2.3947   18.6782 C.ar    1  UNL1        0.0027
      4 C           1.4878    0.9295   18.8429 C.ar    1  UNL1        0.0283
      5 C           0.7392    0.1365   19.8729 C.ar    1  UNL1        0.2196
      6 F           1.0151   -1.3287   20.0376 F       1  UNL1       -0.1835
      7 N          -0.2852    0.8088   20.7381 N.ar    1  UNL1       -0.2035
      8 N          -1.5855    2.9461   21.4386 N.pl3   1  UNL1       -0.3143
      9 H          -2.5411    2.8819   21.2104 H       1  UNL1        0.1485
     10 C          -1.1542    3.7161   22.6515 C.3     1  UNL1        0.1200
     11 C          -0.4233    1.5684   26.5377 C.ar    1  UNL1        0.2275
     12 C           0.5126    1.3684   25.3826 C.ar    1  UNL1        0.0576
     13 C           0.2690    2.0843   24.0873 C.ar    1  UNL1        0.0068
     14 C          -0.9106    3.0003   23.9469 C.ar    1  UNL1        0.0508
     15 C          -1.8465    3.2003   25.1019 C.ar    1  UNL1        0.2249
     16 N          -1.6028    2.4844   26.3973 N.ar    1  UNL1       -0.1769
     17 C          -1.3385    0.4414   28.6922 C.3     1  UNL1        0.2542
     18 O          -0.1797    0.8526   27.8331 O.3     1  UNL1       -0.4561
     19 O          -3.0261    4.1162   24.9615 O.3     1  UNL1       -0.4562
     20 C          -4.3508    3.5705   24.5176 C.3     1  UNL1        0.2542
     21 C           2.5123    0.2573   17.9776 C.3     1  UNL1        0.0582
     22 C           3.8615   -0.0819   18.5384 C.ar    1  UNL1        0.0044
     23 C           5.0044    0.8717   18.7237 C.ar    1  UNL1        0.0966
     24 N           6.1540    0.1087   19.3122 N.ar    1  UNL1       -0.2273
     25 C           5.7216   -1.3165   19.4906 C.ar    1  UNL1        0.1402
     26 N           6.4349   -2.5222   20.0267 N.ar    1  UNL1       -0.3377
     27 C           5.7314   -3.8457   20.0846 C.ar    1  UNL1        0.0691
     28 C           4.3145   -3.9635   19.6064 C.ar    1  UNL1       -0.0047
     29 C           3.6110   -5.2871   19.6642 C.3     1  UNL1        0.0326
     30 C           3.6012   -2.7578   19.0702 C.ar    1  UNL1       -0.0001
     31 C           4.3047   -1.4343   19.0124 C.ar    1  UNL1        0.0315
     32 H           7.3648   -2.4449   20.3406 H       1  UNL1        0.1674
@<TRIPOS>BOND
     1    17    18    1
     2    18    11    1
     3    11    12   ar
     4    12    13   ar
     5    13    14   ar
     6    14    10    1
     7    10     8    1
     8     8     1    1
     9     1     2   ar
    10     2     3   ar
    11     3     4   ar
    12     4    21    1
    13    21    22    1
    14    22    23   ar
    15    23    24   ar
    16    24    25   ar
    17    25    26   ar
    18    26    27   ar
    19    27    28   ar
    20    28    29    1
    21    28    30   ar
    22    30    31   ar
    23     4     5   ar
    24     5     6    1
    25     5     7   ar
    26    14    15   ar
    27    15    19    1
    28    19    20    1
    29    15    16   ar
    30    16    11   ar
    31     7     1   ar
    32    31    22   ar
    33    31    25    1
    34     8     9    1
    35    26    32    1
@<TRIPOS>MOLECULE
*****
 32 35 0 0 0
SMALL
GASTEIGER

@<TRIPOS>ATOM
      1 C          -4.2704  -20.2139   20.4461 C.ar    1  UNL1        0.1311
      2 C          -5.0239  -21.4600   20.0864 C.ar    1  UNL1        0.0339
      3 C          -6.5187  -21.4244   19.9673 C.ar    1  UNL1        0.0027
      4 C          -7.2600  -20.1427   20.2079 C.ar    1  UNL1        0.0283
      5 C          -6.5065  -18.8966   20.5677 C.ar    1  UNL1        0.2196
      6 F          -7.2477  -17.6150   20.8083 F       1  UNL1       -0.1835
      7 N          -5.0117  -18.9323   20.6868 N.ar    1  UNL1       -0.2035
      8 N          -2.7756  -20.2494   20.5652 N.pl3   1  UNL1       -0.3143
      9 H          -2.2461  -20.8093   19.9525 H       1  UNL1        0.1485
     10 C          -2.0873  -19.4319   21.6179 C.3     1  UNL1        0.1200
     11 C          -4.2260  -15.9650   23.5299 C.ar    1  UNL1        0.2275
     12 C          -4.4406  -17.3563   24.0475 C.ar    1  UNL1        0.0576
     13 C          -3.7277  -18.5120   23.4102 C.ar    1  UNL1        0.0068
     14 C          -2.8001  -18.2762   22.2551 C.ar    1  UNL1        0.0508
     15 C          -2.5855  -16.8849   21.7375 C.ar    1  UNL1        0.2249
     16 N          -3.2984  -15.7292   22.3748 N.ar    1  UNL1       -0.1769
     17 C          -5.6377  -14.9919   25.4818 C.3     1  UNL1        0.2542
     18 O          -4.9388  -14.8093   24.1672 O.3     1  UNL1       -0.4561
     19 O          -1.6580  -16.6491   20.5824 O.3     1  UNL1       -0.4562
     20 C          -2.0585  -17.0724   19.2004 C.3     1  UNL1        0.2542
     21 C          -8.7549  -20.1072   20.0888 C.3     1  UNL1        0.0582
     22 C          -9.5860  -19.5935   21.2270 C.ar    1  UNL1        0.0044
     23 C          -9.6075  -20.1445   22.6220 C.ar    1  UNL1        0.0966
     24 N         -10.5762  -19.3301   23.4271 N.ar    1  UNL1       -0.2273
     25 C         -11.1534  -18.2757   22.5298 C.ar    1  UNL1        0.1402
     26 N         -12.1572  -17.1885   22.7752 N.ar    1  UNL1       -0.3377
     27 C         -12.5490  -16.2640   21.6609 C.ar    1  UNL1        0.0691
     28 C         -11.9369  -16.4268   20.3011 C.ar    1  UNL1       -0.0047
     29 C         -12.3288  -15.5023   19.1867 C.3     1  UNL1        0.0326
     30 C         -10.9332  -17.5141   20.0557 C.ar    1  UNL1       -0.0001
     31 C         -10.5414  -18.4385   21.1700 C.ar    1  UNL1        0.0315
     32 H         -12.5589  -17.0817   23.6677 H       1  UNL1        0.1674
@<TRIPOS>BOND
     1    17    18    1
     2    18    11    1
     3    11    12   ar
     4    12    13   ar
     5    13    14   ar
     6    14    10    1
     7    10     8    1
     8     8     1    1
     9     1     2   ar
    10     2     3   ar
    11     3     4   ar
    12     4    21    1
    13    21    22    1
    14    22    23   ar
    15    23    24   ar
    16    24    25   ar
    17    25    26   ar
    18    26    27   ar
    19    27    28   ar
    20    28    29    1
    21    28    30   ar
    22    30    31   ar
    23     4     5   ar
    24     5     6    1
    25     5     7   ar
    26    14    15   ar
    27    15    19    1
    28    19    20    1
    29    15    16   ar
    30    16    11   ar
    31     7     1   ar
    32    31    22   ar
    33    31    25    1
    34     8     9    1
    35    26    32    1
@<TRIPOS>MOLECULE
*****
 32 35 0 0 0
SMALL
GASTEIGER

@<TRIPOS>ATOM
      1 C          -0.5274    2.2425   20.6864 C.ar    1  UNL1        0.1311
      2 C           0.1551    3.0718   19.6393 C.ar    1  UNL1        0.0339
      3 C           1.1826    2.4490   18.7414 C.ar    1  UNL1        0.0027
      4 C           1.5276    0.9968   18.8906 C.ar    1  UNL1        0.0283
      5 C           0.8451    0.1675   19.9377 C.ar    1  UNL1        0.2196
      6 F           1.1901   -1.2846   20.0868 F       1  UNL1       -0.1835
      7 N          -0.1824    0.7904   20.8356 N.ar    1  UNL1       -0.2035
      8 N          -1.5549    2.8653   21.5843 N.pl3   1  UNL1       -0.3143
      9 H          -1.5998    2.6081   22.5336 H       1  UNL1        0.1485
     10 C          -2.5141    3.8800   21.0361 C.3     1  UNL1        0.1200
     11 C          -6.6856    4.1623   22.6998 C.ar    1  UNL1        0.2275
     12 C          -6.4596    4.2646   21.2205 C.ar    1  UNL1        0.0576
     13 C          -5.0691    4.1705   20.6659 C.ar    1  UNL1        0.0068
     14 C          -3.9045    3.9741   21.5907 C.ar    1  UNL1        0.0508
     15 C          -4.1305    3.8717   23.0700 C.ar    1  UNL1        0.2249
     16 N          -5.5210    3.9658   23.6246 N.ar    1  UNL1       -0.1769
     17 C          -8.4034    5.2951   24.2860 C.3     1  UNL1        0.2542
     18 O          -8.0761    4.2564   23.2545 O.3     1  UNL1       -0.4561
     19 O          -2.9659    3.6753   23.9948 O.3     1  UNL1       -0.4562
     20 C          -2.5773    4.7620   24.9528 C.3     1  UNL1        0.2542
     21 C           2.5552    0.3740   17.9926 C.3     1  UNL1        0.0582
     22 C           3.9109    0.0265   18.5322 C.ar    1  UNL1        0.0044
     23 C           5.0525    0.9795   18.7284 C.ar    1  UNL1        0.0966
     24 N           6.2103    0.2070   19.2878 N.ar    1  UNL1       -0.2273
     25 C           5.7842   -1.2234   19.4373 C.ar    1  UNL1        0.1402
     26 N           6.5066   -2.4387   19.9383 N.ar    1  UNL1       -0.3377
     27 C           5.8080   -3.7656   19.9723 C.ar    1  UNL1        0.0691
     28 C           4.3869   -3.8772   19.5053 C.ar    1  UNL1       -0.0047
     29 C           3.6883   -5.2042   19.5393 C.3     1  UNL1        0.0326
     30 C           3.6645   -2.6619   19.0043 C.ar    1  UNL1       -0.0001
     31 C           4.3631   -1.3350   18.9703 C.ar    1  UNL1        0.0315
     32 H           7.4393   -2.3655   20.2448 H       1  UNL1        0.1674
@<TRIPOS>BOND
     1    17    18    1
     2    18    11    1
     3    11    12   ar
     4    12    13   ar
     5    13    14   ar
     6    14    10    1
     7    10     8    1
     8     8     1    1
     9     1     2   ar
    10     2     3   ar
    11     3     4   ar
    12     4    21    1
    13    21    22    1
    14    22    23   ar
    15    23    24   ar
    16    24    25   ar
    17    25    26   ar
    18    26    27   ar
    19    27    28   ar
    20    28    29    1
    21    28    30   ar
    22    30    31   ar
    23     4     5   ar
    24     5     6    1
    25     5     7   ar
    26    14    15   ar
    27    15    19    1
    28    19    20    1
    29    15    16   ar
    30    16    11   ar
    31     7     1   ar
    32    31    22   ar
    33    31    25    1
    34     8     9    1
    35    26    32    1
@<TRIPOS>MOLECULE
*****
 32 35 0 0 0
SMALL
GASTEIGER

@<TRIPOS>ATOM
      1 C          -4.1496  -19.7552   21.1377 C.ar    1  UNL1        0.1311
      2 C          -4.7400  -19.2509   19.8543 C.ar    1  UNL1        0.0339
      3 C          -6.2201  -19.3343   19.6260 C.ar    1  UNL1        0.0027
      4 C          -7.1099  -19.9220   20.6810 C.ar    1  UNL1        0.0283
      5 C          -6.5195  -20.4262   21.9644 C.ar    1  UNL1        0.2196
      6 F          -7.4092  -21.0139   23.0194 F       1  UNL1       -0.1835
      7 N          -5.0393  -20.3428   22.1927 N.ar    1  UNL1       -0.2035
      8 N          -2.6694  -19.6718   21.3662 N.pl3   1  UNL1       -0.3143
      9 H          -2.0629  -20.2854   20.8921 H       1  UNL1        0.1485
     10 C          -2.1134  -18.6534   22.3169 C.3     1  UNL1        0.1200
     11 C          -4.8590  -15.6887   24.2972 C.ar    1  UNL1        0.2275
     12 C          -4.5785  -17.0071   24.9554 C.ar    1  UNL1        0.0576
     13 C          -3.6633  -17.9953   24.2953 C.ar    1  UNL1        0.0068
     14 C          -3.0285  -17.6652   22.9769 C.ar    1  UNL1        0.0508
     15 C          -3.3090  -16.3468   22.3187 C.ar    1  UNL1        0.2249
     16 N          -4.2242  -15.3586   22.9788 N.ar    1  UNL1       -0.1769
     17 C          -6.1185  -14.8508   26.4094 C.3     1  UNL1        0.2542
     18 O          -5.7741  -14.7004   24.9572 O.3     1  UNL1       -0.4561
     19 O          -2.6742  -16.0167   21.0003 O.3     1  UNL1       -0.4562
     20 C          -1.2481  -16.4001   20.7376 C.3     1  UNL1        0.2542
     21 C          -8.5901  -20.0054   20.4526 C.3     1  UNL1        0.0582
     22 C          -9.4368  -18.7722   20.5638 C.ar    1  UNL1        0.0044
     23 C         -10.2731  -18.1754   19.4709 C.ar    1  UNL1        0.0966
     24 N         -10.9490  -16.9537   20.0192 N.ar    1  UNL1       -0.2273
     25 C         -10.5304  -16.7954   21.4508 C.ar    1  UNL1        0.1402
     26 N         -10.8794  -15.7730   22.4915 N.ar    1  UNL1       -0.3377
     27 C         -10.2939  -15.8746   23.8687 C.ar    1  UNL1        0.0691
     28 C          -9.3593  -16.9986   24.2053 C.ar    1  UNL1       -0.0047
     29 C          -8.7738  -17.1001   25.5826 C.3     1  UNL1        0.0326
     30 C          -9.0102  -18.0209   23.1647 C.ar    1  UNL1       -0.0001
     31 C          -9.5958  -17.9193   21.7874 C.ar    1  UNL1        0.0315
     32 H         -11.4929  -15.0354   22.2705 H       1  UNL1        0.1674
@<TRIPOS>BOND
     1    17    18    1
     2    18    11    1
     3    11    12   ar
     4    12    13   ar
     5    13    14   ar
     6    14    10    1
     7    10     8    1
     8     8     1    1
     9     1     2   ar
    10     2     3   ar
    11     3     4   ar
    12     4    21    1
    13    21    22    1
    14    22    23   ar
    15    23    24   ar
    16    24    25   ar
    17    25    26   ar
    18    26    27   ar
    19    27    28   ar
    20    28    29    1
    21    28    30   ar
    22    30    31   ar
    23     4     5   ar
    24     5     6    1
    25     5     7   ar
    26    14    15   ar
    27    15    19    1
    28    19    20    1
    29    15    16   ar
    30    16    11   ar
    31     7     1   ar
    32    31    22   ar
    33    31    25    1
    34     8     9    1
    35    26    32    1
@<TRIPOS>MOLECULE
*****
 32 35 0 0 0
SMALL
GASTEIGER

@<TRIPOS>ATOM
      1 C           5.6002   -1.9357   24.9569 C.ar    1  UNL1        0.1311
      2 C           4.2652   -1.6500   24.3356 C.ar    1  UNL1        0.0339
      3 C           3.9014   -2.2727   23.0204 C.ar    1  UNL1        0.0027
      4 C           4.8726   -3.1811   22.3265 C.ar    1  UNL1        0.0283
      5 C           6.2076   -3.4669   22.9478 C.ar    1  UNL1        0.2196
      6 F           7.1788   -4.3754   22.2539 F       1  UNL1       -0.1835
      7 N           6.5714   -2.8442   24.2630 N.ar    1  UNL1       -0.2035
      8 N           5.9641   -1.3130   26.2721 N.pl3   1  UNL1       -0.3143
      9 H           6.6346   -1.7423   26.8512 H       1  UNL1        0.1485
     10 C           5.3064   -0.0363   26.7051 C.3     1  UNL1        0.1200
     11 C           1.3690   -0.1587   28.8804 C.ar    1  UNL1        0.2275
     12 C           1.4962    0.6168   27.6028 C.ar    1  UNL1        0.0576
     13 C           2.8087    0.6576   26.8777 C.ar    1  UNL1        0.0068
     14 C           3.9940   -0.0772   27.4302 C.ar    1  UNL1        0.0508
     15 C           3.8667   -0.8528   28.7078 C.ar    1  UNL1        0.2249
     16 N           2.5542   -0.8935   29.4329 N.ar    1  UNL1       -0.1769
     17 C          -1.2247   -0.0110   28.8486 C.3     1  UNL1        0.2542
     18 O           0.0566   -0.1996   29.6055 O.3     1  UNL1       -0.4561
     19 O           5.0520   -1.5876   29.2604 O.3     1  UNL1       -0.4562
     20 C           5.9329   -0.9303   30.2810 C.3     1  UNL1        0.2542
     21 C           4.5087   -3.8039   21.0112 C.3     1  UNL1        0.0582
     22 C           4.5093   -2.9730   19.7623 C.ar    1  UNL1        0.0044
     23 C           5.4802   -3.0915   18.6250 C.ar    1  UNL1        0.0966
     24 N           5.1101   -2.0695   17.5913 N.ar    1  UNL1       -0.2273
     25 C           3.9105   -1.3194   18.0897 C.ar    1  UNL1        0.1402
     26 N           3.1083   -0.2001   17.4951 N.ar    1  UNL1       -0.3377
     27 C           1.9348    0.3608   18.2423 C.ar    1  UNL1        0.0691
     28 C           1.5636   -0.1976   19.5841 C.ar    1  UNL1       -0.0047
     29 C           0.3900    0.3634   20.3312 C.3     1  UNL1        0.0326
     30 C           2.3657   -1.3169   20.1786 C.ar    1  UNL1       -0.0001
     31 C           3.5392   -1.8778   19.4315 C.ar    1  UNL1        0.0315
     32 H           3.3520    0.1664   16.6145 H       1  UNL1        0.1674
@<TRIPOS>BOND
     1    17    18    1
     2    18    11    1
     3    11    12   ar
     4    12    13   ar
     5    13    14   ar
     6    14    10    1
     7    10     8    1
     8     8     1    1
     9     1     2   ar
    10     2     3   ar
    11     3     4   ar
    12     4    21    1
    13    21    22    1
    14    22    23   ar
    15    23    24   ar
    16    24    25   ar
    17    25    26   ar
    18    26    27   ar
    19    27    28   ar
    20    28    29    1
    21    28    30   ar
    22    30    31   ar
    23     4     5   ar
    24     5     6    1
    25     5     7   ar
    26    14    15   ar
    27    15    19    1
    28    19    20    1
    29    15    16   ar
    30    16    11   ar
    31     7     1   ar
    32    31    22   ar
    33    31    25    1
    34     8     9    1
    35    26    32    1
