@<TRIPOS>MOLECULE
*****
 21 23 0 0 0
SMALL
GASTEIGER

@<TRIPOS>ATOM
      1 O          -8.0646  -15.4122   21.5820 O.2     1  UNL1       -0.2699
      2 C          -8.9214  -16.1722   22.5507 C.2     1  UNL1        0.2498
      3 N          -8.4360  -16.4182   23.9485 N.am    1  UNL1       -0.2763
      4 C         -10.2637  -16.6862   22.1216 C.ar    1  UNL1        0.0641
      5 C         -11.5140  -16.0092   22.5998 C.ar    1  UNL1        0.0054
      6 C         -12.8562  -16.5231   22.1706 C.ar    1  UNL1        0.0002
      7 C         -12.9482  -17.7141   21.2632 C.ar    1  UNL1        0.0009
      8 C         -11.6980  -18.3910   20.7851 C.ar    1  UNL1        0.0115
      9 C         -10.3558  -17.8770   21.2142 C.ar    1  UNL1        0.0620
     10 CL         -9.1055  -18.5540   20.7360 Cl      1  UNL1       -0.0821
     11 C          -7.0937  -15.9042   24.3776 C.3     1  UNL1        0.0927
     12 C          -5.7751  -16.2542   23.7542 C.3     1  UNL1        0.0383
     13 C          -4.7008  -15.5163   24.4968 C.3     1  UNL1        0.0704
     14 N          -5.3555  -14.7103   25.5793 N.3     1  UNL1       -0.2960
     15 C          -6.8344  -14.9501   25.5056 C.3     1  UNL1        0.0887
     16 H          -5.1582  -13.7193   25.4404 H       1  UNL1        0.1233
     17 C          -9.2928  -17.1782   24.9172 C.3     1  UNL1        0.0936
     18 C          -9.7968  -18.5452   24.5603 C.3     1  UNL1        0.0199
     19 C         -11.1345  -19.2232   24.5884 C.3     1  UNL1        0.0017
     20 C         -10.5095  -20.4784   24.0556 C.3     1  UNL1        0.0001
     21 C          -9.1717  -19.8004   24.0276 C.3     1  UNL1        0.0017
@<TRIPOS>BOND
     1     1     2    2
     2     2     4    1
     3     4     5   ar
     4     5     6   ar
     5     6     7   ar
     6     7     8   ar
     7     8     9   ar
     8     9    10    1
     9     2     3   am
    10     3    17    1
    11    17    18    1
    12    18    19    1
    13    19    20    1
    14    20    21    1
    15    11     3    1
    16    11    12    1
    17    12    13    1
    18    13    14    1
    19    14    15    1
    20     9     4   ar
    21    21    18    1
    22    15    11    1
    23    14    16    1
@<TRIPOS>MOLECULE
*****
 21 23 0 0 0
SMALL
GASTEIGER

@<TRIPOS>ATOM
      1 O          -7.7908  -14.9936   22.1220 O.2     1  UNL1       -0.2699
      2 C          -8.3276  -15.7880   23.2757 C.2     1  UNL1        0.2498
      3 N          -9.4809  -16.7246   23.0692 N.am    1  UNL1       -0.2763
      4 C          -7.7111  -15.6458   24.6357 C.ar    1  UNL1        0.0641
      5 C          -8.5841  -15.4276   25.8358 C.ar    1  UNL1        0.0054
      6 C          -7.9675  -15.2854   27.1958 C.ar    1  UNL1        0.0002
      7 C          -6.4779  -15.3615   27.3557 C.ar    1  UNL1        0.0009
      8 C          -5.6050  -15.5797   26.1556 C.ar    1  UNL1        0.0115
      9 C          -6.2216  -15.7219   24.7956 C.ar    1  UNL1        0.0620
     10 CL         -5.3486  -15.9401   23.5954 Cl      1  UNL1       -0.0821
     11 C         -10.0975  -16.8668   21.7092 C.3     1  UNL1        0.0927
     12 C         -11.0486  -15.9009   21.0670 C.3     1  UNL1        0.0383
     13 C         -11.4101  -16.4370   19.7135 C.3     1  UNL1        0.0704
     14 N         -10.6825  -17.7342   19.5192 N.3     1  UNL1       -0.2960
     15 C          -9.8712  -17.9998   20.7527 C.3     1  UNL1        0.0887
     16 H         -10.0676  -17.6681   18.7081 H       1  UNL1        0.1233
     17 C         -10.0178  -17.5190   24.2229 C.3     1  UNL1        0.0936
     18 C          -9.8145  -19.0044   24.2698 C.3     1  UNL1        0.0199
     19 C         -10.3797  -20.1270   25.0886 C.3     1  UNL1        0.0017
     20 C          -9.5271  -21.1051   24.3361 C.3     1  UNL1        0.0001
     21 C          -8.9619  -19.9826   23.5173 C.3     1  UNL1        0.0017
@<TRIPOS>BOND
     1     1     2    2
     2     2     4    1
     3     4     5   ar
     4     5     6   ar
     5     6     7   ar
     6     7     8   ar
     7     8     9   ar
     8     9    10    1
     9     2     3   am
    10     3    17    1
    11    17    18    1
    12    18    19    1
    13    19    20    1
    14    20    21    1
    15    11     3    1
    16    11    12    1
    17    12    13    1
    18    13    14    1
    19    14    15    1
    20     9     4   ar
    21    21    18    1
    22    15    11    1
    23    14    16    1
@<TRIPOS>MOLECULE
*****
 21 23 0 0 0
SMALL
GASTEIGER

@<TRIPOS>ATOM
      1 O          -7.7958  -19.7568   21.9978 O.2     1  UNL1       -0.2699
      2 C          -8.1670  -18.3931   22.5003 C.2     1  UNL1        0.2498
      3 N          -7.0950  -17.4270   22.9093 N.am    1  UNL1       -0.2763
      4 C          -9.6104  -17.9955   22.5939 C.ar    1  UNL1        0.0641
      5 C         -10.2268  -17.1506   21.5185 C.ar    1  UNL1        0.0054
      6 C         -11.6701  -16.7530   21.6121 C.ar    1  UNL1        0.0002
      7 C         -12.4970  -17.2003   22.7809 C.ar    1  UNL1        0.0009
      8 C         -11.8806  -18.0452   23.8562 C.ar    1  UNL1        0.0115
      9 C         -10.4373  -18.4428   23.7626 C.ar    1  UNL1        0.0620
     10 CL         -9.8209  -19.2877   24.8380 Cl      1  UNL1       -0.0821
     11 C          -5.6517  -17.8245   22.8158 C.3     1  UNL1        0.0927
     12 C          -4.5022  -17.1371   23.4911 C.3     1  UNL1        0.0383
     13 C          -3.2445  -17.8670   23.1232 C.3     1  UNL1        0.0704
     14 N          -3.6166  -19.0057   22.2205 N.3     1  UNL1       -0.2960
     15 C          -5.1043  -18.9794   22.0305 C.3     1  UNL1        0.0887
     16 H          -3.3375  -19.8899   22.6456 H       1  UNL1        0.1233
     17 C          -7.4662  -16.0632   23.4119 C.3     1  UNL1        0.0936
     18 C          -7.6319  -15.8257   24.8836 C.3     1  UNL1        0.0199
     19 C          -8.7958  -15.8001   25.8295 C.3     1  UNL1        0.0017
     20 C          -7.8661  -15.4898   26.9650 C.3     1  UNL1        0.0001
     21 C          -6.7022  -15.5154   26.0192 C.3     1  UNL1        0.0017
@<TRIPOS>BOND
     1     1     2    2
     2     2     4    1
     3     4     5   ar
     4     5     6   ar
     5     6     7   ar
     6     7     8   ar
     7     8     9   ar
     8     9    10    1
     9     2     3   am
    10     3    17    1
    11    17    18    1
    12    18    19    1
    13    19    20    1
    14    20    21    1
    15    11     3    1
    16    11    12    1
    17    12    13    1
    18    13    14    1
    19    14    15    1
    20     9     4   ar
    21    21    18    1
    22    15    11    1
    23    14    16    1
@<TRIPOS>MOLECULE
*****
 21 23 0 0 0
SMALL
GASTEIGER

@<TRIPOS>ATOM
      1 O          -8.1651  -15.8488   23.7988 O.2     1  UNL1       -0.2699
      2 C          -8.7282  -17.1439   23.2930 C.2     1  UNL1        0.2498
      3 N          -7.8084  -18.2127   22.7814 N.am    1  UNL1       -0.2763
      4 C         -10.2110  -17.3702   23.2988 C.ar    1  UNL1        0.0641
      5 C         -10.8314  -18.2493   24.3440 C.ar    1  UNL1        0.0054
      6 C         -12.3143  -18.4755   24.3498 C.ar    1  UNL1        0.0002
      7 C         -13.1766  -17.8227   23.3105 C.ar    1  UNL1        0.0009
      8 C         -12.5562  -16.9437   22.2654 C.ar    1  UNL1        0.0115
      9 C         -11.0734  -16.7174   22.2595 C.ar    1  UNL1        0.0620
     10 CL        -10.4529  -15.8384   21.2143 Cl      1  UNL1       -0.0821
     11 C          -6.3256  -17.9864   22.7756 C.3     1  UNL1        0.0927
     12 C          -5.2973  -18.8955   22.1704 C.3     1  UNL1        0.0383
     13 C          -3.9469  -18.2823   22.3947 C.3     1  UNL1        0.0704
     14 N          -4.1405  -16.9942   23.1386 N.3     1  UNL1       -0.2960
     15 C          -5.6106  -16.8114   23.3740 C.3     1  UNL1        0.0887
     16 H          -3.7793  -16.2172   22.5852 H       1  UNL1        0.1233
     17 C          -8.3715  -19.5078   22.2756 C.3     1  UNL1        0.0936
     18 C          -9.0285  -19.5647   20.9284 C.3     1  UNL1        0.0199
     19 C         -10.4385  -19.7228   20.4419 C.3     1  UNL1        0.0017
     20 C          -9.9577  -19.6451   19.0231 C.3     1  UNL1        0.0001
     21 C          -8.5476  -19.4871   19.5097 C.3     1  UNL1        0.0017
@<TRIPOS>BOND
     1     1     2    2
     2     2     4    1
     3     4     5   ar
     4     5     6   ar
     5     6     7   ar
     6     7     8   ar
     7     8     9   ar
     8     9    10    1
     9     2     3   am
    10     3    17    1
    11    17    18    1
    12    18    19    1
    13    19    20    1
    14    20    21    1
    15    11     3    1
    16    11    12    1
    17    12    13    1
    18    13    14    1
    19    14    15    1
    20     9     4   ar
    21    21    18    1
    22    15    11    1
    23    14    16    1
@<TRIPOS>MOLECULE
*****
 21 23 0 0 0
SMALL
GASTEIGER

@<TRIPOS>ATOM
      1 O          -7.6719  -15.6803   21.8955 O.2     1  UNL1       -0.2699
      2 C          -8.3283  -16.3109   23.0878 C.2     1  UNL1        0.2498
      3 N          -9.4574  -17.2798   22.8974 N.am    1  UNL1       -0.2763
      4 C          -7.8555  -15.9725   24.4706 C.ar    1  UNL1        0.0641
      5 C          -8.8499  -15.6326   25.5410 C.ar    1  UNL1        0.0054
      6 C          -8.3772  -15.2942   26.9237 C.ar    1  UNL1        0.0002
      7 C          -6.9100  -15.2957   27.2360 C.ar    1  UNL1        0.0009
      8 C          -5.9157  -15.6356   26.1657 C.ar    1  UNL1        0.0115
      9 C          -6.3885  -15.9740   24.7829 C.ar    1  UNL1        0.0620
     10 CL         -5.3941  -16.3139   23.7125 Cl      1  UNL1       -0.0821
     11 C          -9.9302  -17.6182   21.5147 C.3     1  UNL1        0.0927
     12 C          -9.6675  -18.9005   20.7822 C.3     1  UNL1        0.0383
     13 C         -10.3236  -18.8086   19.4365 C.3     1  UNL1        0.0704
     14 N         -10.9919  -17.4693   19.3372 N.3     1  UNL1       -0.2960
     15 C         -10.7487  -16.7336   20.6216 C.3     1  UNL1        0.0887
     16 H         -11.9941  -17.5923   19.1931 H       1  UNL1        0.1233
     17 C         -10.1138  -17.9103   24.0898 C.3     1  UNL1        0.0936
     18 C         -11.6068  -18.0465   24.1394 C.3     1  UNL1        0.0199
     19 C         -12.7516  -17.4592   23.3683 C.3     1  UNL1        0.0017
     20 C         -13.7182  -18.2390   24.2096 C.3     1  UNL1        0.0001
     21 C         -12.5734  -18.8262   24.9807 C.3     1  UNL1        0.0017
@<TRIPOS>BOND
     1     1     2    2
     2     2     4    1
     3     4     5   ar
     4     5     6   ar
     5     6     7   ar
     6     7     8   ar
     7     8     9   ar
     8     9    10    1
     9     2     3   am
    10     3    17    1
    11    17    18    1
    12    18    19    1
    13    19    20    1
    14    20    21    1
    15    11     3    1
    16    11    12    1
    17    12    13    1
    18    13    14    1
    19    14    15    1
    20     9     4   ar
    21    21    18    1
    22    15    11    1
    23    14    16    1
@<TRIPOS>MOLECULE
*****
 21 23 0 0 0
SMALL
GASTEIGER

@<TRIPOS>ATOM
      1 O          -9.0869  -20.5065   21.7254 O.2     1  UNL1       -0.2699
      2 C          -9.3519  -19.0655   22.0472 C.2     1  UNL1        0.2498
      3 N          -8.2439  -18.0592   21.9495 N.am    1  UNL1       -0.2763
      4 C         -10.7250  -18.6309   22.4666 C.ar    1  UNL1        0.0641
      5 C         -11.1665  -18.8101   23.8889 C.ar    1  UNL1        0.0054
      6 C         -12.5396  -18.3756   24.3084 C.ar    1  UNL1        0.0002
      7 C         -13.4710  -17.7618   23.3054 C.ar    1  UNL1        0.0009
      8 C         -13.0294  -17.5826   21.8832 C.ar    1  UNL1        0.0115
      9 C         -11.6564  -18.0172   21.4638 C.ar    1  UNL1        0.0620
     10 CL        -11.2148  -17.8380   20.0414 Cl      1  UNL1       -0.0821
     11 C          -6.8709  -18.4938   21.5301 C.3     1  UNL1        0.0927
     12 C          -6.4790  -18.9841   20.1678 C.3     1  UNL1        0.0383
     13 C          -5.0145  -19.3077   20.1951 C.3     1  UNL1        0.0704
     14 N          -4.5013  -19.0173   21.5743 N.3     1  UNL1       -0.2960
     15 C          -5.6486  -18.5143   22.3994 C.3     1  UNL1        0.0887
     16 H          -3.7700  -18.3077   21.5292 H       1  UNL1        0.1233
     17 C          -8.5089  -16.6182   22.2713 C.3     1  UNL1        0.0936
     18 C          -8.2917  -16.1088   23.6653 C.3     1  UNL1        0.0199
     19 C          -7.4262  -15.0524   24.2857 C.3     1  UNL1        0.0017
     20 C          -7.9845  -15.3884   25.6368 C.3     1  UNL1        0.0001
     21 C          -8.8500  -16.4449   25.0164 C.3     1  UNL1        0.0017
@<TRIPOS>BOND
     1     1     2    2
     2     2     4    1
     3     4     5   ar
     4     5     6   ar
     5     6     7   ar
     6     7     8   ar
     7     8     9   ar
     8     9    10    1
     9     2     3   am
    10     3    17    1
    11    17    18    1
    12    18    19    1
    13    19    20    1
    14    20    21    1
    15    11     3    1
    16    11    12    1
    17    12    13    1
    18    13    14    1
    19    14    15    1
    20     9     4   ar
    21    21    18    1
    22    15    11    1
    23    14    16    1
@<TRIPOS>MOLECULE
*****
 21 23 0 0 0
SMALL
GASTEIGER

@<TRIPOS>ATOM
      1 O          -8.9564  -18.8880   19.6472 O.2     1  UNL1       -0.2699
      2 C          -9.0483  -18.5051   21.0946 C.2     1  UNL1        0.2498
      3 N          -7.8652  -18.6944   21.9971 N.am    1  UNL1       -0.2763
      4 C         -10.3233  -17.9328   21.6395 C.ar    1  UNL1        0.0641
      5 C         -10.6335  -16.4775   21.4497 C.ar    1  UNL1        0.0054
      6 C         -11.9085  -15.9052   21.9946 C.ar    1  UNL1        0.0002
      7 C         -12.8732  -16.7882   22.7293 C.ar    1  UNL1        0.0009
      8 C         -12.5630  -18.2434   22.9190 C.ar    1  UNL1        0.0115
      9 C         -11.2880  -18.8157   22.3741 C.ar    1  UNL1        0.0620
     10 CL        -10.9778  -20.2710   22.5639 Cl      1  UNL1       -0.0821
     11 C          -6.5902  -19.2667   21.4522 C.3     1  UNL1        0.0927
     12 C          -5.2017  -18.8361   21.8218 C.3     1  UNL1        0.0383
     13 C          -4.2332  -19.6734   21.0401 C.3     1  UNL1        0.0704
     14 N          -5.0232  -20.6214   20.1874 N.3     1  UNL1       -0.2960
     15 C          -6.4799  -20.3701   20.4421 C.3     1  UNL1        0.0887
     16 H          -4.7900  -21.5837   20.4323 H       1  UNL1        0.1233
     17 C          -7.9571  -18.3115   23.4445 C.3     1  UNL1        0.0936
     18 C          -7.9021  -16.8664   23.8430 C.3     1  UNL1        0.0199
     19 C          -8.7610  -15.9627   24.6770 C.3     1  UNL1        0.0017
     20 C          -7.8244  -14.8228   24.4064 C.3     1  UNL1        0.0001
     21 C          -6.9655  -15.7265   23.5724 C.3     1  UNL1        0.0017
@<TRIPOS>BOND
     1     1     2    2
     2     2     4    1
     3     4     5   ar
     4     5     6   ar
     5     6     7   ar
     6     7     8   ar
     7     8     9   ar
     8     9    10    1
     9     2     3   am
    10     3    17    1
    11    17    18    1
    12    18    19    1
    13    19    20    1
    14    20    21    1
    15    11     3    1
    16    11    12    1
    17    12    13    1
    18    13    14    1
    19    14    15    1
    20     9     4   ar
    21    21    18    1
    22    15    11    1
    23    14    16    1
@<TRIPOS>MOLECULE
*****
 21 23 0 0 0
SMALL
GASTEIGER

@<TRIPOS>ATOM
      1 O          -8.5124  -18.9895   19.1724 O.2     1  UNL1       -0.2699
      2 C          -8.7375  -18.5831   20.5987 C.2     1  UNL1        0.2498
      3 N          -7.6554  -18.7890   21.6169 N.am    1  UNL1       -0.2763
      4 C         -10.0445  -17.9706   21.0067 C.ar    1  UNL1        0.0641
      5 C         -10.1425  -16.4902   21.2282 C.ar    1  UNL1        0.0054
      6 C         -11.4495  -15.8778   21.6362 C.ar    1  UNL1        0.0002
      7 C         -12.6587  -16.7458   21.8227 C.ar    1  UNL1        0.0009
      8 C         -12.5607  -18.2260   21.6013 C.ar    1  UNL1        0.0115
      9 C         -11.2536  -18.8385   21.1933 C.ar    1  UNL1        0.0620
     10 CL        -11.1557  -20.3189   20.9718 Cl      1  UNL1       -0.0821
     11 C          -6.3484  -19.4014   21.2089 C.3     1  UNL1        0.0927
     12 C          -6.1746  -20.6062   20.3323 C.3     1  UNL1        0.0383
     13 C          -4.7044  -20.8660   20.1875 C.3     1  UNL1        0.0704
     14 N          -3.9695  -19.8218   20.9746 N.3     1  UNL1       -0.2960
     15 C          -4.9855  -18.9167   21.6058 C.3     1  UNL1        0.0887
     16 H          -3.3640  -19.2836   20.3549 H       1  UNL1        0.1233
     17 C          -7.8805  -18.3825   23.0432 C.3     1  UNL1        0.0936
     18 C          -8.9764  -19.0237   23.8418 C.3     1  UNL1        0.0199
     19 C          -9.4285  -20.4337   24.0815 C.3     1  UNL1        0.0017
     20 C         -10.5263  -19.9305   24.9712 C.3     1  UNL1        0.0001
     21 C         -10.0742  -18.5204   24.7315 C.3     1  UNL1        0.0017
@<TRIPOS>BOND
     1     1     2    2
     2     2     4    1
     3     4     5   ar
     4     5     6   ar
     5     6     7   ar
     6     7     8   ar
     7     8     9   ar
     8     9    10    1
     9     2     3   am
    10     3    17    1
    11    17    18    1
    12    18    19    1
    13    19    20    1
    14    20    21    1
    15    11     3    1
    16    11    12    1
    17    12    13    1
    18    13    14    1
    19    14    15    1
    20     9     4   ar
    21    21    18    1
    22    15    11    1
    23    14    16    1
@<TRIPOS>MOLECULE
*****
 21 23 0 0 0
SMALL
GASTEIGER

@<TRIPOS>ATOM
      1 O          -8.0035  -15.1475   21.4664 O.2     1  UNL1       -0.2699
      2 C          -8.2224  -15.9092   22.7400 C.2     1  UNL1        0.2498
      3 N          -9.4606  -16.7376   22.9151 N.am    1  UNL1       -0.2763
      4 C          -7.2032  -15.8425   23.8385 C.ar    1  UNL1        0.0641
      5 C          -5.7942  -16.2889   23.5823 C.ar    1  UNL1        0.0054
      6 C          -4.7749  -16.2221   24.6808 C.ar    1  UNL1        0.0002
      7 C          -5.1646  -15.7089   26.0354 C.ar    1  UNL1        0.0009
      8 C          -6.5735  -15.2625   26.2914 C.ar    1  UNL1        0.0115
      9 C          -7.5928  -15.3293   25.1930 C.ar    1  UNL1        0.0620
     10 CL         -9.0018  -14.8828   25.4491 Cl      1  UNL1       -0.0821
     11 C         -10.4798  -16.8044   21.8166 C.3     1  UNL1        0.0927
     12 C         -10.4153  -17.6883   20.6064 C.3     1  UNL1        0.0383
     13 C         -11.6382  -17.4292   19.7773 C.3     1  UNL1        0.0704
     14 N         -12.4586  -16.3851   20.4751 N.3     1  UNL1       -0.2960
     15 C         -11.7427  -15.9990   21.7354 C.3     1  UNL1        0.0887
     16 H         -13.3789  -16.7623   20.7014 H       1  UNL1        0.1233
     17 C          -9.6795  -17.4993   24.1887 C.3     1  UNL1        0.0936
     18 C          -9.5926  -18.9968   24.1914 C.3     1  UNL1        0.0199
     19 C          -8.8811  -20.0194   23.3560 C.3     1  UNL1        0.0017
     20 C          -9.4698  -21.1145   24.1952 C.3     1  UNL1        0.0001
     21 C         -10.1814  -20.0919   25.0305 C.3     1  UNL1        0.0017
@<TRIPOS>BOND
     1     1     2    2
     2     2     4    1
     3     4     5   ar
     4     5     6   ar
     5     6     7   ar
     6     7     8   ar
     7     8     9   ar
     8     9    10    1
     9     2     3   am
    10     3    17    1
    11    17    18    1
    12    18    19    1
    13    19    20    1
    14    20    21    1
    15    11     3    1
    16    11    12    1
    17    12    13    1
    18    13    14    1
    19    14    15    1
    20     9     4   ar
    21    21    18    1
    22    15    11    1
    23    14    16    1
