@<TRIPOS>MOLECULE
*****
 38 41 0 0 0
SMALL
GASTEIGER

@<TRIPOS>ATOM
      1 C          -2.0237    4.1694   21.0212 C.ar    1  UNL1        0.0289
      2 C          -1.0989    2.9899   20.9638 C.ar    1  UNL1        0.0145
      3 C           0.3084    3.1633   20.4745 C.ar    1  UNL1        0.0505
      4 C           0.7909    4.5162   20.0426 C.ar    1  UNL1        0.0170
      5 C          -0.1339    5.6959   20.0999 C.ar    1  UNL1        0.0306
      6 C          -1.5412    5.5224   20.5892 C.ar    1  UNL1        0.1380
      7 F          -2.4661    6.7020   20.6465 F       1  UNL1       -0.2044
      8 N          -3.9819    3.8694   17.5823 N.pl3   1  UNL1       -0.3380
      9 C          -4.2674    3.8538   19.0548 C.2     1  UNL1        0.1482
     10 N          -3.1456    4.0116   20.0380 N.2     1  UNL1       -0.2484
     11 C          -3.4311    3.9960   21.5105 C.3     1  UNL1        0.1352
     12 C          -2.3092    4.1538   22.4937 C.3     1  UNL1        0.1689
     13 O          -2.5947    4.1383   23.9662 O.3     1  UNL1       -0.3453
     14 C          -4.0020    3.9649   24.4555 C.3     1  UNL1        0.2098
     15 C          -5.1238    3.8071   23.4723 C.3     1  UNL1        0.0416
     16 C          -4.8383    3.8227   21.9998 C.3     1  UNL1        0.0410
     17 C          -5.9601    3.6649   21.0166 C.3     1  UNL1        0.0672
     18 S          -5.6746    3.6805   19.5441 S.3     1  UNL1       -0.0807
     19 H          -3.0582    3.9832   17.2611 H       1  UNL1        0.1442
     20 H          -4.7182    3.7659   16.9370 H       1  UNL1        0.1442
     21 C          -4.2875    3.9493   25.9280 C.3     1  UNL1        0.4221
     22 F          -4.5730    3.9337   27.4005 F       1  UNL1       -0.1675
     23 F          -2.8544    3.6015   26.2021 F       1  UNL1       -0.1675
     24 F          -5.7207    4.2971   25.6538 F       1  UNL1       -0.1675
     25 N           1.2332    1.9837   20.4172 N.am    1  UNL1       -0.2791
     26 C           1.2889    1.1336   19.1826 C.2     1  UNL1        0.2672
     27 O           0.4198    1.4630   18.0053 O.2     1  UNL1       -0.2682
     28 H           1.8037    1.7674   21.1899 H       1  UNL1        0.1552
     29 C           2.2137   -0.0460   19.1253 C.ar    1  UNL1        0.1350
     30 C           2.2602   -1.0187   20.2662 C.ar    1  UNL1        0.0269
     31 C           3.1850   -2.1983   20.2088 C.ar    1  UNL1        0.0404
     32 C           4.0633   -2.4052   19.0106 C.ar    1  UNL1        0.1634
     33 C           4.0168   -1.4325   17.8697 C.ar    1  UNL1        0.1359
     34 N           3.0920   -0.2529   17.9270 N.ar    1  UNL1       -0.2361
     35 O           4.9881   -3.5848   18.9533 O.3     1  UNL1       -0.4220
     36 C           4.4318   -4.9770   19.0005 C.3     1  UNL1        0.5087
     37 F           5.0549   -6.0621   18.1733 F       1  UNL1       -0.1550
     38 F           3.2523   -5.2841   19.8749 F       1  UNL1       -0.1550
@<TRIPOS>BOND
     1     8     9    1
     2     9    10    2
     3    10    11    1
     4    11     1    1
     5     1     2   ar
     6     2     3   ar
     7     3    25    1
     8    25    26   am
     9    26    27    2
    10    26    29    1
    11    29    30   ar
    12    30    31   ar
    13    31    32   ar
    14    32    35    1
    15    35    36    1
    16    36    37    1
    17    36    38    1
    18    32    33   ar
    19    33    34   ar
    20     3     4   ar
    21     4     5   ar
    22     5     6   ar
    23     6     7    1
    24    11    12    1
    25    12    13    1
    26    13    14    1
    27    14    21    1
    28    21    22    1
    29    21    23    1
    30    21    24    1
    31    14    15    1
    32    16    15    1
    33    16    17    1
    34    17    18    1
    35    18     9    1
    36    16    11    1
    37     6     1   ar
    38    34    29   ar
    39     8    19    1
    40     8    20    1
    41    25    28    1
@<TRIPOS>MOLECULE
*****
 38 41 0 0 0
SMALL
GASTEIGER

@<TRIPOS>ATOM
      1 C           2.6018    0.1920   20.6019 C.ar    1  UNL1        0.0289
      2 C           1.1665    0.5250   20.8829 C.ar    1  UNL1        0.0145
      3 C           0.5120    1.6765   20.1786 C.ar    1  UNL1        0.0505
      4 C           1.2929    2.4948   19.1935 C.ar    1  UNL1        0.0170
      5 C           2.7283    2.1618   18.9126 C.ar    1  UNL1        0.0306
      6 C           3.3827    1.0104   19.6168 C.ar    1  UNL1        0.1380
      7 F           4.8181    0.6773   19.3359 F       1  UNL1       -0.2044
      8 N           2.7856    1.5885   24.3122 N.pl3   1  UNL1       -0.3380
      9 C           3.1606    0.3554   23.5449 C.2     1  UNL1        0.1482
     10 N           2.8813    0.2737   22.0735 N.2     1  UNL1       -0.2484
     11 C           3.2563   -0.9594   21.3062 C.3     1  UNL1        0.1352
     12 C           2.9769   -1.0411   19.8346 C.3     1  UNL1        0.1689
     13 O           3.3520   -2.2742   19.0673 O.3     1  UNL1       -0.3453
     14 C           4.0065   -3.4257   19.7716 C.3     1  UNL1        0.2098
     15 C           4.2859   -3.3440   21.2430 C.3     1  UNL1        0.0416
     16 C           3.9108   -2.1108   22.0103 C.3     1  UNL1        0.0410
     17 C           4.1902   -2.0291   23.4818 C.3     1  UNL1        0.0672
     18 S           3.8151   -0.7960   24.2491 S.3     1  UNL1       -0.0807
     19 H           2.3560    2.3442   23.8500 H       1  UNL1        0.1442
     20 H           2.9689    1.6421   25.2780 H       1  UNL1        0.1442
     21 C           4.3816   -4.6588   19.0043 C.3     1  UNL1        0.4221
     22 F           4.7567   -5.8919   18.2370 F       1  UNL1       -0.1675
     23 F           3.3529   -5.4438   19.7630 F       1  UNL1       -0.1675
     24 F           5.4102   -3.8738   18.2456 F       1  UNL1       -0.1675
     25 N          -0.9233    2.0095   20.4596 N.am    1  UNL1       -0.2791
     26 C          -1.2689    3.2523   21.2251 C.2     1  UNL1        0.2672
     27 O          -0.1792    4.1621   21.7096 O.2     1  UNL1       -0.2682
     28 H          -1.6385    1.4124   20.1416 H       1  UNL1        0.1552
     29 C          -2.7042    3.5853   21.5060 C.ar    1  UNL1        0.1350
     30 C          -3.0460    4.6245   22.5323 C.ar    1  UNL1        0.0269
     31 C          -4.4814    4.9575   22.8132 C.ar    1  UNL1        0.0404
     32 C          -5.5749    4.2514   22.0679 C.ar    1  UNL1        0.1634
     33 C          -5.2331    3.2122   21.0416 C.ar    1  UNL1        0.1359
     34 N          -3.7978    2.8792   20.7606 N.ar    1  UNL1       -0.2361
     35 O          -7.0102    4.5844   22.3488 O.3     1  UNL1       -0.4220
     36 C          -7.5837    4.3396   23.7130 C.3     1  UNL1        0.5087
     37 F          -8.9979    3.8606   23.8571 F       1  UNL1       -0.1550
     38 F          -6.7432    4.5739   24.9331 F       1  UNL1       -0.1550
@<TRIPOS>BOND
     1     8     9    1
     2     9    10    2
     3    10    11    1
     4    11     1    1
     5     1     2   ar
     6     2     3   ar
     7     3    25    1
     8    25    26   am
     9    26    27    2
    10    26    29    1
    11    29    30   ar
    12    30    31   ar
    13    31    32   ar
    14    32    35    1
    15    35    36    1
    16    36    37    1
    17    36    38    1
    18    32    33   ar
    19    33    34   ar
    20     3     4   ar
    21     4     5   ar
    22     5     6   ar
    23     6     7    1
    24    11    12    1
    25    12    13    1
    26    13    14    1
    27    14    21    1
    28    21    22    1
    29    21    23    1
    30    21    24    1
    31    14    15    1
    32    16    15    1
    33    16    17    1
    34    17    18    1
    35    18     9    1
    36    16    11    1
    37     6     1   ar
    38    34    29   ar
    39     8    19    1
    40     8    20    1
    41    25    28    1
@<TRIPOS>MOLECULE
*****
 38 41 0 0 0
SMALL
GASTEIGER

@<TRIPOS>ATOM
      1 C           2.5955    0.6373   20.2926 C.ar    1  UNL1        0.0289
      2 C           2.3293    0.4732   21.7596 C.ar    1  UNL1        0.0145
      3 C           1.0613    1.0084   22.3563 C.ar    1  UNL1        0.0505
      4 C           0.0597    1.7077   21.4859 C.ar    1  UNL1        0.0170
      5 C           0.3259    1.8718   20.0188 C.ar    1  UNL1        0.0306
      6 C           1.5938    1.3366   19.4222 C.ar    1  UNL1        0.1380
      7 F           1.8601    1.5007   17.9551 F       1  UNL1       -0.2044
      8 N           4.6487    3.9917   19.7610 N.pl3   1  UNL1       -0.3380
      9 C           4.8095    2.5167   19.5404 C.2     1  UNL1        0.1482
     10 N           3.7026    1.5770   19.9165 N.2     1  UNL1       -0.2484
     11 C           3.8634    0.1021   19.6960 C.3     1  UNL1        0.1352
     12 C           2.7564   -0.8377   20.0721 C.3     1  UNL1        0.1689
     13 O           2.9172   -2.3126   19.8516 O.3     1  UNL1       -0.3453
     14 C           4.1852   -2.8478   19.2549 C.3     1  UNL1        0.2098
     15 C           5.2922   -1.9081   18.8788 C.3     1  UNL1        0.0416
     16 C           5.1313   -0.4332   19.0993 C.3     1  UNL1        0.0410
     17 C           6.2383    0.5065   18.7233 C.3     1  UNL1        0.0672
     18 S           6.0774    1.9815   18.9438 S.3     1  UNL1       -0.0807
     19 H           3.8165    4.3430   20.1526 H       1  UNL1        0.1442
     20 H           5.3752    4.6084   19.5141 H       1  UNL1        0.1442
     21 C           4.3461   -4.3228   19.0343 C.3     1  UNL1        0.4221
     22 F           4.5069   -5.7977   18.8138 F       1  UNL1       -0.1675
     23 F           2.8657   -4.4538   18.8308 F       1  UNL1       -0.1675
     24 F           5.8264   -4.1918   19.2379 F       1  UNL1       -0.1675
     25 N           0.7951    0.8443   23.8233 N.am    1  UNL1       -0.2791
     26 C           1.1935    1.9258   24.7834 C.2     1  UNL1        0.2672
     27 O           1.8580    3.1713   24.2765 O.2     1  UNL1       -0.2682
     28 H           0.3589    0.0268   24.1560 H       1  UNL1        0.1552
     29 C           0.9272    1.7617   26.2504 C.ar    1  UNL1        0.1350
     30 C          -0.4720    1.5267   26.7371 C.ar    1  UNL1        0.0269
     31 C          -0.7382    1.3626   28.2042 C.ar    1  UNL1        0.0404
     32 C           0.3948    1.4335   29.1845 C.ar    1  UNL1        0.1634
     33 C           1.7941    1.6685   28.6979 C.ar    1  UNL1        0.1359
     34 N           2.0603    1.8326   27.2309 N.ar    1  UNL1       -0.2361
     35 O           0.1286    1.2694   30.6515 O.3     1  UNL1       -0.4220
     36 C           0.6018    2.3117   31.6209 C.3     1  UNL1        0.5087
     37 F           1.2536    1.8989   32.9073 F       1  UNL1       -0.1550
     38 F           0.4232    3.7669   31.3038 F       1  UNL1       -0.1550
@<TRIPOS>BOND
     1     8     9    1
     2     9    10    2
     3    10    11    1
     4    11     1    1
     5     1     2   ar
     6     2     3   ar
     7     3    25    1
     8    25    26   am
     9    26    27    2
    10    26    29    1
    11    29    30   ar
    12    30    31   ar
    13    31    32   ar
    14    32    35    1
    15    35    36    1
    16    36    37    1
    17    36    38    1
    18    32    33   ar
    19    33    34   ar
    20     3     4   ar
    21     4     5   ar
    22     5     6   ar
    23     6     7    1
    24    11    12    1
    25    12    13    1
    26    13    14    1
    27    14    21    1
    28    21    22    1
    29    21    23    1
    30    21    24    1
    31    14    15    1
    32    16    15    1
    33    16    17    1
    34    17    18    1
    35    18     9    1
    36    16    11    1
    37     6     1   ar
    38    34    29   ar
    39     8    19    1
    40     8    20    1
    41    25    28    1
@<TRIPOS>MOLECULE
*****
 38 41 0 0 0
SMALL
GASTEIGER

@<TRIPOS>ATOM
      1 C           4.7643   -0.5695   19.0454 C.ar    1  UNL1        0.0289
      2 C           5.3927   -0.9351   20.3574 C.ar    1  UNL1        0.0145
      3 C           5.9083   -2.3260   20.5803 C.ar    1  UNL1        0.0505
      4 C           5.7954   -3.3513   19.4912 C.ar    1  UNL1        0.0170
      5 C           5.1670   -2.9856   18.1791 C.ar    1  UNL1        0.0306
      6 C           4.6514   -1.5948   17.9562 C.ar    1  UNL1        0.1380
      7 F           4.0230   -1.2291   16.6442 F       1  UNL1       -0.2044
      8 N           7.9325    1.1473   17.3825 N.pl3   1  UNL1       -0.3380
      9 C           6.5327    1.5023   17.7881 C.2     1  UNL1        0.1482
     10 N           5.6485    0.4664   18.4167 N.2     1  UNL1       -0.2484
     11 C           4.2487    0.8214   18.8224 C.3     1  UNL1        0.1352
     12 C           3.3645   -0.2146   19.4510 C.3     1  UNL1        0.1689
     13 O           1.9647    0.1404   19.8567 O.3     1  UNL1       -0.3453
     14 C           1.4491    1.5313   19.6338 C.3     1  UNL1        0.2098
     15 C           2.3333    2.5671   19.0052 C.3     1  UNL1        0.0416
     16 C           3.7331    2.2122   18.5995 C.3     1  UNL1        0.0410
     17 C           4.6173    3.2480   17.9709 C.3     1  UNL1        0.0672
     18 S           6.0171    2.8931   17.5652 S.3     1  UNL1       -0.0807
     19 H           8.2709    0.2344   17.5288 H       1  UNL1        0.1442
     20 H           8.5128    1.8272   16.9699 H       1  UNL1        0.1442
     21 C           0.0493    1.8863   20.0394 C.3     1  UNL1        0.4221
     22 F          -1.3505    2.2412   20.4451 F       1  UNL1       -0.1675
     23 F           0.2995    3.3140   19.6535 F       1  UNL1       -0.1675
     24 F          -0.2009    0.4585   20.4254 F       1  UNL1       -0.1675
     25 N           6.5367   -2.6917   21.8923 N.am    1  UNL1       -0.2791
     26 C           5.7359   -3.4208   22.9301 C.2     1  UNL1        0.2672
     27 O           4.3067   -3.7844   22.6560 O.2     1  UNL1       -0.2682
     28 H           7.4747   -2.4530   22.0723 H       1  UNL1        0.1552
     29 C           6.3643   -3.7864   24.2421 C.ar    1  UNL1        0.1350
     30 C           7.1495   -5.0582   24.3691 C.ar    1  UNL1        0.0269
     31 C           7.7779   -5.4238   25.6812 C.ar    1  UNL1        0.0404
     32 C           7.6211   -4.5176   26.8662 C.ar    1  UNL1        0.1634
     33 C           6.8360   -3.2459   26.7392 C.ar    1  UNL1        0.1359
     34 N           6.2076   -2.8802   25.4272 N.ar    1  UNL1       -0.2361
     35 O           8.2495   -4.8832   28.1782 O.3     1  UNL1       -0.4220
     36 C           7.7147   -6.0398   28.9696 C.3     1  UNL1        0.5087
     37 F           6.5239   -5.8511   29.8622 F       1  UNL1       -0.1550
     38 F           8.3704   -7.3850   28.8684 F       1  UNL1       -0.1550
@<TRIPOS>BOND
     1     8     9    1
     2     9    10    2
     3    10    11    1
     4    11     1    1
     5     1     2   ar
     6     2     3   ar
     7     3    25    1
     8    25    26   am
     9    26    27    2
    10    26    29    1
    11    29    30   ar
    12    30    31   ar
    13    31    32   ar
    14    32    35    1
    15    35    36    1
    16    36    37    1
    17    36    38    1
    18    32    33   ar
    19    33    34   ar
    20     3     4   ar
    21     4     5   ar
    22     5     6   ar
    23     6     7    1
    24    11    12    1
    25    12    13    1
    26    13    14    1
    27    14    21    1
    28    21    22    1
    29    21    23    1
    30    21    24    1
    31    14    15    1
    32    16    15    1
    33    16    17    1
    34    17    18    1
    35    18     9    1
    36    16    11    1
    37     6     1   ar
    38    34    29   ar
    39     8    19    1
    40     8    20    1
    41    25    28    1
@<TRIPOS>MOLECULE
*****
 38 41 0 0 0
SMALL
GASTEIGER

@<TRIPOS>ATOM
      1 C          -2.3705    4.4991   20.5441 C.ar    1  UNL1        0.0289
      2 C          -1.4862    3.2918   20.4428 C.ar    1  UNL1        0.0145
      3 C          -0.0376    3.3894   20.8200 C.ar    1  UNL1        0.0505
      4 C           0.5266    4.6943   21.2984 C.ar    1  UNL1        0.0170
      5 C          -0.3579    5.9017   21.3997 C.ar    1  UNL1        0.0306
      6 C          -1.8064    5.8040   21.0225 C.ar    1  UNL1        0.1380
      7 F          -2.6908    7.0114   21.1238 F       1  UNL1       -0.2044
      8 N          -2.0839    3.6928   16.6688 N.pl3   1  UNL1       -0.3380
      9 C          -3.1452    3.8965   17.7092 C.2     1  UNL1        0.1482
     10 N          -2.7579    4.1978   19.1266 N.2     1  UNL1       -0.2484
     11 C          -3.8191    4.4015   20.1669 C.3     1  UNL1        0.1352
     12 C          -3.4317    4.7028   21.5844 C.3     1  UNL1        0.1689
     13 O          -4.4929    4.9065   22.6248 O.3     1  UNL1       -0.3453
     14 C          -5.9415    4.8089   22.2476 C.3     1  UNL1        0.2098
     15 C          -6.3288    4.5076   20.8302 C.3     1  UNL1        0.0416
     16 C          -5.2676    4.3039   19.7898 C.3     1  UNL1        0.0410
     17 C          -5.6549    4.0027   18.3724 C.3     1  UNL1        0.0672
     18 S          -4.5937    3.7989   17.3321 S.3     1  UNL1       -0.0807
     19 H          -1.1332    3.7569   16.9163 H       1  UNL1        0.1442
     20 H          -2.3381    3.4951   15.7385 H       1  UNL1        0.1442
     21 C          -7.0027    5.0126   23.2880 C.3     1  UNL1        0.4221
     22 F          -8.0640    5.2163   24.3283 F       1  UNL1       -0.1675
     23 F          -7.6700    3.7405   22.8564 F       1  UNL1       -0.1675
     24 F          -6.3354    6.2848   23.7196 F       1  UNL1       -0.1675
     25 N           0.8468    2.1821   20.7187 N.am    1  UNL1       -0.2791
     26 C           1.1641    1.5954   19.3752 C.2     1  UNL1        0.2672
     27 O           0.5971    2.2160   18.1329 O.2     1  UNL1       -0.2682
     28 H           1.2189    1.7748   21.5341 H       1  UNL1        0.1552
     29 C           2.0485    0.3881   19.2740 C.ar    1  UNL1        0.1350
     30 C           2.8110    0.1209   18.0102 C.ar    1  UNL1        0.0269
     31 C           3.6954   -1.0865   17.9090 C.ar    1  UNL1        0.0404
     32 C           3.8172   -2.0266   19.0715 C.ar    1  UNL1        0.1634
     33 C           3.0546   -1.7593   20.3352 C.ar    1  UNL1        0.1359
     34 N           2.1703   -0.5520   20.4365 N.ar    1  UNL1       -0.2361
     35 O           4.7015   -3.2339   18.9702 O.3     1  UNL1       -0.4220
     36 C           4.0948   -4.5981   18.8259 C.3     1  UNL1        0.5087
     37 F           4.9691   -5.7802   18.5285 F       1  UNL1       -0.1550
     38 F           2.6138   -4.7802   18.9789 F       1  UNL1       -0.1550
@<TRIPOS>BOND
     1     8     9    1
     2     9    10    2
     3    10    11    1
     4    11     1    1
     5     1     2   ar
     6     2     3   ar
     7     3    25    1
     8    25    26   am
     9    26    27    2
    10    26    29    1
    11    29    30   ar
    12    30    31   ar
    13    31    32   ar
    14    32    35    1
    15    35    36    1
    16    36    37    1
    17    36    38    1
    18    32    33   ar
    19    33    34   ar
    20     3     4   ar
    21     4     5   ar
    22     5     6   ar
    23     6     7    1
    24    11    12    1
    25    12    13    1
    26    13    14    1
    27    14    21    1
    28    21    22    1
    29    21    23    1
    30    21    24    1
    31    14    15    1
    32    16    15    1
    33    16    17    1
    34    17    18    1
    35    18     9    1
    36    16    11    1
    37     6     1   ar
    38    34    29   ar
    39     8    19    1
    40     8    20    1
    41    25    28    1
@<TRIPOS>MOLECULE
*****
 38 41 0 0 0
SMALL
GASTEIGER

@<TRIPOS>ATOM
      1 C          -1.5317    4.0399   22.9293 C.ar    1  UNL1        0.0289
      2 C          -0.8000    2.8735   22.3344 C.ar    1  UNL1        0.0145
      3 C           0.6625    2.9865   22.0206 C.ar    1  UNL1        0.0505
      4 C           1.3932    4.2660   22.3018 C.ar    1  UNL1        0.0170
      5 C           0.6614    5.4324   22.8967 C.ar    1  UNL1        0.0306
      6 C          -0.8011    5.3193   23.2104 C.ar    1  UNL1        0.1380
      7 F          -1.5329    6.4858   23.8054 F       1  UNL1       -0.2044
      8 N          -1.4504    4.0472   26.8971 N.pl3   1  UNL1       -0.3380
      9 C          -2.4525    3.9694   25.7836 C.2     1  UNL1        0.1482
     10 N          -1.9922    4.0046   24.3565 N.2     1  UNL1       -0.2484
     11 C          -2.9943    3.9269   23.2431 C.3     1  UNL1        0.1352
     12 C          -2.5338    3.9621   21.8158 C.3     1  UNL1        0.1689
     13 O          -3.5359    3.8843   20.7024 O.3     1  UNL1       -0.3453
     14 C          -4.9985    3.7713   21.0162 C.3     1  UNL1        0.2098
     15 C          -5.4588    3.7361   22.4433 C.3     1  UNL1        0.0416
     16 C          -4.4567    3.8138   23.5568 C.3     1  UNL1        0.0410
     17 C          -4.9170    3.7786   24.9839 C.3     1  UNL1        0.0672
     18 S          -3.9149    3.8564   26.0974 S.3     1  UNL1       -0.0807
     19 H          -0.4905    4.1214   26.6912 H       1  UNL1        0.1442
     20 H          -1.7525    4.0241   27.8338 H       1  UNL1        0.1442
     21 C          -6.0006    3.6935   19.9027 C.3     1  UNL1        0.4221
     22 F          -7.0027    3.6157   18.7893 F       1  UNL1       -0.1675
     23 F          -4.9222    3.2402   18.9638 F       1  UNL1       -0.1675
     24 F          -7.0790    4.1468   20.8417 F       1  UNL1       -0.1675
     25 N           1.3943    1.8201   21.4257 N.am    1  UNL1       -0.2791
     26 C           1.9606    0.7557   22.3181 C.2     1  UNL1        0.2672
     27 O           1.7952    0.8578   23.8054 O.2     1  UNL1       -0.2682
     28 H           1.5028    1.7531   20.4495 H       1  UNL1        0.1552
     29 C           2.6924   -0.4107   21.7232 C.ar    1  UNL1        0.1350
     30 C           2.7193   -0.5995   20.2353 C.ar    1  UNL1        0.0269
     31 C           3.4511   -1.7660   19.6404 C.ar    1  UNL1        0.0404
     32 C           4.1559   -2.7436   20.5334 C.ar    1  UNL1        0.1634
     33 C           4.1290   -2.5549   22.0212 C.ar    1  UNL1        0.1359
     34 N           3.3972   -1.3885   22.6161 N.ar    1  UNL1       -0.2361
     35 O           4.8877   -3.9100   19.9385 O.3     1  UNL1       -0.4220
     36 C           4.1435   -4.9253   19.1227 C.3     1  UNL1        0.5087
     37 F           4.8794   -6.0789   18.5080 F       1  UNL1       -0.1550
     38 F           2.6636   -4.7870   18.9215 F       1  UNL1       -0.1550
@<TRIPOS>BOND
     1     8     9    1
     2     9    10    2
     3    10    11    1
     4    11     1    1
     5     1     2   ar
     6     2     3   ar
     7     3    25    1
     8    25    26   am
     9    26    27    2
    10    26    29    1
    11    29    30   ar
    12    30    31   ar
    13    31    32   ar
    14    32    35    1
    15    35    36    1
    16    36    37    1
    17    36    38    1
    18    32    33   ar
    19    33    34   ar
    20     3     4   ar
    21     4     5   ar
    22     5     6   ar
    23     6     7    1
    24    11    12    1
    25    12    13    1
    26    13    14    1
    27    14    21    1
    28    21    22    1
    29    21    23    1
    30    21    24    1
    31    14    15    1
    32    16    15    1
    33    16    17    1
    34    17    18    1
    35    18     9    1
    36    16    11    1
    37     6     1   ar
    38    34    29   ar
    39     8    19    1
    40     8    20    1
    41    25    28    1
@<TRIPOS>MOLECULE
*****
 38 41 0 0 0
SMALL
GASTEIGER

@<TRIPOS>ATOM
      1 C           3.1431    0.6196   20.1486 C.ar    1  UNL1        0.0289
      2 C           1.7091    1.0485   20.0502 C.ar    1  UNL1        0.0145
      3 C           1.3390    2.2447   19.2242 C.ar    1  UNL1        0.0505
      4 C           2.4030    3.0119   18.4965 C.ar    1  UNL1        0.0170
      5 C           3.8370    2.5829   18.5950 C.ar    1  UNL1        0.0306
      6 C           4.2070    1.3868   19.4210 C.ar    1  UNL1        0.1380
      7 F           5.6411    0.9578   19.5194 F       1  UNL1       -0.2044
      8 N           2.9532    2.1465   23.8068 N.pl3   1  UNL1       -0.3380
      9 C           3.2632    0.8401   23.1381 C.2     1  UNL1        0.1482
     10 N           3.2032    0.7298   21.6434 N.2     1  UNL1       -0.2484
     11 C           3.5132   -0.5766   20.9746 C.3     1  UNL1        0.1352
     12 C           3.4531   -0.6868   19.4798 C.3     1  UNL1        0.1689
     13 O           3.7631   -1.9932   18.8111 O.3     1  UNL1       -0.3453
     14 C           4.1332   -3.1894   19.6371 C.3     1  UNL1        0.2098
     15 C           4.1932   -3.0791   21.1318 C.3     1  UNL1        0.0416
     16 C           3.8832   -1.7727   21.8006 C.3     1  UNL1        0.0410
     17 C           3.9433   -1.6625   23.2953 C.3     1  UNL1        0.0672
     18 S           3.6333   -0.3561   23.9640 S.3     1  UNL1       -0.0807
     19 H           2.7103    2.9315   23.2647 H       1  UNL1        0.1442
     20 H           2.9926    2.2188   24.7879 H       1  UNL1        0.1442
     21 C           4.4432   -4.4958   18.9684 C.3     1  UNL1        0.4221
     22 F           4.7532   -5.8022   18.2996 F       1  UNL1       -0.1675
     23 F           5.3466   -3.7872   18.0031 F       1  UNL1       -0.1675
     24 F           3.5397   -5.2043   19.9337 F       1  UNL1       -0.1675
     25 N          -0.0949    2.6737   19.1258 N.am    1  UNL1       -0.2791
     26 C          -0.6336    3.7111   20.0657 C.2     1  UNL1        0.2672
     27 O           0.2616    4.3196   21.1041 O.2     1  UNL1       -0.2682
     28 H          -0.6825    2.2743   18.4443 H       1  UNL1        0.1552
     29 C          -2.0676    4.1400   19.9673 C.ar    1  UNL1        0.1350
     30 C          -3.1459    3.2993   20.5841 C.ar    1  UNL1        0.0269
     31 C          -4.5799    3.7283   20.4857 C.ar    1  UNL1        0.0404
     32 C          -4.9356    4.9980   19.7705 C.ar    1  UNL1        0.1634
     33 C          -3.8572    5.8387   19.1537 C.ar    1  UNL1        0.1359
     34 N          -2.4233    5.4097   19.2521 N.ar    1  UNL1       -0.2361
     35 O          -6.3695    5.4269   19.6721 O.3     1  UNL1       -0.4220
     36 C          -7.3610    4.5681   18.9445 C.3     1  UNL1        0.5087
     37 F          -8.7077    5.1204   18.5816 F       1  UNL1       -0.1550
     38 F          -7.0059    3.1571   18.5798 F       1  UNL1       -0.1550
@<TRIPOS>BOND
     1     8     9    1
     2     9    10    2
     3    10    11    1
     4    11     1    1
     5     1     2   ar
     6     2     3   ar
     7     3    25    1
     8    25    26   am
     9    26    27    2
    10    26    29    1
    11    29    30   ar
    12    30    31   ar
    13    31    32   ar
    14    32    35    1
    15    35    36    1
    16    36    37    1
    17    36    38    1
    18    32    33   ar
    19    33    34   ar
    20     3     4   ar
    21     4     5   ar
    22     5     6   ar
    23     6     7    1
    24    11    12    1
    25    12    13    1
    26    13    14    1
    27    14    21    1
    28    21    22    1
    29    21    23    1
    30    21    24    1
    31    14    15    1
    32    16    15    1
    33    16    17    1
    34    17    18    1
    35    18     9    1
    36    16    11    1
    37     6     1   ar
    38    34    29   ar
    39     8    19    1
    40     8    20    1
    41    25    28    1
@<TRIPOS>MOLECULE
*****
 38 41 0 0 0
SMALL
GASTEIGER

@<TRIPOS>ATOM
      1 C           2.7576    0.7603   20.9865 C.ar    1  UNL1        0.0289
      2 C           2.8299    0.2905   22.4091 C.ar    1  UNL1        0.0145
      3 C           1.7374    0.6472   23.3732 C.ar    1  UNL1        0.0505
      4 C           0.5727    1.4738   22.9146 C.ar    1  UNL1        0.0170
      5 C           0.5005    1.9436   21.4919 C.ar    1  UNL1        0.0306
      6 C           1.5929    1.5868   20.5278 C.ar    1  UNL1        0.1380
      7 F           1.5206    2.0566   19.1051 F       1  UNL1       -0.2044
      8 N           4.4391    4.3089   20.4118 N.pl3   1  UNL1       -0.3380
      9 C           4.6069    2.8882   19.9606 C.2     1  UNL1        0.1482
     10 N           3.6822    1.8243   20.4735 N.2     1  UNL1       -0.2484
     11 C           3.8500    0.4036   20.0224 C.3     1  UNL1        0.1352
     12 C           2.9253   -0.6604   20.5353 C.3     1  UNL1        0.1689
     13 O           3.0930   -2.0810   20.0842 O.3     1  UNL1       -0.3453
     14 C           4.1855   -2.4378   19.1201 C.3     1  UNL1        0.2098
     15 C           5.1101   -1.3738   18.6072 C.3     1  UNL1        0.0416
     16 C           4.9423    0.0468   19.0583 C.3     1  UNL1        0.0410
     17 C           5.8669    1.1108   18.5454 C.3     1  UNL1        0.0672
     18 S           5.6992    2.5314   18.9966 S.3     1  UNL1       -0.0807
     19 H           3.7221    4.5430   21.0445 H       1  UNL1        0.1442
     20 H           5.0460    5.0072   20.0751 H       1  UNL1        0.1442
     21 C           4.3532   -3.8584   18.6689 C.3     1  UNL1        0.4221
     22 F           4.5210   -5.2791   18.2177 F       1  UNL1       -0.1675
     23 F           5.6706   -3.5047   18.0448 F       1  UNL1       -0.1675
     24 F           3.0359   -4.2122   19.2929 F       1  UNL1       -0.1675
     25 N           1.8097    0.1774   24.7959 N.am    1  UNL1       -0.2791
     26 C           2.3261    1.0957   25.8637 C.2     1  UNL1        0.2672
     27 O           2.7702    2.4837   25.5088 O.2     1  UNL1       -0.2682
     28 H           1.5182   -0.7336   25.0289 H       1  UNL1        0.1552
     29 C           2.3984    0.6259   27.2863 C.ar    1  UNL1        0.1350
     30 C           1.3225    1.0097   28.2585 C.ar    1  UNL1        0.0269
     31 C           1.3949    0.5398   29.6813 C.ar    1  UNL1        0.0404
     32 C           2.5430   -0.3138   30.1317 C.ar    1  UNL1        0.1634
     33 C           3.6189   -0.6976   29.1595 C.ar    1  UNL1        0.1359
     34 N           3.5466   -0.2278   27.7369 N.ar    1  UNL1       -0.2361
     35 O           2.6153   -0.7836   31.5544 O.3     1  UNL1       -0.4220
     36 C           3.9490   -1.0069   32.2036 C.3     1  UNL1        0.5087
     37 F           4.5565   -2.3784   32.2166 F       1  UNL1       -0.1550
     38 F           4.6751    0.1411   32.8399 F       1  UNL1       -0.1550
@<TRIPOS>BOND
     1     8     9    1
     2     9    10    2
     3    10    11    1
     4    11     1    1
     5     1     2   ar
     6     2     3   ar
     7     3    25    1
     8    25    26   am
     9    26    27    2
    10    26    29    1
    11    29    30   ar
    12    30    31   ar
    13    31    32   ar
    14    32    35    1
    15    35    36    1
    16    36    37    1
    17    36    38    1
    18    32    33   ar
    19    33    34   ar
    20     3     4   ar
    21     4     5   ar
    22     5     6   ar
    23     6     7    1
    24    11    12    1
    25    12    13    1
    26    13    14    1
    27    14    21    1
    28    21    22    1
    29    21    23    1
    30    21    24    1
    31    14    15    1
    32    16    15    1
    33    16    17    1
    34    17    18    1
    35    18     9    1
    36    16    11    1
    37     6     1   ar
    38    34    29   ar
    39     8    19    1
    40     8    20    1
    41    25    28    1
@<TRIPOS>MOLECULE
*****
 38 41 0 0 0
SMALL
GASTEIGER

@<TRIPOS>ATOM
      1 C          -1.3548    3.5800   24.4452 C.ar    1  UNL1        0.0289
      2 C          -0.4303    2.9543   23.4434 C.ar    1  UNL1        0.0145
      3 C           0.4109    1.7751   23.8332 C.ar    1  UNL1        0.0505
      4 C           0.3275    1.2215   25.2248 C.ar    1  UNL1        0.0170
      5 C          -0.5971    1.8473   26.2267 C.ar    1  UNL1        0.0306
      6 C          -1.4382    3.0265   25.8369 C.ar    1  UNL1        0.1380
      7 F          -2.3628    3.6522   26.8388 F       1  UNL1       -0.2044
      8 N           1.3757    6.4592   24.3767 N.pl3   1  UNL1       -0.3380
      9 C          -0.0953    6.2856   24.1397 C.2     1  UNL1        0.1482
     10 N          -0.7250    4.9328   24.2925 N.2     1  UNL1       -0.2484
     11 C          -2.1960    4.7592   24.0555 C.3     1  UNL1        0.1352
     12 C          -2.8257    3.4064   24.2082 C.3     1  UNL1        0.1689
     13 O          -4.2967    3.2328   23.9712 O.3     1  UNL1       -0.3453
     14 C          -5.1379    4.4120   23.5814 C.3     1  UNL1        0.2098
     15 C          -4.5081    5.7648   23.4287 C.3     1  UNL1        0.0416
     16 C          -3.0372    5.9384   23.6657 C.3     1  UNL1        0.0410
     17 C          -2.4074    7.2912   23.5130 C.3     1  UNL1        0.0672
     18 S          -0.9364    7.4648   23.7500 S.3     1  UNL1       -0.0807
     19 H           1.9278    5.6853   24.6325 H       1  UNL1        0.1442
     20 H           1.7890    7.3471   24.2765 H       1  UNL1        0.1442
     21 C          -6.6088    4.2384   23.3444 C.3     1  UNL1        0.4221
     22 F          -8.0798    4.0648   23.1074 F       1  UNL1       -0.1675
     23 F          -6.3303    3.7998   21.9373 F       1  UNL1       -0.1675
     24 F          -6.8873    4.6771   24.7516 F       1  UNL1       -0.1675
     25 N           1.3354    1.1494   22.8313 N.am    1  UNL1       -0.2791
     26 C           0.8564    0.8775   21.4361 C.2     1  UNL1        0.2672
     27 O          -0.5472    1.2314   21.0427 O.2     1  UNL1       -0.2682
     28 H           2.2566    0.9171   23.0895 H       1  UNL1        0.1552
     29 C           1.7809    0.2519   20.4342 C.ar    1  UNL1        0.1350
     30 C           2.3475   -1.1138   20.6871 C.ar    1  UNL1        0.0269
     31 C           3.2721   -1.7395   19.6852 C.ar    1  UNL1        0.0404
     32 C           3.6300   -0.9995   18.4305 C.ar    1  UNL1        0.1634
     33 C           3.0633    0.3661   18.1776 C.ar    1  UNL1        0.1359
     34 N           2.1388    0.9918   19.1794 N.ar    1  UNL1       -0.2361
     35 O           4.5545   -1.6252   17.4286 O.3     1  UNL1       -0.4220
     36 C           5.5280   -2.6804   17.8631 C.3     1  UNL1        0.5087
     37 F           5.0361   -4.0486   18.2319 F       1  UNL1       -0.1550
     38 F           6.9935   -2.3674   17.9287 F       1  UNL1       -0.1550
@<TRIPOS>BOND
     1     8     9    1
     2     9    10    2
     3    10    11    1
     4    11     1    1
     5     1     2   ar
     6     2     3   ar
     7     3    25    1
     8    25    26   am
     9    26    27    2
    10    26    29    1
    11    29    30   ar
    12    30    31   ar
    13    31    32   ar
    14    32    35    1
    15    35    36    1
    16    36    37    1
    17    36    38    1
    18    32    33   ar
    19    33    34   ar
    20     3     4   ar
    21     4     5   ar
    22     5     6   ar
    23     6     7    1
    24    11    12    1
    25    12    13    1
    26    13    14    1
    27    14    21    1
    28    21    22    1
    29    21    23    1
    30    21    24    1
    31    14    15    1
    32    16    15    1
    33    16    17    1
    34    17    18    1
    35    18     9    1
    36    16    11    1
    37     6     1   ar
    38    34    29   ar
    39     8    19    1
    40     8    20    1
    41    25    28    1
