@<TRIPOS>MOLECULE
*****
 22 25 0 0 0
SMALL
GASTEIGER

@<TRIPOS>ATOM
      1 C          -3.7415  -17.5903   22.5535 C.3     1  UNL1        0.1119
      2 C          -4.5293  -18.7181   21.9557 C.ar    1  UNL1       -0.0002
      3 C          -5.7720  -19.4253   22.4090 C.ar    1  UNL1       -0.0024
      4 C          -6.3423  -20.5417   21.5854 C.ar    1  UNL1       -0.0003
      5 C          -5.6700  -20.9509   20.3085 C.ar    1  UNL1        0.0000
      6 C          -4.4273  -20.2437   19.8552 C.ar    1  UNL1        0.0012
      7 C          -3.8569  -19.1273   20.6788 C.ar    1  UNL1        0.0152
      8 C          -2.6536  -18.2524   20.4875 C.ar    1  UNL1        0.0804
      9 C          -1.4943  -17.9646   19.5801 C.ar    1  UNL1        0.1177
     10 N          -0.7065  -16.8368   20.1781 N.ar    1  UNL1       -0.2223
     11 C          -1.3789  -16.4276   21.4550 C.ar    1  UNL1        0.1788
     12 N          -2.5822  -17.3025   21.6462 N.ar    1  UNL1       -0.3069
     13 C          -4.0575  -16.8758   23.8340 C.3     1  UNL1        0.0564
     14 O          -4.7853  -14.6006   22.8121 O.3     1  UNL1       -0.3844
     15 C          -4.9773  -15.6908   23.8244 C.3     1  UNL1        0.1127
     16 H          -4.0289  -14.8161   22.2444 H       1  UNL1        0.2103
     17 C          -6.0889  -15.5960   24.8270 C.3     1  UNL1        0.0270
     18 C          -5.7733  -15.5143   26.2911 C.3     1  UNL1        0.0024
     19 C          -6.8849  -15.4195   27.2938 C.3     1  UNL1        0.0001
     20 C          -8.3121  -15.4065   26.8323 C.3     1  UNL1        0.0000
     21 C          -8.6277  -15.4883   25.3682 C.3     1  UNL1        0.0001
     22 C          -7.5161  -15.5831   24.3655 C.3     1  UNL1        0.0024
@<TRIPOS>BOND
     1    14    15    1
     2    15    13    1
     3    13     1    1
     4     1     2    1
     5     2     3   ar
     6     3     4   ar
     7     4     5   ar
     8     5     6   ar
     9     6     7   ar
    10     7     8    1
    11     8     9   ar
    12     9    10   ar
    13    10    11   ar
    14    11    12   ar
    15    15    17    1
    16    17    18    1
    17    18    19    1
    18    19    20    1
    19    20    21    1
    20    21    22    1
    21    12     1    1
    22    22    17    1
    23     7     2   ar
    24    12     8   ar
    25    14    16    1
@<TRIPOS>MOLECULE
*****
 22 25 0 0 0
SMALL
GASTEIGER

@<TRIPOS>ATOM
      1 C          -4.0804  -17.7801   22.5636 C.3     1  UNL1        0.1119
      2 C          -2.9664  -17.6277   21.5707 C.ar    1  UNL1       -0.0002
      3 C          -1.7595  -16.7375   21.5451 C.ar    1  UNL1       -0.0024
      4 C          -0.7991  -16.8090   20.3952 C.ar    1  UNL1       -0.0003
      5 C          -1.0456  -17.7708   19.2708 C.ar    1  UNL1        0.0000
      6 C          -2.2526  -18.6610   19.2964 C.ar    1  UNL1        0.0012
      7 C          -3.2130  -18.5895   20.4463 C.ar    1  UNL1        0.0152
      8 C          -4.4793  -19.3362   20.7444 C.ar    1  UNL1        0.0804
      9 C          -5.4143  -20.3922   20.2337 C.ar    1  UNL1        0.1177
     10 N          -6.5282  -20.5445   21.2267 N.ar    1  UNL1       -0.2223
     11 C          -6.2817  -19.5827   22.3510 C.ar    1  UNL1        0.1788
     12 N          -5.0154  -18.8360   22.0530 N.ar    1  UNL1       -0.3069
     13 C          -4.2326  -17.0114   23.8427 C.3     1  UNL1        0.0564
     14 O          -4.8722  -14.6833   22.8831 O.3     1  UNL1       -0.3844
     15 C          -5.0906  -15.7816   23.8811 C.3     1  UNL1        0.1127
     16 H          -4.1443  -14.9257   22.2896 H       1  UNL1        0.2103
     17 C          -6.1670  -15.6501   24.9175 C.3     1  UNL1        0.0270
     18 C          -7.6097  -15.6788   24.5081 C.3     1  UNL1        0.0024
     19 C          -8.6861  -15.5474   25.5446 C.3     1  UNL1        0.0001
     20 C          -8.3197  -15.3871   26.9903 C.3     1  UNL1        0.0000
     21 C          -6.8770  -15.3584   27.3996 C.3     1  UNL1        0.0001
     22 C          -5.8006  -15.4899   26.3632 C.3     1  UNL1        0.0024
@<TRIPOS>BOND
     1    14    15    1
     2    15    13    1
     3    13     1    1
     4     1     2    1
     5     2     3   ar
     6     3     4   ar
     7     4     5   ar
     8     5     6   ar
     9     6     7   ar
    10     7     8    1
    11     8     9   ar
    12     9    10   ar
    13    10    11   ar
    14    11    12   ar
    15    15    17    1
    16    17    18    1
    17    18    19    1
    18    19    20    1
    19    20    21    1
    20    21    22    1
    21    12     1    1
    22    22    17    1
    23     7     2   ar
    24    12     8   ar
    25    14    16    1
@<TRIPOS>MOLECULE
*****
 22 25 0 0 0
SMALL
GASTEIGER

@<TRIPOS>ATOM
      1 C          -9.9441  -16.9046   22.1084 C.3     1  UNL1        0.1119
      2 C         -10.9226  -17.5409   23.0506 C.ar    1  UNL1       -0.0002
      3 C         -10.7385  -18.2616   24.3531 C.ar    1  UNL1       -0.0024
      4 C         -11.9303  -18.8015   25.0866 C.ar    1  UNL1       -0.0003
      5 C         -13.3063  -18.6207   24.5175 C.ar    1  UNL1        0.0000
      6 C         -13.4905  -17.9000   23.2150 C.ar    1  UNL1        0.0012
      7 C         -12.2987  -17.3601   22.4815 C.ar    1  UNL1        0.0152
      8 C         -12.1706  -16.6120   21.1877 C.ar    1  UNL1        0.0804
      9 C         -12.9419  -16.0379   20.0363 C.ar    1  UNL1        0.1177
     10 N         -11.9633  -15.4016   19.0942 N.ar    1  UNL1       -0.2223
     11 C         -10.5873  -15.5824   19.6633 C.ar    1  UNL1        0.1788
     12 N         -10.7154  -16.3305   20.9571 N.ar    1  UNL1       -0.3069
     13 C          -8.4557  -16.8517   22.2864 C.3     1  UNL1        0.0564
     14 O          -7.5166  -14.4533   21.9455 O.3     1  UNL1       -0.3844
     15 C          -7.8104  -15.6177   22.8443 C.3     1  UNL1        0.1127
     16 H          -7.8041  -14.6611   21.0427 H       1  UNL1        0.2103
     17 C          -7.4590  -15.5482   24.3009 C.3     1  UNL1        0.0270
     18 C          -8.5447  -15.5626   25.3358 C.3     1  UNL1        0.0024
     19 C          -8.1934  -15.4931   26.7924 C.3     1  UNL1        0.0001
     20 C          -6.7563  -15.4093   27.2140 C.3     1  UNL1        0.0000
     21 C          -5.6706  -15.3949   26.1792 C.3     1  UNL1        0.0001
     22 C          -6.0220  -15.4643   24.7226 C.3     1  UNL1        0.0024
@<TRIPOS>BOND
     1    14    15    1
     2    15    13    1
     3    13     1    1
     4     1     2    1
     5     2     3   ar
     6     3     4   ar
     7     4     5   ar
     8     5     6   ar
     9     6     7   ar
    10     7     8    1
    11     8     9   ar
    12     9    10   ar
    13    10    11   ar
    14    11    12   ar
    15    15    17    1
    16    17    18    1
    17    18    19    1
    18    19    20    1
    19    20    21    1
    20    21    22    1
    21    12     1    1
    22    22    17    1
    23     7     2   ar
    24    12     8   ar
    25    14    16    1
@<TRIPOS>MOLECULE
*****
 22 25 0 0 0
SMALL
GASTEIGER

@<TRIPOS>ATOM
      1 C          -8.2724  -18.0378   21.8198 C.3     1  UNL1        0.1119
      2 C          -6.8601  -18.5404   21.7656 C.ar    1  UNL1       -0.0002
      3 C          -5.6612  -18.2593   22.6220 C.ar    1  UNL1       -0.0024
      4 C          -4.3509  -18.9236   22.3192 C.ar    1  UNL1       -0.0003
      5 C          -4.2395  -19.8690   21.1600 C.ar    1  UNL1        0.0000
      6 C          -5.4384  -20.1501   20.3036 C.ar    1  UNL1        0.0012
      7 C          -6.7487  -19.4858   20.6064 C.ar    1  UNL1        0.0152
      8 C          -8.0922  -19.5674   19.9441 C.ar    1  UNL1        0.0804
      9 C          -8.8536  -20.2022   18.8183 C.ar    1  UNL1        0.1177
     10 N         -10.2659  -19.6996   18.8726 N.ar    1  UNL1       -0.2223
     11 C         -10.3773  -18.7542   20.0319 C.ar    1  UNL1        0.1788
     12 N          -9.0339  -18.6725   20.6941 N.ar    1  UNL1       -0.3069
     13 C          -8.8260  -17.0703   22.8236 C.3     1  UNL1        0.0564
     14 O          -7.7670  -14.8022   22.1275 O.3     1  UNL1       -0.3844
     15 C          -8.0544  -15.8337   23.1780 C.3     1  UNL1        0.1127
     16 H          -8.1470  -15.0873   21.2819 H       1  UNL1        0.2103
     17 C          -7.5703  -15.6286   24.5828 C.3     1  UNL1        0.0270
     18 C          -8.5414  -15.6755   25.7250 C.3     1  UNL1        0.0024
     19 C          -8.0573  -15.4705   27.1299 C.3     1  UNL1        0.0001
     20 C          -6.6021  -15.2184   27.3924 C.3     1  UNL1        0.0000
     21 C          -5.6310  -15.1715   26.2502 C.3     1  UNL1        0.0001
     22 C          -6.1151  -15.3765   24.8454 C.3     1  UNL1        0.0024
@<TRIPOS>BOND
     1    14    15    1
     2    15    13    1
     3    13     1    1
     4     1     2    1
     5     2     3   ar
     6     3     4   ar
     7     4     5   ar
     8     5     6   ar
     9     6     7   ar
    10     7     8    1
    11     8     9   ar
    12     9    10   ar
    13    10    11   ar
    14    11    12   ar
    15    15    17    1
    16    17    18    1
    17    18    19    1
    18    19    20    1
    19    20    21    1
    20    21    22    1
    21    12     1    1
    22    22    17    1
    23     7     2   ar
    24    12     8   ar
    25    14    16    1
@<TRIPOS>MOLECULE
*****
 22 25 0 0 0
SMALL
GASTEIGER

@<TRIPOS>ATOM
      1 C          -8.5695  -17.8460   21.8406 C.3     1  UNL1        0.1119
      2 C         -10.0181  -17.5195   22.0523 C.ar    1  UNL1       -0.0002
      3 C         -10.7136  -16.6405   23.0492 C.ar    1  UNL1       -0.0024
      4 C         -12.2071  -16.5059   23.0170 C.ar    1  UNL1       -0.0003
      5 C         -13.0053  -17.2503   21.9880 C.ar    1  UNL1        0.0000
      6 C         -12.3099  -18.1293   20.9912 C.ar    1  UNL1        0.0012
      7 C         -10.8163  -18.2639   21.0233 C.ar    1  UNL1        0.0152
      8 C          -9.8609  -19.0505   20.1757 C.ar    1  UNL1        0.0804
      9 C          -9.7638  -19.9967   19.0158 C.ar    1  UNL1        0.1177
     10 N          -8.3151  -20.3232   18.8041 N.ar    1  UNL1       -0.2223
     11 C          -7.5169  -19.5788   19.8331 C.ar    1  UNL1        0.1788
     12 N          -8.4723  -18.7922   20.6808 N.ar    1  UNL1       -0.3069
     13 C          -7.4199  -17.3189   22.6472 C.3     1  UNL1        0.0564
     14 O          -7.6768  -14.7681   22.2254 O.3     1  UNL1       -0.3844
     15 C          -7.4518  -15.9127   23.1685 C.3     1  UNL1        0.1127
     16 H          -7.7820  -15.1085   21.3232 H       1  UNL1        0.2103
     17 C          -7.2587  -15.6511   24.6328 C.3     1  UNL1        0.0270
     18 C          -5.8851  -15.3818   25.1718 C.3     1  UNL1        0.0024
     19 C          -5.6920  -15.1202   26.6361 C.3     1  UNL1        0.0001
     20 C          -6.8725  -15.1280   27.5614 C.3     1  UNL1        0.0000
     21 C          -8.2462  -15.3974   27.0225 C.3     1  UNL1        0.0001
     22 C          -8.4393  -15.6589   25.5582 C.3     1  UNL1        0.0024
@<TRIPOS>BOND
     1    14    15    1
     2    15    13    1
     3    13     1    1
     4     1     2    1
     5     2     3   ar
     6     3     4   ar
     7     4     5   ar
     8     5     6   ar
     9     6     7   ar
    10     7     8    1
    11     8     9   ar
    12     9    10   ar
    13    10    11   ar
    14    11    12   ar
    15    15    17    1
    16    17    18    1
    17    18    19    1
    18    19    20    1
    19    20    21    1
    20    21    22    1
    21    12     1    1
    22    22    17    1
    23     7     2   ar
    24    12     8   ar
    25    14    16    1
@<TRIPOS>MOLECULE
*****
 22 25 0 0 0
SMALL
GASTEIGER

@<TRIPOS>ATOM
      1 C          -7.7333  -18.1722   22.5492 C.3     1  UNL1        0.1119
      2 C          -9.2289  -18.0695   22.4980 C.ar    1  UNL1       -0.0002
      3 C         -10.2781  -18.9747   21.9237 C.ar    1  UNL1       -0.0024
      4 C         -11.7274  -18.6017   22.0247 C.ar    1  UNL1       -0.0003
      5 C         -12.1276  -17.3235   22.7001 C.ar    1  UNL1        0.0000
      6 C         -11.0784  -16.4183   23.2744 C.ar    1  UNL1        0.0012
      7 C          -9.6291  -16.7913   23.1734 C.ar    1  UNL1        0.0152
      8 C          -8.3808  -16.1041   23.6420 C.ar    1  UNL1        0.0804
      9 C          -7.8567  -14.8894   24.3490 C.ar    1  UNL1        0.1177
     10 N          -6.3611  -14.9922   24.4002 N.ar    1  UNL1       -0.2223
     11 C          -5.9609  -16.2704   23.7248 C.ar    1  UNL1        0.1788
     12 N          -7.2091  -16.9576   23.2562 N.ar    1  UNL1       -0.3069
     13 C          -6.9070  -19.2929   21.9914 C.3     1  UNL1        0.0564
     14 O          -6.9979  -18.9878   19.4128 O.3     1  UNL1       -0.3844
     15 C          -6.2030  -19.1238   20.6776 C.3     1  UNL1        0.1127
     16 H          -7.9446  -19.0298   19.6198 H       1  UNL1        0.2103
     17 C          -4.7041  -19.0905   20.6287 C.3     1  UNL1        0.0270
     18 C          -4.0033  -18.7293   19.3526 C.3     1  UNL1        0.0024
     19 C          -2.5045  -18.6961   19.3037 C.3     1  UNL1        0.0001
     20 C          -1.7065  -19.0240   20.5308 C.3     1  UNL1        0.0000
     21 C          -2.4074  -19.3851   21.8069 C.3     1  UNL1        0.0001
     22 C          -3.9062  -19.4184   21.8558 C.3     1  UNL1        0.0024
@<TRIPOS>BOND
     1    14    15    1
     2    15    13    1
     3    13     1    1
     4     1     2    1
     5     2     3   ar
     6     3     4   ar
     7     4     5   ar
     8     5     6   ar
     9     6     7   ar
    10     7     8    1
    11     8     9   ar
    12     9    10   ar
    13    10    11   ar
    14    11    12   ar
    15    15    17    1
    16    17    18    1
    17    18    19    1
    18    19    20    1
    19    20    21    1
    20    21    22    1
    21    12     1    1
    22    22    17    1
    23     7     2   ar
    24    12     8   ar
    25    14    16    1
@<TRIPOS>MOLECULE
*****
 22 25 0 0 0
SMALL
GASTEIGER

@<TRIPOS>ATOM
      1 C          -7.3526  -18.4004   22.0790 C.3     1  UNL1        0.1119
      2 C          -5.9629  -18.8861   21.7913 C.ar    1  UNL1       -0.0002
      3 C          -4.6652  -18.7054   22.5216 C.ar    1  UNL1       -0.0024
      4 C          -3.4088  -19.3219   21.9819 C.ar    1  UNL1       -0.0003
      5 C          -3.4500  -20.1192   20.7120 C.ar    1  UNL1        0.0000
      6 C          -4.7477  -20.2999   19.9817 C.ar    1  UNL1        0.0012
      7 C          -6.0041  -19.6833   20.5213 C.ar    1  UNL1        0.0152
      8 C          -7.4193  -19.6904   20.0242 C.ar    1  UNL1        0.0804
      9 C          -8.3195  -20.1875   18.9321 C.ar    1  UNL1        0.1177
     10 N          -9.7092  -19.7017   19.2199 N.ar    1  UNL1       -0.2223
     11 C          -9.6680  -18.9045   20.4898 C.ar    1  UNL1        0.1788
     12 N          -8.2527  -18.8975   20.9869 N.ar    1  UNL1       -0.3069
     13 C          -7.7690  -17.5644   23.2527 C.3     1  UNL1        0.0564
     14 O          -8.4964  -15.1074   22.8234 O.3     1  UNL1       -0.3844
     15 C          -8.8524  -16.5387   23.0963 C.3     1  UNL1        0.1127
     16 H          -7.5316  -15.0171   22.7787 H       1  UNL1        0.2103
     17 C         -10.2918  -16.9445   23.2128 C.3     1  UNL1        0.0270
     18 C         -11.3452  -16.1994   22.4479 C.3     1  UNL1        0.0024
     19 C         -12.7846  -16.6051   22.5644 C.3     1  UNL1        0.0001
     20 C         -13.1705  -17.7559   23.4458 C.3     1  UNL1        0.0000
     21 C         -12.1171  -18.5009   24.2107 C.3     1  UNL1        0.0001
     22 C         -10.6777  -18.0952   24.0942 C.3     1  UNL1        0.0024
@<TRIPOS>BOND
     1    14    15    1
     2    15    13    1
     3    13     1    1
     4     1     2    1
     5     2     3   ar
     6     3     4   ar
     7     4     5   ar
     8     5     6   ar
     9     6     7   ar
    10     7     8    1
    11     8     9   ar
    12     9    10   ar
    13    10    11   ar
    14    11    12   ar
    15    15    17    1
    16    17    18    1
    17    18    19    1
    18    19    20    1
    19    20    21    1
    20    21    22    1
    21    12     1    1
    22    22    17    1
    23     7     2   ar
    24    12     8   ar
    25    14    16    1
@<TRIPOS>MOLECULE
*****
 22 25 0 0 0
SMALL
GASTEIGER

@<TRIPOS>ATOM
      1 C          -6.5842  -18.5776   22.3954 C.3     1  UNL1        0.1119
      2 C          -5.1058  -18.7566   22.2160 C.ar    1  UNL1       -0.0002
      3 C          -4.2983  -19.8318   21.5513 C.ar    1  UNL1       -0.0024
      4 C          -2.8014  -19.7395   21.5281 C.ar    1  UNL1       -0.0003
      5 C          -2.1119  -18.5720   22.1696 C.ar    1  UNL1        0.0000
      6 C          -2.9194  -17.4968   22.8343 C.ar    1  UNL1        0.0012
      7 C          -4.4163  -17.5891   22.8575 C.ar    1  UNL1        0.0152
      8 C          -5.4687  -16.6886   23.4334 C.ar    1  UNL1        0.0804
      9 C          -5.6929  -15.4104   24.1859 C.ar    1  UNL1        0.1177
     10 N          -7.1714  -15.2315   24.3653 N.ar    1  UNL1       -0.2223
     11 C          -7.8609  -16.3990   23.7238 C.ar    1  UNL1        0.1788
     12 N          -6.8085  -17.2995   23.1478 N.ar    1  UNL1       -0.3069
     13 C          -7.6511  -19.5126   21.9080 C.3     1  UNL1        0.0564
     14 O          -8.4524  -18.9212   19.5083 O.3     1  UNL1       -0.3844
     15 C          -8.7199  -19.0133   20.9814 C.3     1  UNL1        0.1127
     16 H          -7.5482  -19.2204   19.3246 H       1  UNL1        0.2103
     17 C         -10.0561  -18.6062   21.5280 C.3     1  UNL1        0.0270
     18 C         -10.4331  -18.9680   22.9340 C.3     1  UNL1        0.0024
     19 C         -11.7693  -18.5608   23.4806 C.3     1  UNL1        0.0001
     20 C         -12.7285  -17.7919   22.6211 C.3     1  UNL1        0.0000
     21 C         -12.3516  -17.4301   21.2151 C.3     1  UNL1        0.0001
     22 C         -11.0153  -17.8373   20.6685 C.3     1  UNL1        0.0024
@<TRIPOS>BOND
     1    14    15    1
     2    15    13    1
     3    13     1    1
     4     1     2    1
     5     2     3   ar
     6     3     4   ar
     7     4     5   ar
     8     5     6   ar
     9     6     7   ar
    10     7     8    1
    11     8     9   ar
    12     9    10   ar
    13    10    11   ar
    14    11    12   ar
    15    15    17    1
    16    17    18    1
    17    18    19    1
    18    19    20    1
    19    20    21    1
    20    21    22    1
    21    12     1    1
    22    22    17    1
    23     7     2   ar
    24    12     8   ar
    25    14    16    1
@<TRIPOS>MOLECULE
*****
 22 25 0 0 0
SMALL
GASTEIGER

@<TRIPOS>ATOM
      1 C          -8.1682  -17.9635   21.8987 C.3     1  UNL1        0.1119
      2 C          -7.7725  -17.0445   23.0163 C.ar    1  UNL1       -0.0002
      3 C          -6.4359  -16.5481   23.4820 C.ar    1  UNL1       -0.0024
      4 C          -6.3488  -15.6161   24.6540 C.ar    1  UNL1       -0.0003
      5 C          -7.5983  -15.1805   25.3604 C.ar    1  UNL1        0.0000
      6 C          -8.9349  -15.6769   24.8947 C.ar    1  UNL1        0.0012
      7 C          -9.0220  -16.6090   23.7226 C.ar    1  UNL1        0.0152
      8 C         -10.1899  -17.2587   23.0416 C.ar    1  UNL1        0.0804
      9 C         -11.6841  -17.3911   23.0573 C.ar    1  UNL1        0.1177
     10 N         -12.0797  -18.3101   21.9397 N.ar    1  UNL1       -0.2223
     11 C         -10.8302  -18.7457   21.2334 C.ar    1  UNL1        0.1788
     12 N          -9.6623  -18.0959   21.9144 N.ar    1  UNL1       -0.3069
     13 C          -7.2338  -18.6326   20.9348 C.3     1  UNL1        0.0564
     14 O          -6.5412  -20.7674   22.2437 O.3     1  UNL1       -0.3844
     15 C          -6.1662  -19.5556   21.4432 C.3     1  UNL1        0.1127
     16 H          -7.5057  -20.8055   22.3401 H       1  UNL1        0.2103
     17 C          -4.7235  -19.2667   21.1511 C.3     1  UNL1        0.0270
     18 C          -3.7425  -19.1325   22.2778 C.3     1  UNL1        0.0024
     19 C          -2.2999  -18.8436   21.9857 C.3     1  UNL1        0.0001
     20 C          -1.8383  -18.6889   20.5669 C.3     1  UNL1        0.0000
     21 C          -2.8193  -18.8230   19.4402 C.3     1  UNL1        0.0001
     22 C          -4.2620  -19.1119   19.7323 C.3     1  UNL1        0.0024
@<TRIPOS>BOND
     1    14    15    1
     2    15    13    1
     3    13     1    1
     4     1     2    1
     5     2     3   ar
     6     3     4   ar
     7     4     5   ar
     8     5     6   ar
     9     6     7   ar
    10     7     8    1
    11     8     9   ar
    12     9    10   ar
    13    10    11   ar
    14    11    12   ar
    15    15    17    1
    16    17    18    1
    17    18    19    1
    18    19    20    1
    19    20    21    1
    20    21    22    1
    21    12     1    1
    22    22    17    1
    23     7     2   ar
    24    12     8   ar
    25    14    16    1
