@<TRIPOS>MOLECULE
*****
 43 46 0 0 0
SMALL
GASTEIGER

@<TRIPOS>ATOM
      1 C           1.8143    4.3488   18.5400 C.2     1  UNL1        0.2253
      2 O           2.2666    5.7487   18.2477 O.2     1  UNL1       -0.2749
      3 N           2.7836    3.2093   18.4308 N.am    1  UNL1       -0.2787
      4 C           4.2287    3.3150   18.0426 C.3     1  UNL1        0.1028
      5 C           4.8162    1.9350   18.0625 C.3     1  UNL1        0.1021
      6 C           3.7342    0.9763   18.4630 C.3     1  UNL1        0.0521
      7 C           2.4781    1.7638   18.6906 C.3     1  UNL1        0.0982
      8 C          -4.9843    3.5544   19.1702 C.3     1  UNL1        0.0948
      9 C          -3.8722    3.3069   20.1457 C.2     1  UNL1        0.2261
     10 O          -4.1816    2.7990   21.5227 O.2     1  UNL1       -0.2749
     11 N          -2.4505    3.5674   19.7443 N.am    1  UNL1       -0.2795
     12 C          -2.1411    4.0753   18.3673 C.3     1  UNL1        0.0939
     13 C          -0.7195    4.3358   17.9658 C.3     1  UNL1        0.0306
     14 C           0.3927    4.0883   18.9414 C.3     1  UNL1        0.0801
     15 C           0.0833    3.5804   20.3184 C.3     1  UNL1        0.0306
     16 C          -1.3384    3.3199   20.7199 C.3     1  UNL1        0.0939
     17 C           3.8825   -0.5090   18.6101 C.ar    1  UNL1       -0.0241
     18 C           4.8726   -1.2515   17.7625 C.ar    1  UNL1       -0.0022
     19 C           5.0209   -2.7369   17.9095 C.ar    1  UNL1        0.0293
     20 C           4.1789   -3.4799   18.9042 C.ar    1  UNL1        0.1398
     21 F           4.3272   -4.9653   19.0513 F       1  UNL1       -0.2042
     22 C           3.1888   -2.7374   19.7517 C.ar    1  UNL1        0.0251
     23 C           3.0406   -1.2519   19.6046 C.ar    1  UNL1       -0.0235
     24 C           2.0504   -0.5095   20.4522 C.3     1  UNL1        0.0308
     25 C           6.2363    1.5766   17.7387 C.2     1  UNL1        0.2275
     26 O           6.6771    1.4762   16.3086 O.2     1  UNL1       -0.2748
     27 N           7.2156    1.3185   18.8453 N.am    1  UNL1       -0.2736
     28 C           8.6357    0.9601   18.5215 C.3     1  UNL1        0.1152
     29 C           6.7748    1.4189   20.2755 C.3     1  UNL1        0.1202
     30 C           6.3508    0.1864   21.0179 C.ar    1  UNL1       -0.0024
     31 C           5.3047    0.2787   22.0890 C.ar    1  UNL1        0.0012
     32 C           4.8809   -0.9539   22.8314 C.ar    1  UNL1        0.0711
     33 C           5.5029   -2.2787   22.5027 C.ar    1  UNL1        0.0077
     34 C           6.5490   -2.3709   21.4317 C.ar    1  UNL1        0.0711
     35 C           6.9729   -1.1383   20.6893 C.ar    1  UNL1        0.0012
     36 C           3.8348   -0.8617   23.9025 C.3     1  UNL1        0.4186
     37 F           2.7887   -0.7694   24.9736 F       1  UNL1       -0.1659
     38 F           3.4112    0.4765   23.3736 F       1  UNL1       -0.1659
     39 F           4.2584   -2.1999   24.4315 F       1  UNL1       -0.1659
     40 C           7.1711   -3.6956   21.1029 C.3     1  UNL1        0.4186
     41 F           7.7932   -5.0203   20.7743 F       1  UNL1       -0.1659
     42 F           6.6435   -4.2621   22.3878 F       1  UNL1       -0.1659
     43 F           7.6987   -3.1291   19.8181 F       1  UNL1       -0.1659
@<TRIPOS>BOND
     1     8     9    1
     2     9    10    2
     3     9    11   am
     4    11    12    1
     5    12    13    1
     6    13    14    1
     7    14     1    1
     8     1     2    2
     9     1     3   am
    10     3     4    1
    11     4     5    1
    12     5    25    1
    13    25    26    2
    14    25    27   am
    15    27    28    1
    16    27    29    1
    17    29    30    1
    18    30    31   ar
    19    31    32   ar
    20    32    36    1
    21    36    37    1
    22    36    38    1
    23    36    39    1
    24    32    33   ar
    25    33    34   ar
    26    34    40    1
    27    40    41    1
    28    40    42    1
    29    40    43    1
    30    34    35   ar
    31     5     6    1
    32     6    17    1
    33    17    18   ar
    34    18    19   ar
    35    19    20   ar
    36    20    21    1
    37    20    22   ar
    38    22    23   ar
    39    23    24    1
    40     6     7    1
    41    14    15    1
    42    15    16    1
    43    16    11    1
    44     7     3    1
    45    35    30   ar
    46    23    17   ar
@<TRIPOS>MOLECULE
*****
 43 46 0 0 0
SMALL
GASTEIGER

@<TRIPOS>ATOM
      1 C           1.8669    4.3194   18.4484 C.2     1  UNL1        0.2253
      2 O           2.3248    5.7137   18.1378 O.2     1  UNL1       -0.2749
      3 N           2.8326    3.1753   18.3578 N.am    1  UNL1       -0.2787
      4 C           4.2791    3.2708   17.9722 C.3     1  UNL1        0.1028
      5 C           4.8619    1.8891   18.0130 C.3     1  UNL1        0.1021
      6 C           3.7756    0.9398   18.4239 C.3     1  UNL1        0.0521
      7 C           2.5215    1.7346   18.6370 C.3     1  UNL1        0.0982
      8 C          -4.9383    3.5855   19.0808 C.3     1  UNL1        0.0948
      9 C          -3.8274    3.3193   20.0528 C.2     1  UNL1        0.2261
     10 O          -4.1401    2.8030   21.4260 O.2     1  UNL1       -0.2749
     11 N          -2.4038    3.5693   19.6517 N.am    1  UNL1       -0.2795
     12 C          -2.0912    4.0856   18.2785 C.3     1  UNL1        0.0939
     13 C          -0.6676    4.3356   17.8774 C.3     1  UNL1        0.0306
     14 C           0.4433    4.0694   18.8495 C.3     1  UNL1        0.0801
     15 C           0.1307    3.5531   20.2227 C.3     1  UNL1        0.0306
     16 C          -1.2929    3.3031   20.6238 C.3     1  UNL1        0.0939
     17 C           3.9183   -0.5438   18.5921 C.ar    1  UNL1       -0.0241
     18 C           4.9276   -1.2973   17.7775 C.ar    1  UNL1       -0.0022
     19 C           5.0705   -2.7810   17.9457 C.ar    1  UNL1        0.0293
     20 C           4.2039   -3.5112   18.9286 C.ar    1  UNL1        0.1398
     21 F           4.3467   -4.9949   19.0968 F       1  UNL1       -0.2042
     22 C           3.1946   -2.7577   19.7432 C.ar    1  UNL1        0.0251
     23 C           3.0518   -1.2740   19.5750 C.ar    1  UNL1       -0.0235
     24 C           2.0426   -0.5206   20.3896 C.3     1  UNL1        0.0308
     25 C           6.2816    1.5214   17.6982 C.2     1  UNL1        0.2275
     26 O           6.7238    1.3912   16.2709 O.2     1  UNL1       -0.2748
     27 N           7.2592    1.2840   18.8109 N.am    1  UNL1       -0.2736
     28 C           8.6789    0.9163   18.4961 C.3     1  UNL1        0.1152
     29 C           6.8170    1.4142   20.2383 C.3     1  UNL1        0.1202
     30 C           6.3681    0.2013   20.9981 C.ar    1  UNL1       -0.0024
     31 C           6.9902   -1.1339   20.7148 C.ar    1  UNL1        0.0012
     32 C           6.5412   -2.3468   21.4747 C.ar    1  UNL1        0.0711
     33 C           5.4702   -2.2245   22.5177 C.ar    1  UNL1        0.0077
     34 C           4.8481   -0.8894   22.8010 C.ar    1  UNL1        0.0711
     35 C           5.2971    0.3236   22.0411 C.ar    1  UNL1        0.0012
     36 C           7.1632   -3.6820   21.1914 C.3     1  UNL1        0.4186
     37 F           7.7853   -5.0172   20.9081 F       1  UNL1       -0.1659
     38 F           6.5595   -4.2304   22.4501 F       1  UNL1       -0.1659
     39 F           7.7671   -3.1336   19.9325 F       1  UNL1       -0.1659
     40 C           3.7771   -0.7670   23.8440 C.3     1  UNL1        0.4186
     41 F           2.7060   -0.6446   24.8870 F       1  UNL1       -0.1659
     42 F           3.3512    0.5442   23.2528 F       1  UNL1       -0.1659
     43 F           4.2029   -2.0782   24.4352 F       1  UNL1       -0.1659
@<TRIPOS>BOND
     1     8     9    1
     2     9    10    2
     3     9    11   am
     4    11    12    1
     5    12    13    1
     6    13    14    1
     7    14     1    1
     8     1     2    2
     9     1     3   am
    10     3     4    1
    11     4     5    1
    12     5    25    1
    13    25    26    2
    14    25    27   am
    15    27    28    1
    16    27    29    1
    17    29    30    1
    18    30    31   ar
    19    31    32   ar
    20    32    36    1
    21    36    37    1
    22    36    38    1
    23    36    39    1
    24    32    33   ar
    25    33    34   ar
    26    34    40    1
    27    40    41    1
    28    40    42    1
    29    40    43    1
    30    34    35   ar
    31     5     6    1
    32     6    17    1
    33    17    18   ar
    34    18    19   ar
    35    19    20   ar
    36    20    21    1
    37    20    22   ar
    38    22    23   ar
    39    23    24    1
    40     6     7    1
    41    14    15    1
    42    15    16    1
    43    16    11    1
    44     7     3    1
    45    35    30   ar
    46    23    17   ar
@<TRIPOS>MOLECULE
*****
 43 46 0 0 0
SMALL
GASTEIGER

@<TRIPOS>ATOM
      1 C          -0.7501    2.4752   25.8202 C.2     1  UNL1        0.2253
      2 O          -2.2044    2.8362   25.8888 O.2     1  UNL1       -0.2749
      3 N          -0.0112    2.5834   24.5194 N.am    1  UNL1       -0.2787
      4 C          -0.5902    3.0346   23.2113 C.3     1  UNL1        0.1028
      5 C           0.4998    2.9894   22.1817 C.3     1  UNL1        0.1021
      6 C           1.7525    2.5102   22.8535 C.3     1  UNL1        0.0521
      7 C           1.4367    2.2593   24.2983 C.3     1  UNL1        0.0982
      8 C           2.6568    1.5982   31.7256 C.3     1  UNL1        0.0948
      9 C           2.1110    0.5990   30.7491 C.2     1  UNL1        0.2261
     10 O           2.2805   -0.8693   31.0048 O.2     1  UNL1       -0.2749
     11 N           1.3957    1.0681   29.5169 N.am    1  UNL1       -0.2795
     12 C           1.2263    2.5363   29.2612 C.3     1  UNL1        0.0939
     13 C           0.5110    3.0054   28.0290 C.3     1  UNL1        0.0306
     14 C          -0.0348    2.0062   27.0525 C.3     1  UNL1        0.0801
     15 C           0.1346    0.5379   27.3081 C.3     1  UNL1        0.0306
     16 C           0.8499    0.0688   28.5403 C.3     1  UNL1        0.0939
     17 C           3.0866    2.3160   22.1961 C.ar    1  UNL1       -0.0241
     18 C           3.6784    3.4132   21.3619 C.ar    1  UNL1       -0.0022
     19 C           5.0125    3.2192   20.7043 C.ar    1  UNL1        0.0293
     20 C           5.7549    1.9277   20.8810 C.ar    1  UNL1        0.1398
     21 F           7.0891    1.7335   20.2235 F       1  UNL1       -0.2042
     22 C           5.1631    0.8305   21.7152 C.ar    1  UNL1        0.0251
     23 C           3.8289    1.0247   22.3727 C.ar    1  UNL1       -0.0235
     24 C           3.2372   -0.0726   23.2069 C.3     1  UNL1        0.0308
     25 C           0.3614    3.3585   20.7344 C.2     1  UNL1        0.2275
     26 O           0.1670    4.7930   20.3416 O.2     1  UNL1       -0.2748
     27 N           0.4175    2.2931   19.6800 N.am    1  UNL1       -0.2736
     28 C           0.2791    2.6623   18.2328 C.3     1  UNL1        0.1152
     29 C           0.6120    0.8586   20.0729 C.3     1  UNL1        0.1202
     30 C           1.8445    0.1224   19.6382 C.ar    1  UNL1       -0.0024
     31 C           2.8475    0.7976   18.7504 C.ar    1  UNL1        0.0012
     32 C           4.0800    0.0613   18.3159 C.ar    1  UNL1        0.0711
     33 C           4.3095   -1.3501   18.7690 C.ar    1  UNL1        0.0077
     34 C           3.3065   -2.0252   19.6567 C.ar    1  UNL1        0.0711
     35 C           2.0740   -1.2890   20.0914 C.ar    1  UNL1        0.0012
     36 C           5.0830    0.7364   17.4281 C.3     1  UNL1        0.4186
     37 F           6.0860    1.4116   16.5403 F       1  UNL1       -0.1659
     38 F           5.6948   -0.5948   17.1068 F       1  UNL1       -0.1659
     39 F           4.4712    2.0678   17.7493 F       1  UNL1       -0.1659
     40 C           3.5359   -3.4366   20.1099 C.3     1  UNL1        0.4186
     41 F           3.7653   -4.8480   20.5630 F       1  UNL1       -0.1659
     42 F           3.1609   -3.9355   18.7458 F       1  UNL1       -0.1659
     43 F           3.9110   -2.9378   21.4739 F       1  UNL1       -0.1659
@<TRIPOS>BOND
     1     8     9    1
     2     9    10    2
     3     9    11   am
     4    11    12    1
     5    12    13    1
     6    13    14    1
     7    14     1    1
     8     1     2    2
     9     1     3   am
    10     3     4    1
    11     4     5    1
    12     5    25    1
    13    25    26    2
    14    25    27   am
    15    27    28    1
    16    27    29    1
    17    29    30    1
    18    30    31   ar
    19    31    32   ar
    20    32    36    1
    21    36    37    1
    22    36    38    1
    23    36    39    1
    24    32    33   ar
    25    33    34   ar
    26    34    40    1
    27    40    41    1
    28    40    42    1
    29    40    43    1
    30    34    35   ar
    31     5     6    1
    32     6    17    1
    33    17    18   ar
    34    18    19   ar
    35    19    20   ar
    36    20    21    1
    37    20    22   ar
    38    22    23   ar
    39    23    24    1
    40     6     7    1
    41    14    15    1
    42    15    16    1
    43    16    11    1
    44     7     3    1
    45    35    30   ar
    46    23    17   ar
@<TRIPOS>MOLECULE
*****
 43 46 0 0 0
SMALL
GASTEIGER

@<TRIPOS>ATOM
      1 C          -0.3598    2.2689   25.8486 C.2     1  UNL1        0.2253
      2 O          -1.8117    2.6277   25.9629 O.2     1  UNL1       -0.2749
      3 N           0.3348    2.3668   24.5227 N.am    1  UNL1       -0.2787
      4 C          -0.2889    2.8055   23.2309 C.3     1  UNL1        0.1028
      5 C           0.7660    2.7531   22.1656 C.3     1  UNL1        0.1021
      6 C           2.0415    2.2821   22.7991 C.3     1  UNL1        0.0521
      7 C           1.7750    2.0434   24.2558 C.3     1  UNL1        0.0982
      8 C           3.6851    1.3447   31.3290 C.3     1  UNL1        0.0948
      9 C           2.6695    0.4414   30.6946 C.2     1  UNL1        0.2261
     10 O           2.4112   -0.9188   31.2717 O.2     1  UNL1       -0.2749
     11 N           1.9121    0.8982   29.4831 N.am    1  UNL1       -0.2795
     12 C           2.1704    2.2584   28.9059 C.3     1  UNL1        0.0939
     13 C           1.4131    2.7153   27.6944 C.3     1  UNL1        0.0306
     14 C           0.3975    1.8120   27.0601 C.3     1  UNL1        0.0801
     15 C           0.1392    0.4518   27.6372 C.3     1  UNL1        0.0306
     16 C           0.8965   -0.0051   28.8487 C.3     1  UNL1        0.0939
     17 C           3.3531    2.0846   22.0989 C.ar    1  UNL1       -0.0241
     18 C           3.9329    3.1897   21.2666 C.ar    1  UNL1       -0.0022
     19 C           5.2446    2.9922   20.5662 C.ar    1  UNL1        0.0293
     20 C           5.9766    1.6895   20.6982 C.ar    1  UNL1        0.1398
     21 F           7.2883    1.4919   19.9979 F       1  UNL1       -0.2042
     22 C           5.3968    0.5844   21.5305 C.ar    1  UNL1        0.0251
     23 C           4.0851    0.7820   22.2308 C.ar    1  UNL1       -0.0235
     24 C           3.5054   -0.3231   23.0631 C.3     1  UNL1        0.0308
     25 C           0.5782    3.1092   20.7207 C.2     1  UNL1        0.2275
     26 O           0.3929    4.5426   20.3195 O.2     1  UNL1       -0.2748
     27 N           0.5758    2.0319   19.6770 N.am    1  UNL1       -0.2736
     28 C           0.3880    2.3880   18.2320 C.3     1  UNL1        0.1152
     29 C           0.7612    0.5985   20.0782 C.3     1  UNL1        0.1202
     30 C           1.9603   -0.1652   19.5998 C.ar    1  UNL1       -0.0024
     31 C           2.1491   -1.5967   20.0065 C.ar    1  UNL1        0.0012
     32 C           3.3483   -2.3603   19.5280 C.ar    1  UNL1        0.0711
     33 C           4.3586   -1.6925   18.6429 C.ar    1  UNL1        0.0077
     34 C           4.1698   -0.2612   18.2362 C.ar    1  UNL1        0.0711
     35 C           2.9706    0.5025   18.7147 C.ar    1  UNL1        0.0012
     36 C           3.5371   -3.7917   19.9347 C.3     1  UNL1        0.4186
     37 F           3.7259   -5.2231   20.3414 F       1  UNL1       -0.1659
     38 F           4.1234   -3.3434   21.2404 F       1  UNL1       -0.1659
     39 F           2.9507   -4.2400   18.6289 F       1  UNL1       -0.1659
     40 C           5.1800    0.4066   17.3511 C.3     1  UNL1        0.4186
     41 F           6.1902    1.0745   16.4660 F       1  UNL1       -0.1659
     42 F           4.5184    1.7306   17.5951 F       1  UNL1       -0.1659
     43 F           5.8416   -0.9173   17.1071 F       1  UNL1       -0.1659
@<TRIPOS>BOND
     1     8     9    1
     2     9    10    2
     3     9    11   am
     4    11    12    1
     5    12    13    1
     6    13    14    1
     7    14     1    1
     8     1     2    2
     9     1     3   am
    10     3     4    1
    11     4     5    1
    12     5    25    1
    13    25    26    2
    14    25    27   am
    15    27    28    1
    16    27    29    1
    17    29    30    1
    18    30    31   ar
    19    31    32   ar
    20    32    36    1
    21    36    37    1
    22    36    38    1
    23    36    39    1
    24    32    33   ar
    25    33    34   ar
    26    34    40    1
    27    40    41    1
    28    40    42    1
    29    40    43    1
    30    34    35   ar
    31     5     6    1
    32     6    17    1
    33    17    18   ar
    34    18    19   ar
    35    19    20   ar
    36    20    21    1
    37    20    22   ar
    38    22    23   ar
    39    23    24    1
    40     6     7    1
    41    14    15    1
    42    15    16    1
    43    16    11    1
    44     7     3    1
    45    35    30   ar
    46    23    17   ar
@<TRIPOS>MOLECULE
*****
 43 46 0 0 0
SMALL
GASTEIGER

@<TRIPOS>ATOM
      1 C           0.3333    2.7254   21.2447 C.2     1  UNL1        0.2253
      2 O          -0.2509    3.6145   20.1872 O.2     1  UNL1       -0.2749
      3 N           0.0780    3.0161   22.6939 N.am    1  UNL1       -0.2787
      4 C          -0.7371    4.1532   23.2348 C.3     1  UNL1        0.1028
      5 C          -0.7259    4.0605   24.7320 C.3     1  UNL1        0.1021
      6 C           0.0962    2.8661   25.1163 C.3     1  UNL1        0.0521
      7 C           0.5930    2.2206   23.8568 C.3     1  UNL1        0.0982
      8 C           5.1840   -1.8621   19.6091 C.3     1  UNL1        0.0948
      9 C           3.6914   -1.9934   19.6775 C.2     1  UNL1        0.2261
     10 O           3.0382   -3.3045   19.3541 O.2     1  UNL1       -0.2749
     11 N           2.8518   -0.8137   20.0693 N.am    1  UNL1       -0.2795
     12 C           3.5050    0.4973   20.3927 C.3     1  UNL1        0.0939
     13 C           2.6655    1.6770   20.7845 C.3     1  UNL1        0.0306
     14 C           1.1728    1.5457   20.8529 C.3     1  UNL1        0.0801
     15 C           0.5197    0.2347   20.5295 C.3     1  UNL1        0.0306
     16 C           1.3592   -0.9450   20.1377 C.3     1  UNL1        0.0939
     17 C           0.3728    2.3992   26.5146 C.ar    1  UNL1       -0.0241
     18 C          -0.5108    1.3663   27.1490 C.ar    1  UNL1       -0.0022
     19 C          -0.2342    0.8993   28.5474 C.ar    1  UNL1        0.0293
     20 C           0.9260    1.4653   29.3114 C.ar    1  UNL1        0.1398
     21 F           1.2026    0.9984   30.7098 F       1  UNL1       -0.2042
     22 C           1.8096    2.4982   28.6770 C.ar    1  UNL1        0.0251
     23 C           1.5329    2.9651   27.2786 C.ar    1  UNL1       -0.0235
     24 C           2.4165    3.9980   26.6443 C.3     1  UNL1        0.0308
     25 C          -1.4156    4.9977   25.6786 C.2     1  UNL1        0.2275
     26 O          -0.6738    6.1720   26.2449 O.2     1  UNL1       -0.2748
     27 N          -2.8471    4.7606   26.0588 N.am    1  UNL1       -0.2736
     28 C          -3.5367    5.6978   27.0053 C.3     1  UNL1        0.1152
     29 C          -3.5889    3.5863   25.4924 C.3     1  UNL1        0.1202
     30 C          -4.6466    3.7990   24.4503 C.ar    1  UNL1       -0.0024
     31 C          -4.3490    3.5078   23.0092 C.ar    1  UNL1        0.0012
     32 C          -5.4069    3.7205   21.9672 C.ar    1  UNL1        0.0711
     33 C          -6.7621    4.2245   22.3662 C.ar    1  UNL1        0.0077
     34 C          -7.0597    4.5157   23.8072 C.ar    1  UNL1        0.0711
     35 C          -6.0019    4.3030   24.8493 C.ar    1  UNL1        0.0012
     36 C          -5.1093    3.4293   20.5261 C.3     1  UNL1        0.4186
     37 F          -4.8117    3.1381   19.0851 F       1  UNL1       -0.1659
     38 F          -3.7186    3.0085   20.8984 F       1  UNL1       -0.1659
     39 F          -6.5001    3.8502   20.1539 F       1  UNL1       -0.1659
     40 C          -8.4150    5.0197   24.2063 C.3     1  UNL1        0.4186
     41 F          -9.7702    5.5237   24.6054 F       1  UNL1       -0.1659
     42 F          -7.8110    6.3372   24.5930 F       1  UNL1       -0.1659
     43 F          -9.0189    3.7022   23.8196 F       1  UNL1       -0.1659
@<TRIPOS>BOND
     1     8     9    1
     2     9    10    2
     3     9    11   am
     4    11    12    1
     5    12    13    1
     6    13    14    1
     7    14     1    1
     8     1     2    2
     9     1     3   am
    10     3     4    1
    11     4     5    1
    12     5    25    1
    13    25    26    2
    14    25    27   am
    15    27    28    1
    16    27    29    1
    17    29    30    1
    18    30    31   ar
    19    31    32   ar
    20    32    36    1
    21    36    37    1
    22    36    38    1
    23    36    39    1
    24    32    33   ar
    25    33    34   ar
    26    34    40    1
    27    40    41    1
    28    40    42    1
    29    40    43    1
    30    34    35   ar
    31     5     6    1
    32     6    17    1
    33    17    18   ar
    34    18    19   ar
    35    19    20   ar
    36    20    21    1
    37    20    22   ar
    38    22    23   ar
    39    23    24    1
    40     6     7    1
    41    14    15    1
    42    15    16    1
    43    16    11    1
    44     7     3    1
    45    35    30   ar
    46    23    17   ar
@<TRIPOS>MOLECULE
*****
 43 46 0 0 0
SMALL
GASTEIGER

@<TRIPOS>ATOM
      1 C           0.3177    2.7576   21.2314 C.2     1  UNL1        0.2253
      2 O          -0.2698    3.6497   20.1784 O.2     1  UNL1       -0.2749
      3 N           0.0571    3.0372   22.6819 N.am    1  UNL1       -0.2787
      4 C          -0.7667    4.1655   23.2282 C.3     1  UNL1        0.1028
      5 C          -0.7584    4.0632   24.7248 C.3     1  UNL1        0.1021
      6 C           0.0706    2.8717   25.1033 C.3     1  UNL1        0.0521
      7 C           0.5745    2.2376   23.8408 C.3     1  UNL1        0.0982
      8 C           5.1980   -1.7742   19.5299 C.3     1  UNL1        0.0948
      9 C           3.7102   -1.9289   19.6419 C.2     1  UNL1        0.2261
     10 O           3.0706   -3.2553   19.3565 O.2     1  UNL1       -0.2749
     11 N           2.8621   -0.7573   20.0393 N.am    1  UNL1       -0.2795
     12 C           3.5017    0.5691   20.3247 C.3     1  UNL1        0.0939
     13 C           2.6536    1.7408   20.7221 C.3     1  UNL1        0.0306
     14 C           1.1658    1.5860   20.8340 C.3     1  UNL1        0.0801
     15 C           0.5262    0.2596   20.5486 C.3     1  UNL1        0.0306
     16 C           1.3744   -0.9120   20.1513 C.3     1  UNL1        0.0939
     17 C           0.3469    2.3976   26.4992 C.ar    1  UNL1       -0.0241
     18 C          -0.5775    1.4146   27.1543 C.ar    1  UNL1       -0.0022
     19 C          -0.3012    0.9404   28.5503 C.ar    1  UNL1        0.0293
     20 C           0.8997    1.4492   29.2912 C.ar    1  UNL1        0.1398
     21 F           1.1761    0.9751   30.6873 F       1  UNL1       -0.2042
     22 C           1.8242    2.4322   28.6362 C.ar    1  UNL1        0.0251
     23 C           1.5478    2.9063   27.2402 C.ar    1  UNL1       -0.0235
     24 C           2.4723    3.8892   26.5852 C.3     1  UNL1        0.0308
     25 C          -1.4564    4.9897   25.6757 C.2     1  UNL1        0.2275
     26 O          -0.7196    6.1574   26.2619 O.2     1  UNL1       -0.2748
     27 N          -2.8912    4.7486   26.0404 N.am    1  UNL1       -0.2736
     28 C          -3.5892    5.6751   26.9914 C.3     1  UNL1        0.1152
     29 C          -3.6280    3.5809   25.4542 C.3     1  UNL1        0.1202
     30 C          -4.6913    3.8072   24.4207 C.ar    1  UNL1       -0.0024
     31 C          -6.0351    4.3333   24.8298 C.ar    1  UNL1        0.0012
     32 C          -7.0983    4.5596   23.7961 C.ar    1  UNL1        0.0711
     33 C          -6.8177    4.2598   22.3534 C.ar    1  UNL1        0.0077
     34 C          -5.4740    3.7336   21.9443 C.ar    1  UNL1        0.0711
     35 C          -4.4107    3.5073   22.9780 C.ar    1  UNL1        0.0012
     36 C          -8.4421    5.0858   24.2052 C.3     1  UNL1        0.4186
     37 F          -9.7859    5.6119   24.6143 F       1  UNL1       -0.1659
     38 F          -9.0613    3.7596   23.8771 F       1  UNL1       -0.1659
     39 F          -7.8229    6.4120   24.5333 F       1  UNL1       -0.1659
     40 C          -5.1933    3.4337   20.5016 C.3     1  UNL1        0.4186
     41 F          -4.9128    3.1339   19.0590 F       1  UNL1       -0.1659
     42 F          -6.5971    3.8263   20.1471 F       1  UNL1       -0.1659
     43 F          -3.7897    3.0412   20.8562 F       1  UNL1       -0.1659
@<TRIPOS>BOND
     1     8     9    1
     2     9    10    2
     3     9    11   am
     4    11    12    1
     5    12    13    1
     6    13    14    1
     7    14     1    1
     8     1     2    2
     9     1     3   am
    10     3     4    1
    11     4     5    1
    12     5    25    1
    13    25    26    2
    14    25    27   am
    15    27    28    1
    16    27    29    1
    17    29    30    1
    18    30    31   ar
    19    31    32   ar
    20    32    36    1
    21    36    37    1
    22    36    38    1
    23    36    39    1
    24    32    33   ar
    25    33    34   ar
    26    34    40    1
    27    40    41    1
    28    40    42    1
    29    40    43    1
    30    34    35   ar
    31     5     6    1
    32     6    17    1
    33    17    18   ar
    34    18    19   ar
    35    19    20   ar
    36    20    21    1
    37    20    22   ar
    38    22    23   ar
    39    23    24    1
    40     6     7    1
    41    14    15    1
    42    15    16    1
    43    16    11    1
    44     7     3    1
    45    35    30   ar
    46    23    17   ar
@<TRIPOS>MOLECULE
*****
 43 46 0 0 0
SMALL
GASTEIGER

@<TRIPOS>ATOM
      1 C          -2.3656    3.9170   18.6756 C.2     1  UNL1        0.2253
      2 O          -2.7656    3.7945   17.2351 O.2     1  UNL1       -0.2749
      3 N          -0.9476    3.6500   19.0854 N.am    1  UNL1       -0.2787
      4 C           0.1745    3.2539   18.1722 C.3     1  UNL1        0.1028
      5 C           1.4129    3.0913   19.0029 C.3     1  UNL1        0.1021
      6 C           1.0561    3.3869   20.4296 C.3     1  UNL1        0.0521
      7 C          -0.4027    3.7322   20.4806 C.3     1  UNL1        0.0982
      8 C          -7.2537    4.4190   23.4822 C.3     1  UNL1        0.0948
      9 C          -6.4374    5.4750   22.7978 C.2     1  UNL1        0.2261
     10 O          -6.6390    6.9205   23.1440 O.2     1  UNL1       -0.2749
     11 N          -5.4194    5.0855   21.7673 N.am    1  UNL1       -0.2795
     12 C          -5.2178    3.6400   21.4211 C.3     1  UNL1        0.0939
     13 C          -4.1999    3.2505   20.3905 C.3     1  UNL1        0.0306
     14 C          -3.3835    4.3065   19.7061 C.3     1  UNL1        0.0801
     15 C          -3.5851    5.7520   20.0523 C.3     1  UNL1        0.0306
     16 C          -4.6031    6.1415   21.0829 C.3     1  UNL1        0.0939
     17 C           1.9935    3.3446   21.5998 C.ar    1  UNL1       -0.0241
     18 C           3.1116    4.3394   21.7014 C.ar    1  UNL1       -0.0022
     19 C           4.0491    4.2972   22.8716 C.ar    1  UNL1        0.0293
     20 C           3.8685    3.2601   23.9402 C.ar    1  UNL1        0.1398
     21 F           4.8060    3.2178   25.1104 F       1  UNL1       -0.2042
     22 C           2.7504    2.2653   23.8385 C.ar    1  UNL1        0.0251
     23 C           1.8130    2.3075   22.6683 C.ar    1  UNL1       -0.0235
     24 C           0.6950    1.3128   22.5668 C.3     1  UNL1        0.0308
     25 C           2.7697    2.7015   18.4960 C.2     1  UNL1        0.2275
     26 O           3.6433    3.7227   17.8297 O.2     1  UNL1       -0.2748
     27 N           3.2530    1.2905   18.6553 N.am    1  UNL1       -0.2736
     28 C           4.6099    0.9007   18.1484 C.3     1  UNL1        0.1152
     29 C           2.3795    0.2692   19.3216 C.3     1  UNL1        0.1202
     30 C           2.9964   -0.9197   19.9968 C.ar    1  UNL1       -0.0024
     31 C           3.2314   -0.9027   21.4782 C.ar    1  UNL1        0.0012
     32 C           3.8484   -2.0917   22.1533 C.ar    1  UNL1        0.0711
     33 C           4.2304   -3.2975   21.3471 C.ar    1  UNL1        0.0077
     34 C           3.9955   -3.3145   19.8658 C.ar    1  UNL1        0.0711
     35 C           3.3784   -2.1255   19.1906 C.ar    1  UNL1        0.0012
     36 C           4.0834   -2.0747   23.6347 C.3     1  UNL1        0.4186
     37 F           4.3184   -2.0577   25.1161 F       1  UNL1       -0.1659
     38 F           5.1181   -3.1499   23.4829 F       1  UNL1       -0.1659
     39 F           3.0487   -0.9993   23.7865 F       1  UNL1       -0.1659
     40 C           4.3775   -4.5203   19.0595 C.3     1  UNL1        0.4186
     41 F           4.7595   -5.7261   18.2532 F       1  UNL1       -0.1659
     42 F           5.2790   -3.6696   18.2147 F       1  UNL1       -0.1659
     43 F           3.4760   -5.3709   19.9043 F       1  UNL1       -0.1659
@<TRIPOS>BOND
     1     8     9    1
     2     9    10    2
     3     9    11   am
     4    11    12    1
     5    12    13    1
     6    13    14    1
     7    14     1    1
     8     1     2    2
     9     1     3   am
    10     3     4    1
    11     4     5    1
    12     5    25    1
    13    25    26    2
    14    25    27   am
    15    27    28    1
    16    27    29    1
    17    29    30    1
    18    30    31   ar
    19    31    32   ar
    20    32    36    1
    21    36    37    1
    22    36    38    1
    23    36    39    1
    24    32    33   ar
    25    33    34   ar
    26    34    40    1
    27    40    41    1
    28    40    42    1
    29    40    43    1
    30    34    35   ar
    31     5     6    1
    32     6    17    1
    33    17    18   ar
    34    18    19   ar
    35    19    20   ar
    36    20    21    1
    37    20    22   ar
    38    22    23   ar
    39    23    24    1
    40     6     7    1
    41    14    15    1
    42    15    16    1
    43    16    11    1
    44     7     3    1
    45    35    30   ar
    46    23    17   ar
@<TRIPOS>MOLECULE
*****
 43 46 0 0 0
SMALL
GASTEIGER

@<TRIPOS>ATOM
      1 C           7.4926   -2.9995   24.6972 C.2     1  UNL1        0.2253
      2 O           8.1033   -2.8517   23.3352 O.2     1  UNL1       -0.2749
      3 N           6.5662   -1.9431   25.2224 N.am    1  UNL1       -0.2787
      4 C           6.1594   -0.6907   24.5041 C.3     1  UNL1        0.1028
      5 C           5.2257    0.0728   25.3959 C.3     1  UNL1        0.1021
      6 C           5.0554   -0.7078   26.6655 C.3     1  UNL1        0.0521
      7 C           5.8839   -1.9536   26.5583 C.3     1  UNL1        0.0982
      8 C           8.2911   -9.1743   27.6098 C.3     1  UNL1        0.0948
      9 C           8.7556   -7.8160   28.0447 C.2     1  UNL1        0.2261
     10 O           9.5360   -7.6619   29.3164 O.2     1  UNL1       -0.2749
     11 N           8.4399   -6.6119   27.2078 N.am    1  UNL1       -0.2795
     12 C           7.6595   -6.7661   25.9361 C.3     1  UNL1        0.0939
     13 C           7.3438   -5.5619   25.0993 C.3     1  UNL1        0.0306
     14 C           7.8084   -4.2036   25.5341 C.3     1  UNL1        0.0801
     15 C           8.5887   -4.0495   26.8058 C.3     1  UNL1        0.0306
     16 C           8.9045   -5.2536   27.6426 C.3     1  UNL1        0.0939
     17 C           4.2059   -0.3120   27.8366 C.ar    1  UNL1       -0.0241
     18 C           2.8013   -0.8256   27.9518 C.ar    1  UNL1       -0.0022
     19 C           1.9516   -0.4298   29.1229 C.ar    1  UNL1        0.0293
     20 C           2.5067    0.4796   30.1789 C.ar    1  UNL1        0.1398
     21 F           1.6571    0.8754   31.3500 F       1  UNL1       -0.2042
     22 C           3.9113    0.9931   30.0637 C.ar    1  UNL1        0.0251
     23 C           4.7609    0.5973   28.8925 C.ar    1  UNL1       -0.0235
     24 C           6.1655    1.1109   28.7774 C.3     1  UNL1        0.0308
     25 C           4.5763    1.3862   25.0746 C.2     1  UNL1        0.2275
     26 O           5.2448    2.6697   25.4688 O.2     1  UNL1       -0.2748
     27 N           3.2583    1.4160   24.3591 N.am    1  UNL1       -0.2736
     28 C           2.6089    2.7293   24.0378 C.3     1  UNL1        0.1152
     29 C           2.5897    0.1324   23.9648 C.3     1  UNL1        0.1202
     30 C           2.6823   -0.3579   22.5503 C.ar    1  UNL1       -0.0024
     31 C           3.5237   -1.5565   22.2254 C.ar    1  UNL1        0.0012
     32 C           3.6163   -2.0467   20.8108 C.ar    1  UNL1        0.0711
     33 C           2.8675   -1.3384   19.7210 C.ar    1  UNL1        0.0077
     34 C           2.0261   -0.1399   20.0458 C.ar    1  UNL1        0.0711
     35 C           1.9335    0.3504   21.4605 C.ar    1  UNL1        0.0012
     36 C           4.4577   -3.2452   20.4860 C.3     1  UNL1        0.4186
     37 F           5.2991   -4.4438   20.1612 F       1  UNL1       -0.1659
     38 F           3.4620   -3.6620   19.4445 F       1  UNL1       -0.1659
     39 F           5.4534   -2.8285   21.5275 F       1  UNL1       -0.1659
     40 C           1.2773    0.5685   18.9561 C.3     1  UNL1        0.4186
     41 F           0.5286    1.2769   17.8663 F       1  UNL1       -0.1659
     42 F           2.5055    0.5423   18.0953 F       1  UNL1       -0.1659
     43 F           0.0492    0.5947   19.8169 F       1  UNL1       -0.1659
@<TRIPOS>BOND
     1     8     9    1
     2     9    10    2
     3     9    11   am
     4    11    12    1
     5    12    13    1
     6    13    14    1
     7    14     1    1
     8     1     2    2
     9     1     3   am
    10     3     4    1
    11     4     5    1
    12     5    25    1
    13    25    26    2
    14    25    27   am
    15    27    28    1
    16    27    29    1
    17    29    30    1
    18    30    31   ar
    19    31    32   ar
    20    32    36    1
    21    36    37    1
    22    36    38    1
    23    36    39    1
    24    32    33   ar
    25    33    34   ar
    26    34    40    1
    27    40    41    1
    28    40    42    1
    29    40    43    1
    30    34    35   ar
    31     5     6    1
    32     6    17    1
    33    17    18   ar
    34    18    19   ar
    35    19    20   ar
    36    20    21    1
    37    20    22   ar
    38    22    23   ar
    39    23    24    1
    40     6     7    1
    41    14    15    1
    42    15    16    1
    43    16    11    1
    44     7     3    1
    45    35    30   ar
    46    23    17   ar
@<TRIPOS>MOLECULE
*****
 43 46 0 0 0
SMALL
GASTEIGER

@<TRIPOS>ATOM
      1 C           1.3483    1.4384   27.2762 C.2     1  UNL1        0.2253
      2 O           1.3368    0.4842   28.4334 O.2     1  UNL1       -0.2749
      3 N           2.4603    1.3847   26.2709 N.am    1  UNL1       -0.2787
      4 C           3.6225    0.4367   26.2915 C.3     1  UNL1        0.1028
      5 C           4.4858    0.7357   25.1018 C.3     1  UNL1        0.1021
      6 C           3.8571    1.8686   24.3459 C.3     1  UNL1        0.0521
      7 C           2.6053    2.2697   25.0684 C.3     1  UNL1        0.0982
      8 C          -4.2360    5.1640   25.7975 C.3     1  UNL1        0.0948
      9 C          -3.0535    5.4701   26.6682 C.2     1  UNL1        0.2261
     10 O          -2.9716    6.7841   27.3868 O.2     1  UNL1       -0.2749
     11 N          -1.9531    4.4622   26.8202 N.am    1  UNL1       -0.2795
     12 C          -2.0350    3.1481   26.1015 C.3     1  UNL1        0.0939
     13 C          -0.9346    2.1402   26.2535 C.3     1  UNL1        0.0306
     14 C           0.2478    2.4463   27.1242 C.3     1  UNL1        0.0801
     15 C           0.3298    3.7604   27.8428 C.3     1  UNL1        0.0306
     16 C          -0.7707    4.7683   27.6908 C.3     1  UNL1        0.0939
     17 C           4.3871    2.4910   23.0883 C.ar    1  UNL1       -0.0241
     18 C           3.8433    2.0689   21.7556 C.ar    1  UNL1       -0.0022
     19 C           4.3733    2.6913   20.4980 C.ar    1  UNL1        0.0293
     20 C           5.4472    3.7358   20.5730 C.ar    1  UNL1        0.1398
     21 F           5.9773    4.3583   19.3154 F       1  UNL1       -0.2042
     22 C           5.9911    4.1579   21.9057 C.ar    1  UNL1        0.0251
     23 C           5.4611    3.5355   23.1634 C.ar    1  UNL1       -0.0235
     24 C           6.0049    3.9576   24.4960 C.3     1  UNL1        0.0308
     25 C           5.7550    0.0264   24.7328 C.2     1  UNL1        0.2275
     26 O           7.0818    0.6542   25.0410 O.2     1  UNL1       -0.2748
     27 N           5.6971   -1.3108   24.0557 N.am    1  UNL1       -0.2736
     28 C           6.9663   -2.0201   23.6867 C.3     1  UNL1        0.1152
     29 C           4.3702   -1.9387   23.7475 C.3     1  UNL1        0.1202
     30 C           3.9316   -2.1043   22.3226 C.ar    1  UNL1       -0.0024
     31 C           4.4118   -3.2780   21.5216 C.ar    1  UNL1        0.0012
     32 C           3.9732   -3.4435   20.0967 C.ar    1  UNL1        0.0711
     33 C           3.0544   -2.4352   19.4729 C.ar    1  UNL1        0.0077
     34 C           2.5742   -1.2615   20.2739 C.ar    1  UNL1        0.0711
     35 C           3.0128   -1.0960   21.6988 C.ar    1  UNL1        0.0012
     36 C           4.4534   -4.6173   19.2957 C.3     1  UNL1        0.4186
     37 F           4.9336   -5.7911   18.4947 F       1  UNL1       -0.1659
     38 F           3.0353   -4.9598   18.9474 F       1  UNL1       -0.1659
     39 F           5.8716   -4.2748   19.6441 F       1  UNL1       -0.1659
     40 C           1.6553   -0.2532   19.6501 C.3     1  UNL1        0.4186
     41 F           0.7364    0.7551   19.0264 F       1  UNL1       -0.1659
     42 F           0.5548   -0.6849   20.5735 F       1  UNL1       -0.1659
     43 F           2.7558    0.1785   18.7267 F       1  UNL1       -0.1659
@<TRIPOS>BOND
     1     8     9    1
     2     9    10    2
     3     9    11   am
     4    11    12    1
     5    12    13    1
     6    13    14    1
     7    14     1    1
     8     1     2    2
     9     1     3   am
    10     3     4    1
    11     4     5    1
    12     5    25    1
    13    25    26    2
    14    25    27   am
    15    27    28    1
    16    27    29    1
    17    29    30    1
    18    30    31   ar
    19    31    32   ar
    20    32    36    1
    21    36    37    1
    22    36    38    1
    23    36    39    1
    24    32    33   ar
    25    33    34   ar
    26    34    40    1
    27    40    41    1
    28    40    42    1
    29    40    43    1
    30    34    35   ar
    31     5     6    1
    32     6    17    1
    33    17    18   ar
    34    18    19   ar
    35    19    20   ar
    36    20    21    1
    37    20    22   ar
    38    22    23   ar
    39    23    24    1
    40     6     7    1
    41    14    15    1
    42    15    16    1
    43    16    11    1
    44     7     3    1
    45    35    30   ar
    46    23    17   ar
