@<TRIPOS>MOLECULE
*****
 23 25 0 0 0
SMALL
GASTEIGER

@<TRIPOS>ATOM
      1 C          -8.3334  -17.7669   22.1892 C.3     1  UNL1        0.1883
      2 C          -7.1960  -18.5625   21.6204 C.ar    1  UNL1        0.0195
      3 C          -7.3762  -19.3153   20.3356 C.ar    1  UNL1        0.0002
      4 C          -6.2389  -20.1109   19.7667 C.ar    1  UNL1        0.0135
      5 C          -4.9214  -20.1537   20.4827 C.ar    1  UNL1        0.0850
      6 CL         -3.7842  -20.9493   19.9138 Cl      1  UNL1       -0.0799
      7 C          -4.7413  -19.4008   21.7675 C.ar    1  UNL1        0.1504
      8 F          -3.4239  -19.4436   22.4834 F       1  UNL1       -0.2033
      9 C          -5.8786  -18.6052   22.3363 C.ar    1  UNL1        0.0297
     10 O          -8.1343  -16.3238   22.5466 O.3     1  UNL1       -0.4748
     11 F          -6.5023  -14.8104   28.1185 F       1  UNL1       -0.2042
     12 C          -6.9103  -15.1888   26.7255 C.ar    1  UNL1        0.1403
     13 C          -8.3378  -15.5439   26.4325 C.ar    1  UNL1        0.0327
     14 C          -8.7458  -15.9223   25.0395 C.ar    1  UNL1        0.0392
     15 C          -7.7263  -15.9454   23.9396 C.ar    1  UNL1        0.1390
     16 C          -6.2987  -15.5903   24.2326 C.ar    1  UNL1        0.0392
     17 C          -5.8907  -15.2119   25.6256 C.ar    1  UNL1        0.0327
     18 C          -9.6698  -18.4144   22.4007 C.3     1  UNL1        0.0510
     19 C          -9.9133  -19.2503   23.6222 C.3     1  UNL1        0.0354
     20 C         -10.7667  -19.1136   24.8482 C.3     1  UNL1        0.0700
     21 N         -10.2575  -20.4324   25.3497 N.3     1  UNL1       -0.2974
     22 C          -9.4041  -20.5691   24.1238 C.3     1  UNL1        0.0700
     23 H         -10.9769  -21.1501   25.4384 H       1  UNL1        0.1232
@<TRIPOS>BOND
     1    11    12    1
     2    12    13   ar
     3    13    14   ar
     4    14    15   ar
     5    15    10    1
     6    10     1    1
     7     1    18    1
     8    18    19    1
     9    19    20    1
    10    20    21    1
    11    21    22    1
    12     1     2    1
    13     2     3   ar
    14     3     4   ar
    15     4     5   ar
    16     5     6    1
    17     5     7   ar
    18     7     8    1
    19     7     9   ar
    20    15    16   ar
    21    16    17   ar
    22    17    12   ar
    23    22    19    1
    24     9     2   ar
    25    21    23    1
@<TRIPOS>MOLECULE
*****
 23 25 0 0 0
SMALL
GASTEIGER

@<TRIPOS>ATOM
      1 C          -8.0065  -17.9047   22.5913 C.3     1  UNL1        0.1883
      2 C          -9.4616  -17.9540   22.9525 C.ar    1  UNL1        0.0195
      3 C         -10.0001  -19.1117   23.7396 C.ar    1  UNL1        0.0002
      4 C         -11.4551  -19.1610   24.1009 C.ar    1  UNL1        0.0135
      5 C         -12.3716  -18.0524   23.6751 C.ar    1  UNL1        0.0850
      6 CL        -13.8266  -18.1017   24.0364 Cl      1  UNL1       -0.0799
      7 C         -11.8330  -16.8946   22.8880 C.ar    1  UNL1        0.1504
      8 F         -12.7494  -15.7861   22.4623 F       1  UNL1       -0.2033
      9 C         -10.3780  -16.8454   22.5268 C.ar    1  UNL1        0.0297
     10 O          -7.2392  -19.1784   22.3942 O.3     1  UNL1       -0.4748
     11 F          -1.7728  -19.0361   19.9246 F       1  UNL1       -0.2042
     12 C          -3.1394  -19.0717   20.5420 C.ar    1  UNL1        0.1403
     13 C          -4.3531  -19.2019   19.6702 C.ar    1  UNL1        0.0327
     14 C          -5.7197  -19.2374   20.2876 C.ar    1  UNL1        0.0392
     15 C          -5.8726  -19.1428   21.7768 C.ar    1  UNL1        0.1390
     16 C          -4.6589  -19.0127   22.6485 C.ar    1  UNL1        0.0392
     17 C          -3.2923  -18.9771   22.0311 C.ar    1  UNL1        0.0327
     18 C          -7.3189  -16.5818   22.4271 C.3     1  UNL1        0.0510
     19 C          -6.8885  -15.8051   23.6361 C.3     1  UNL1        0.0354
     20 C          -7.5991  -15.0496   24.7197 C.3     1  UNL1        0.0700
     21 N          -6.2798  -14.7067   25.3458 N.3     1  UNL1       -0.2974
     22 C          -5.5692  -15.4621   24.2621 C.3     1  UNL1        0.0700
     23 H          -6.1484  -15.0956   26.2795 H       1  UNL1        0.1232
@<TRIPOS>BOND
     1    11    12    1
     2    12    13   ar
     3    13    14   ar
     4    14    15   ar
     5    15    10    1
     6    10     1    1
     7     1    18    1
     8    18    19    1
     9    19    20    1
    10    20    21    1
    11    21    22    1
    12     1     2    1
    13     2     3   ar
    14     3     4   ar
    15     4     5   ar
    16     5     6    1
    17     5     7   ar
    18     7     8    1
    19     7     9   ar
    20    15    16   ar
    21    16    17   ar
    22    17    12   ar
    23    22    19    1
    24     9     2   ar
    25    21    23    1
@<TRIPOS>MOLECULE
*****
 23 25 0 0 0
SMALL
GASTEIGER

@<TRIPOS>ATOM
      1 C          -8.1579  -17.8708   22.1005 C.3     1  UNL1        0.1883
      2 C          -9.5833  -17.9199   22.5653 C.ar    1  UNL1        0.0195
      3 C         -10.0454  -19.0393   23.4503 C.ar    1  UNL1        0.0002
      4 C         -11.4706  -19.0884   23.9152 C.ar    1  UNL1        0.0135
      5 C         -12.4339  -18.0181   23.4950 C.ar    1  UNL1        0.0850
      6 CL        -13.8592  -18.0672   23.9598 Cl      1  UNL1       -0.0799
      7 C         -11.9718  -16.8986   22.6100 C.ar    1  UNL1        0.1504
      8 F         -12.9350  -15.8283   22.1898 F       1  UNL1       -0.2033
      9 C         -10.5465  -16.8495   22.1451 C.ar    1  UNL1        0.0297
     10 O          -7.3295  -16.6454   22.3497 O.3     1  UNL1       -0.4748
     11 F          -6.3919  -14.7489   27.9643 F       1  UNL1       -0.2042
     12 C          -6.6263  -15.2230   26.5606 C.ar    1  UNL1        0.1403
     13 C          -8.0232  -15.4838   26.0806 C.ar    1  UNL1        0.0327
     14 C          -8.2576  -15.9580   24.6769 C.ar    1  UNL1        0.0392
     15 C          -7.0951  -16.1713   23.7533 C.ar    1  UNL1        0.1390
     16 C          -5.6982  -15.9104   24.2334 C.ar    1  UNL1        0.0392
     17 C          -5.4638  -15.4363   25.6371 C.ar    1  UNL1        0.0327
     18 C          -7.5610  -19.0471   21.3864 C.3     1  UNL1        0.0510
     19 C          -6.0708  -19.2003   21.3090 C.3     1  UNL1        0.0354
     20 C          -4.9598  -19.2865   22.3131 C.3     1  UNL1        0.0700
     21 N          -3.9634  -19.4170   21.1994 N.3     1  UNL1       -0.2974
     22 C          -5.0744  -19.3308   20.1953 C.3     1  UNL1        0.0700
     23 H          -3.4624  -20.3054   21.1908 H       1  UNL1        0.1232
@<TRIPOS>BOND
     1    11    12    1
     2    12    13   ar
     3    13    14   ar
     4    14    15   ar
     5    15    10    1
     6    10     1    1
     7     1    18    1
     8    18    19    1
     9    19    20    1
    10    20    21    1
    11    21    22    1
    12     1     2    1
    13     2     3   ar
    14     3     4   ar
    15     4     5   ar
    16     5     6    1
    17     5     7   ar
    18     7     8    1
    19     7     9   ar
    20    15    16   ar
    21    16    17   ar
    22    17    12   ar
    23    22    19    1
    24     9     2   ar
    25    21    23    1
@<TRIPOS>MOLECULE
*****
 23 25 0 0 0
SMALL
GASTEIGER

@<TRIPOS>ATOM
      1 C          -7.7911  -18.1671   22.1011 C.3     1  UNL1        0.1883
      2 C          -6.3631  -18.5913   21.9251 C.ar    1  UNL1        0.0195
      3 C          -5.3136  -18.1072   22.8813 C.ar    1  UNL1        0.0002
      4 C          -3.8857  -18.5314   22.7054 C.ar    1  UNL1        0.0135
      5 C          -3.5072  -19.4398   21.5732 C.ar    1  UNL1        0.0850
      6 CL         -2.0792  -19.8640   21.3973 Cl      1  UNL1       -0.0799
      7 C          -4.5566  -19.9239   20.6171 C.ar    1  UNL1        0.1504
      8 F          -4.1782  -20.8322   19.4850 F       1  UNL1       -0.2033
      9 C          -5.9846  -19.4996   20.7931 C.ar    1  UNL1        0.0297
     10 O          -8.8809  -19.1972   22.1343 O.3     1  UNL1       -0.4748
     11 F         -14.3435  -17.7222   24.1303 F       1  UNL1       -0.2042
     12 C         -12.9779  -18.0910   23.6313 C.ar    1  UNL1        0.1403
     13 C         -11.9838  -18.7200   24.5620 C.ar    1  UNL1        0.0327
     14 C         -10.6182  -19.0887   24.0630 C.ar    1  UNL1        0.0392
     15 C         -10.2466  -18.8284   22.6333 C.ar    1  UNL1        0.1390
     16 C         -11.2406  -18.1995   21.7026 C.ar    1  UNL1        0.0392
     17 C         -12.6063  -17.8307   22.2016 C.ar    1  UNL1        0.0327
     18 C          -8.1292  -16.7127   22.2440 C.3     1  UNL1        0.0510
     19 C          -8.0074  -16.0421   23.5802 C.3     1  UNL1        0.0354
     20 C          -7.0008  -15.1355   24.2243 C.3     1  UNL1        0.0700
     21 N          -7.8354  -15.0938   25.4700 N.3     1  UNL1       -0.2974
     22 C          -8.8420  -16.0003   24.8259 C.3     1  UNL1        0.0700
     23 H          -8.1956  -14.1674   25.6990 H       1  UNL1        0.1232
@<TRIPOS>BOND
     1    11    12    1
     2    12    13   ar
     3    13    14   ar
     4    14    15   ar
     5    15    10    1
     6    10     1    1
     7     1    18    1
     8    18    19    1
     9    19    20    1
    10    20    21    1
    11    21    22    1
    12     1     2    1
    13     2     3   ar
    14     3     4   ar
    15     4     5   ar
    16     5     6    1
    17     5     7   ar
    18     7     8    1
    19     7     9   ar
    20    15    16   ar
    21    16    17   ar
    22    17    12   ar
    23    22    19    1
    24     9     2   ar
    25    21    23    1
@<TRIPOS>MOLECULE
*****
 23 25 0 0 0
SMALL
GASTEIGER

@<TRIPOS>ATOM
      1 C          -8.7324  -18.9449   21.0010 C.3     1  UNL1        0.1883
      2 C          -8.6987  -18.0697   22.2188 C.ar    1  UNL1        0.0195
      3 C          -8.0980  -16.6975   22.1398 C.ar    1  UNL1        0.0002
      4 C          -8.0642  -15.8224   23.3575 C.ar    1  UNL1        0.0135
      5 C          -8.6312  -16.3193   24.6543 C.ar    1  UNL1        0.0850
      6 CL         -8.5974  -15.4441   25.8720 Cl      1  UNL1       -0.0799
      7 C          -9.2319  -17.6915   24.7333 C.ar    1  UNL1        0.1504
      8 F          -9.7989  -18.1885   26.0300 F       1  UNL1       -0.2033
      9 C          -9.2657  -18.5667   23.5155 C.ar    1  UNL1        0.0297
     10 O          -7.6835  -19.9993   20.8058 O.3     1  UNL1       -0.4748
     11 F          -1.8730  -18.5665   21.2364 F       1  UNL1       -0.2042
     12 C          -3.3256  -18.9247   21.1288 C.ar    1  UNL1        0.1403
     13 C          -4.0181  -18.8577   19.7999 C.ar    1  UNL1        0.0327
     14 C          -5.4708  -19.2159   19.6923 C.ar    1  UNL1        0.0392
     15 C          -6.2309  -19.6411   20.9135 C.ar    1  UNL1        0.1390
     16 C          -5.5384  -19.7080   22.2423 C.ar    1  UNL1        0.0392
     17 C          -4.0858  -19.3498   22.3500 C.ar    1  UNL1        0.0327
     18 C          -9.8151  -18.7657   19.9784 C.3     1  UNL1        0.0510
     19 C         -10.9880  -17.8791   20.2755 C.3     1  UNL1        0.0354
     20 C         -12.2205  -17.9987   21.1222 C.3     1  UNL1        0.0700
     21 N         -12.6468  -16.6253   20.6956 N.3     1  UNL1       -0.2974
     22 C         -11.4144  -16.5057   19.8489 C.3     1  UNL1        0.0700
     23 H         -12.6957  -15.9490   21.4576 H       1  UNL1        0.1232
@<TRIPOS>BOND
     1    11    12    1
     2    12    13   ar
     3    13    14   ar
     4    14    15   ar
     5    15    10    1
     6    10     1    1
     7     1    18    1
     8    18    19    1
     9    19    20    1
    10    20    21    1
    11    21    22    1
    12     1     2    1
    13     2     3   ar
    14     3     4   ar
    15     4     5   ar
    16     5     6    1
    17     5     7   ar
    18     7     8    1
    19     7     9   ar
    20    15    16   ar
    21    16    17   ar
    22    17    12   ar
    23    22    19    1
    24     9     2   ar
    25    21    23    1
@<TRIPOS>MOLECULE
*****
 23 25 0 0 0
SMALL
GASTEIGER

@<TRIPOS>ATOM
      1 C          -8.4132  -17.9548   22.3096 C.3     1  UNL1        0.1883
      2 C          -7.2805  -18.7181   21.6894 C.ar    1  UNL1        0.0195
      3 C          -7.5209  -19.5578   20.4699 C.ar    1  UNL1        0.0002
      4 C          -6.3884  -20.3211   19.8497 C.ar    1  UNL1        0.0135
      5 C          -5.0153  -20.2447   20.4489 C.ar    1  UNL1        0.0850
      6 CL         -3.8828  -21.0079   19.8287 Cl      1  UNL1       -0.0799
      7 C          -4.7749  -19.4050   21.6684 C.ar    1  UNL1        0.1504
      8 F          -3.4020  -19.3286   22.2677 F       1  UNL1       -0.2033
      9 C          -5.9076  -18.6417   22.2886 C.ar    1  UNL1        0.0297
     10 O          -8.2550  -16.4950   22.6157 O.3     1  UNL1       -0.4748
     11 F          -6.4519  -14.7508   28.0661 F       1  UNL1       -0.2042
     12 C          -6.9027  -15.1868   26.7035 C.ar    1  UNL1        0.1403
     13 C          -5.9249  -15.2251   25.5666 C.ar    1  UNL1        0.0327
     14 C          -6.3757  -15.6611   24.2040 C.ar    1  UNL1        0.0392
     15 C          -7.8042  -16.0589   23.9783 C.ar    1  UNL1        0.1390
     16 C          -8.7820  -16.0207   25.1152 C.ar    1  UNL1        0.0392
     17 C          -8.3312  -15.5846   26.4778 C.ar    1  UNL1        0.0327
     18 C          -9.7039  -18.6515   22.6237 C.3     1  UNL1        0.0510
     19 C         -10.9774  -18.2009   21.9714 C.3     1  UNL1        0.0354
     20 C         -12.3592  -17.8745   22.4554 C.3     1  UNL1        0.0700
     21 N         -12.7783  -17.5637   21.0490 N.3     1  UNL1       -0.2974
     22 C         -11.3965  -17.8901   20.5651 C.3     1  UNL1        0.0700
     23 H         -13.0526  -16.5925   20.9013 H       1  UNL1        0.1232
@<TRIPOS>BOND
     1    11    12    1
     2    12    13   ar
     3    13    14   ar
     4    14    15   ar
     5    15    10    1
     6    10     1    1
     7     1    18    1
     8    18    19    1
     9    19    20    1
    10    20    21    1
    11    21    22    1
    12     1     2    1
    13     2     3   ar
    14     3     4   ar
    15     4     5   ar
    16     5     6    1
    17     5     7   ar
    18     7     8    1
    19     7     9   ar
    20    15    16   ar
    21    16    17   ar
    22    17    12   ar
    23    22    19    1
    24     9     2   ar
    25    21    23    1
@<TRIPOS>MOLECULE
*****
 23 25 0 0 0
SMALL
GASTEIGER

@<TRIPOS>ATOM
      1 C          -9.8631  -17.1945   23.3956 C.3     1  UNL1        0.1883
      2 C          -8.6621  -16.5994   24.0689 C.ar    1  UNL1        0.0195
      3 C          -7.3875  -16.4121   23.3006 C.ar    1  UNL1        0.0002
      4 C          -6.1864  -15.8170   23.9739 C.ar    1  UNL1        0.0135
      5 C          -6.2599  -15.4093   25.4156 C.ar    1  UNL1        0.0850
      6 CL         -5.0589  -14.8142   26.0889 Cl      1  UNL1       -0.0799
      7 C          -7.5345  -15.5966   26.1839 C.ar    1  UNL1        0.1504
      8 F          -7.6080  -15.1890   27.6256 F       1  UNL1       -0.2033
      9 C          -8.7356  -16.1917   25.5106 C.ar    1  UNL1        0.0297
     10 O          -9.8900  -18.6575   23.0657 O.3     1  UNL1       -0.4748
     11 F          -8.5927  -20.5035   17.5061 F       1  UNL1       -0.2042
     12 C          -8.9170  -20.0420   18.8960 C.ar    1  UNL1        0.1403
     13 C          -7.8123  -19.6664   19.8385 C.ar    1  UNL1        0.0327
     14 C          -8.1366  -19.2049   21.2284 C.ar    1  UNL1        0.0392
     15 C          -9.5657  -19.1190   21.6758 C.ar    1  UNL1        0.1390
     16 C         -10.6705  -19.4946   20.7333 C.ar    1  UNL1        0.0392
     17 C         -10.3461  -19.9561   19.3434 C.ar    1  UNL1        0.0327
     18 C         -11.0373  -16.3265   23.0522 C.3     1  UNL1        0.0510
     19 C         -11.4851  -16.2003   21.6261 C.3     1  UNL1        0.0354
     20 C         -10.8513  -15.7212   20.3538 C.3     1  UNL1        0.0700
     21 N         -12.1183  -16.0219   19.6093 N.3     1  UNL1       -0.2974
     22 C         -12.7521  -16.5010   20.8816 C.3     1  UNL1        0.0700
     23 H         -12.0205  -16.7437   18.8953 H       1  UNL1        0.1232
@<TRIPOS>BOND
     1    11    12    1
     2    12    13   ar
     3    13    14   ar
     4    14    15   ar
     5    15    10    1
     6    10     1    1
     7     1    18    1
     8    18    19    1
     9    19    20    1
    10    20    21    1
    11    21    22    1
    12     1     2    1
    13     2     3   ar
    14     3     4   ar
    15     4     5   ar
    16     5     6    1
    17     5     7   ar
    18     7     8    1
    19     7     9   ar
    20    15    16   ar
    21    16    17   ar
    22    17    12   ar
    23    22    19    1
    24     9     2   ar
    25    21    23    1
@<TRIPOS>MOLECULE
*****
 23 25 0 0 0
SMALL
GASTEIGER

@<TRIPOS>ATOM
      1 C          -8.1971  -17.6297   22.2481 C.3     1  UNL1        0.1883
      2 C          -9.6244  -17.7415   22.6958 C.ar    1  UNL1        0.0195
      3 C         -10.0545  -18.8980   23.5487 C.ar    1  UNL1        0.0002
      4 C         -11.4817  -19.0099   23.9964 C.ar    1  UNL1        0.0135
      5 C         -12.4789  -17.9651   23.5913 C.ar    1  UNL1        0.0850
      6 CL        -13.9061  -18.0769   24.0390 Cl      1  UNL1       -0.0799
      7 C         -12.0488  -16.8085   22.7384 C.ar    1  UNL1        0.1504
      8 F         -13.0459  -15.7638   22.3333 F       1  UNL1       -0.2033
      9 C         -10.6215  -16.6967   22.2907 C.ar    1  UNL1        0.0297
     10 O          -7.4145  -16.3841   22.5412 O.3     1  UNL1       -0.4748
     11 F          -6.4285  -14.7278   28.2231 F       1  UNL1       -0.2042
     12 C          -6.6750  -15.1419   26.8027 C.ar    1  UNL1        0.1403
     13 C          -5.5228  -15.2884   25.8535 C.ar    1  UNL1        0.0327
     14 C          -5.7693  -15.7025   24.4330 C.ar    1  UNL1        0.0392
     15 C          -7.1680  -15.9700   23.9617 C.ar    1  UNL1        0.1390
     16 C          -8.3201  -15.8235   24.9109 C.ar    1  UNL1        0.0392
     17 C          -8.0736  -15.4094   26.3314 C.ar    1  UNL1        0.0327
     18 C          -7.5525  -18.7636   21.5073 C.3     1  UNL1        0.0510
     19 C          -8.2373  -19.3675   20.3171 C.3     1  UNL1        0.0354
     20 C          -7.8181  -20.2774   19.2007 C.3     1  UNL1        0.0700
     21 N          -9.2058  -20.2214   18.6340 N.3     1  UNL1       -0.2974
     22 C          -9.6250  -19.3115   19.7504 C.3     1  UNL1        0.0700
     23 H          -9.6886  -21.1199   18.6255 H       1  UNL1        0.1232
@<TRIPOS>BOND
     1    11    12    1
     2    12    13   ar
     3    13    14   ar
     4    14    15   ar
     5    15    10    1
     6    10     1    1
     7     1    18    1
     8    18    19    1
     9    19    20    1
    10    20    21    1
    11    21    22    1
    12     1     2    1
    13     2     3   ar
    14     3     4   ar
    15     4     5   ar
    16     5     6    1
    17     5     7   ar
    18     7     8    1
    19     7     9   ar
    20    15    16   ar
    21    16    17   ar
    22    17    12   ar
    23    22    19    1
    24     9     2   ar
    25    21    23    1
@<TRIPOS>MOLECULE
*****
 23 25 0 0 0
SMALL
GASTEIGER

@<TRIPOS>ATOM
      1 C          -9.8533  -17.4526   23.4831 C.3     1  UNL1        0.1883
      2 C          -8.7016  -16.7846   24.1743 C.ar    1  UNL1        0.0195
      3 C          -7.4200  -16.5432   23.4333 C.ar    1  UNL1        0.0002
      4 C          -6.2684  -15.8753   24.1244 C.ar    1  UNL1        0.0135
      5 C          -6.3984  -15.4487   25.5566 C.ar    1  UNL1        0.0850
      6 CL         -5.2468  -14.7808   26.2477 Cl      1  UNL1       -0.0799
      7 C          -7.6800  -15.6902   26.2977 C.ar    1  UNL1        0.1504
      8 F          -7.8100  -15.2637   27.7298 F       1  UNL1       -0.2033
      9 C          -8.8317  -16.3581   25.6065 C.ar    1  UNL1        0.0297
     10 O         -10.1374  -17.1545   22.0408 O.3     1  UNL1       -0.4748
     11 F          -8.7521  -21.1828   17.8155 F       1  UNL1       -0.2042
     12 C          -9.0984  -20.1758   18.8718 C.ar    1  UNL1        0.1403
     13 C         -10.4958  -19.6390   18.9669 C.ar    1  UNL1        0.0327
     14 C         -10.8421  -18.6319   20.0233 C.ar    1  UNL1        0.0392
     15 C          -9.7911  -18.1616   20.9845 C.ar    1  UNL1        0.1390
     16 C          -8.3937  -18.6984   20.8894 C.ar    1  UNL1        0.0392
     17 C          -8.0473  -19.7054   19.8330 C.ar    1  UNL1        0.0327
     18 C         -10.7207  -18.4186   24.2344 C.3     1  UNL1        0.0510
     19 C         -12.2133  -18.2739   24.1946 C.3     1  UNL1        0.0354
     20 C         -13.3392  -18.6384   25.1162 C.3     1  UNL1        0.0700
     21 N         -14.3239  -18.0692   24.1383 N.3     1  UNL1       -0.2974
     22 C         -13.1980  -17.7046   23.2167 C.3     1  UNL1        0.0700
     23 H         -14.8476  -17.2689   24.4927 H       1  UNL1        0.1232
@<TRIPOS>BOND
     1    11    12    1
     2    12    13   ar
     3    13    14   ar
     4    14    15   ar
     5    15    10    1
     6    10     1    1
     7     1    18    1
     8    18    19    1
     9    19    20    1
    10    20    21    1
    11    21    22    1
    12     1     2    1
    13     2     3   ar
    14     3     4   ar
    15     4     5   ar
    16     5     6    1
    17     5     7   ar
    18     7     8    1
    19     7     9   ar
    20    15    16   ar
    21    16    17   ar
    22    17    12   ar
    23    22    19    1
    24     9     2   ar
    25    21    23    1
