@<TRIPOS>MOLECULE
*****
 28 31 0 0 0
SMALL
GASTEIGER

@<TRIPOS>ATOM
      1 C          -5.8470  -15.6456   26.1125 C.ar    1  UNL1        0.1386
      2 C          -4.8421  -16.7476   26.2733 C.ar    1  UNL1        0.0369
      3 C          -4.1137  -17.2793   25.0746 C.ar    1  UNL1        0.0047
      4 C          -4.3903  -16.7089   23.7151 C.ar    1  UNL1        0.0192
      5 C          -5.3951  -15.6069   23.5543 C.ar    1  UNL1        0.0047
      6 C          -6.1235  -15.0753   24.7530 C.ar    1  UNL1        0.0369
      7 C          -3.6619  -17.2405   22.5164 C.ar    1  UNL1        0.0968
      8 N          -2.4011  -16.5758   22.0492 N.ar    1  UNL1       -0.1671
      9 N          -1.6727  -17.1075   20.8505 N.ar    1  UNL1       -0.2149
     10 C          -0.4118  -16.4427   20.3833 C.3     1  UNL1        0.1571
     11 C          -2.2052  -18.3038   20.1190 C.ar    1  UNL1        0.2721
     12 O          -1.4769  -18.8355   18.9203 O.2     1  UNL1       -0.2659
     13 C          -3.4662  -18.9686   20.5862 C.ar    1  UNL1        0.0329
     14 C          -4.1945  -18.4370   21.7849 C.ar    1  UNL1       -0.0022
     15 C          -5.4554  -19.1017   22.2521 C.3     1  UNL1        0.0278
     16 C          -5.9879  -20.2980   21.5207 C.3     1  UNL1        0.0051
     17 C          -5.2595  -20.8297   20.3220 C.3     1  UNL1        0.0052
     18 C          -3.9987  -20.1650   19.8548 C.3     1  UNL1        0.0310
     19 O          -6.5753  -15.1139   27.3112 O.3     1  UNL1       -0.4754
     20 C          -8.0280  -15.4317   27.5080 C.3     1  UNL1        0.2068
     21 C          -8.6155  -16.6672   26.8929 C.3     1  UNL1        0.0646
     22 C          -9.1893  -16.6154   25.5079 C.3     1  UNL1        0.0759
     23 C          -8.4592  -17.0895   22.3628 C.3     1  UNL1        0.0173
     24 C          -9.0642  -18.1017   23.2897 C.3     1  UNL1        0.0576
     25 C          -9.4399  -19.5096   22.9337 C.3     1  UNL1        0.0174
     26 C         -10.0078  -20.1618   24.1594 C.3     1  UNL1        0.0187
     27 C          -9.9830  -19.1571   25.2729 C.3     1  UNL1        0.0721
     28 N          -9.3999  -17.8838   24.7354 N.3     1  UNL1       -0.2738
@<TRIPOS>BOND
     1    24    23    1
     2    24    25    1
     3    25    26    1
     4    26    27    1
     5    27    28    1
     6    28    22    1
     7    22    21    1
     8    21    20    1
     9    20    19    1
    10    19     1    1
    11     1     2   ar
    12     2     3   ar
    13     3     4   ar
    14     4     7    1
    15     7     8   ar
    16     8     9   ar
    17     9    10    1
    18     9    11   ar
    19    11    12    2
    20    11    13   ar
    21    13    14   ar
    22    14    15    1
    23    15    16    1
    24    16    17    1
    25    17    18    1
    26     4     5   ar
    27     5     6   ar
    28    28    24    1
    29     6     1   ar
    30    14     7   ar
    31    18    13    1
@<TRIPOS>MOLECULE
*****
 28 31 0 0 0
SMALL
GASTEIGER

@<TRIPOS>ATOM
      1 C         -10.1470  -16.0947   23.0509 C.ar    1  UNL1        0.1386
      2 C          -9.7319  -16.4979   21.6669 C.ar    1  UNL1        0.0369
      3 C          -8.3884  -17.1253   21.4397 C.ar    1  UNL1        0.0047
      4 C          -7.4601  -17.3494   22.5965 C.ar    1  UNL1        0.0192
      5 C          -7.8752  -16.9462   23.9803 C.ar    1  UNL1        0.0047
      6 C          -9.2186  -16.3189   24.2075 C.ar    1  UNL1        0.0369
      7 C          -6.1166  -17.9767   22.3693 C.ar    1  UNL1        0.0968
      8 N          -4.9011  -17.4105   23.0415 N.ar    1  UNL1       -0.1671
      9 N          -3.5577  -18.0378   22.8143 N.ar    1  UNL1       -0.2149
     10 C          -2.3422  -17.4716   23.4866 C.3     1  UNL1        0.1571
     11 C          -3.4297  -19.2314   21.9149 C.ar    1  UNL1        0.2721
     12 O          -2.0863  -19.8587   21.6877 O.2     1  UNL1       -0.2659
     13 C          -4.6453  -19.7976   21.2426 C.ar    1  UNL1        0.0329
     14 C          -5.9887  -19.1703   21.4698 C.ar    1  UNL1       -0.0022
     15 C          -7.2042  -19.7365   20.7975 C.3     1  UNL1        0.0278
     16 C          -7.0762  -20.9300   19.8981 C.3     1  UNL1        0.0051
     17 C          -5.7328  -21.5574   19.6709 C.3     1  UNL1        0.0052
     18 C          -4.5173  -20.9912   20.3431 C.3     1  UNL1        0.0310
     19 O         -11.4904  -15.4674   23.2781 O.3     1  UNL1       -0.4754
     20 C         -12.6382  -15.8045   22.3733 C.3     1  UNL1        0.2068
     21 C         -12.9452  -17.2374   22.0532 C.3     1  UNL1        0.0646
     22 C         -13.0013  -18.2562   23.1528 C.3     1  UNL1        0.0759
     23 C         -11.0152  -19.9031   21.1546 C.3     1  UNL1        0.0173
     24 C         -10.8461  -19.7510   22.6373 C.3     1  UNL1        0.0576
     25 C          -9.7344  -20.3292   23.4617 C.3     1  UNL1        0.0174
     26 C          -9.9602  -19.9296   24.8898 C.3     1  UNL1        0.0187
     27 C         -11.2115  -19.1044   24.9479 C.3     1  UNL1        0.0721
     28 N         -11.7590  -18.9940   23.5557 N.3     1  UNL1       -0.2738
@<TRIPOS>BOND
     1    24    23    1
     2    24    25    1
     3    25    26    1
     4    26    27    1
     5    27    28    1
     6    28    22    1
     7    22    21    1
     8    21    20    1
     9    20    19    1
    10    19     1    1
    11     1     2   ar
    12     2     3   ar
    13     3     4   ar
    14     4     7    1
    15     7     8   ar
    16     8     9   ar
    17     9    10    1
    18     9    11   ar
    19    11    12    2
    20    11    13   ar
    21    13    14   ar
    22    14    15    1
    23    15    16    1
    24    16    17    1
    25    17    18    1
    26     4     5   ar
    27     5     6   ar
    28    28    24    1
    29     6     1   ar
    30    14     7   ar
    31    18    13    1
@<TRIPOS>MOLECULE
*****
 28 31 0 0 0
SMALL
GASTEIGER

@<TRIPOS>ATOM
      1 C          -9.9671  -18.1874   24.1915 C.ar    1  UNL1        0.1386
      2 C          -9.1636  -16.9297   24.0396 C.ar    1  UNL1        0.0369
      3 C          -7.7945  -16.9836   23.4293 C.ar    1  UNL1        0.0047
      4 C          -7.2287  -18.2951   22.9709 C.ar    1  UNL1        0.0192
      5 C          -8.0321  -19.5526   23.1228 C.ar    1  UNL1        0.0047
      6 C          -9.4013  -19.4987   23.7331 C.ar    1  UNL1        0.0369
      7 C          -5.8595  -18.3490   22.3607 C.ar    1  UNL1        0.0968
      8 N          -4.8390  -17.3084   22.7150 N.ar    1  UNL1       -0.1671
      9 N          -3.4698  -17.3622   22.1047 N.ar    1  UNL1       -0.2149
     10 C          -2.4492  -16.3215   22.4591 C.3     1  UNL1        0.1571
     11 C          -3.1211  -18.4567   21.1401 C.ar    1  UNL1        0.2721
     12 O          -1.7520  -18.5106   20.5299 O.2     1  UNL1       -0.2659
     13 C          -4.1417  -19.4974   20.7857 C.ar    1  UNL1        0.0329
     14 C          -5.5109  -19.4435   21.3960 C.ar    1  UNL1       -0.0022
     15 C          -6.5314  -20.4841   21.0417 C.3     1  UNL1        0.0278
     16 C          -6.1828  -21.5786   20.0771 C.3     1  UNL1        0.0051
     17 C          -4.8136  -21.6325   19.4668 C.3     1  UNL1        0.0052
     18 C          -3.7930  -20.5919   19.8212 C.3     1  UNL1        0.0310
     19 O         -11.3363  -18.1335   24.8017 O.3     1  UNL1       -0.4754
     20 C         -12.5272  -18.5921   24.0136 C.3     1  UNL1        0.2068
     21 C         -13.2485  -17.6304   23.1164 C.3     1  UNL1        0.0646
     22 C         -13.1127  -17.7481   21.6272 C.3     1  UNL1        0.0759
     23 C         -10.5889  -15.8391   20.8294 C.3     1  UNL1        0.0173
     24 C         -10.6567  -17.3279   20.6594 C.3     1  UNL1        0.0576
     25 C          -9.5762  -18.2007   20.0928 C.3     1  UNL1        0.0174
     26 C         -10.0685  -19.6175   20.1093 C.3     1  UNL1        0.0187
     27 C         -11.4532  -19.6205   20.6861 C.3     1  UNL1        0.0721
     28 N         -11.8167  -18.2054   21.0261 N.3     1  UNL1       -0.2738
@<TRIPOS>BOND
     1    24    23    1
     2    24    25    1
     3    25    26    1
     4    26    27    1
     5    27    28    1
     6    28    22    1
     7    22    21    1
     8    21    20    1
     9    20    19    1
    10    19     1    1
    11     1     2   ar
    12     2     3   ar
    13     3     4   ar
    14     4     7    1
    15     7     8   ar
    16     8     9   ar
    17     9    10    1
    18     9    11   ar
    19    11    12    2
    20    11    13   ar
    21    13    14   ar
    22    14    15    1
    23    15    16    1
    24    16    17    1
    25    17    18    1
    26     4     5   ar
    27     5     6   ar
    28    28    24    1
    29     6     1   ar
    30    14     7   ar
    31    18    13    1
@<TRIPOS>MOLECULE
*****
 28 31 0 0 0
SMALL
GASTEIGER

@<TRIPOS>ATOM
      1 C         -10.5525  -18.7429   24.2469 C.ar    1  UNL1        0.1386
      2 C          -9.8229  -17.5591   23.6843 C.ar    1  UNL1        0.0369
      3 C          -8.5101  -17.7506   22.9843 C.ar    1  UNL1        0.0047
      4 C          -7.9270  -19.1258   22.8469 C.ar    1  UNL1        0.0192
      5 C          -8.6566  -20.3094   23.4095 C.ar    1  UNL1        0.0047
      6 C          -9.9693  -20.1180   24.1095 C.ar    1  UNL1        0.0369
      7 C          -6.6142  -19.3172   22.1468 C.ar    1  UNL1        0.0968
      8 N          -6.4533  -20.4204   21.1432 N.ar    1  UNL1       -0.1671
      9 N          -5.1406  -20.6118   20.4432 N.ar    1  UNL1       -0.2149
     10 C          -4.9797  -21.7150   19.4396 C.3     1  UNL1        0.1571
     11 C          -3.9888  -19.7002   20.7468 C.ar    1  UNL1        0.2721
     12 O          -2.6760  -19.8916   20.0467 O.2     1  UNL1       -0.2659
     13 C          -4.1496  -18.5970   21.7504 C.ar    1  UNL1        0.0329
     14 C          -5.4624  -18.4055   22.4504 C.ar    1  UNL1       -0.0022
     15 C          -5.6233  -17.3024   23.4540 C.3     1  UNL1        0.0278
     16 C          -4.4715  -16.3908   23.7575 C.3     1  UNL1        0.0051
     17 C          -3.1588  -16.5822   23.0575 C.3     1  UNL1        0.0052
     18 C          -2.9978  -17.6853   22.0539 C.3     1  UNL1        0.0310
     19 O         -11.8652  -18.5514   24.9470 O.3     1  UNL1       -0.4754
     20 C         -13.1184  -18.3474   24.1483 C.3     1  UNL1        0.2068
     21 C         -13.1695  -17.2841   23.0915 C.3     1  UNL1        0.0646
     22 C         -13.2464  -17.6686   21.6437 C.3     1  UNL1        0.0759
     23 C         -11.2632  -15.9848   19.6736 C.3     1  UNL1        0.0173
     24 C         -11.1213  -17.4326   20.0395 C.3     1  UNL1        0.0576
     25 C         -10.0429  -18.3605   19.5642 C.3     1  UNL1        0.0174
     26 C         -10.2880  -19.7080   20.1759 C.3     1  UNL1        0.0187
     27 C         -11.5179  -19.6129   21.0294 C.3     1  UNL1        0.0721
     28 N         -12.0329  -18.2065   20.9451 N.3     1  UNL1       -0.2738
@<TRIPOS>BOND
     1    24    23    1
     2    24    25    1
     3    25    26    1
     4    26    27    1
     5    27    28    1
     6    28    22    1
     7    22    21    1
     8    21    20    1
     9    20    19    1
    10    19     1    1
    11     1     2   ar
    12     2     3   ar
    13     3     4   ar
    14     4     7    1
    15     7     8   ar
    16     8     9   ar
    17     9    10    1
    18     9    11   ar
    19    11    12    2
    20    11    13   ar
    21    13    14   ar
    22    14    15    1
    23    15    16    1
    24    16    17    1
    25    17    18    1
    26     4     5   ar
    27     5     6   ar
    28    28    24    1
    29     6     1   ar
    30    14     7   ar
    31    18    13    1
@<TRIPOS>MOLECULE
*****
 28 31 0 0 0
SMALL
GASTEIGER

@<TRIPOS>ATOM
      1 C         -10.9078  -17.8066   20.6084 C.ar    1  UNL1        0.1386
      2 C          -9.9828  -16.8296   21.2718 C.ar    1  UNL1        0.0369
      3 C          -8.5357  -17.1764   21.4606 C.ar    1  UNL1        0.0047
      4 C          -8.0136  -18.5001   20.9860 C.ar    1  UNL1        0.0192
      5 C          -8.9385  -19.4770   20.3227 C.ar    1  UNL1        0.0047
      6 C         -10.3856  -19.1303   20.1339 C.ar    1  UNL1        0.0369
      7 C          -6.5665  -18.8469   21.1748 C.ar    1  UNL1        0.0968
      8 N          -5.9214  -19.8775   20.2964 N.ar    1  UNL1       -0.1671
      9 N          -4.4743  -20.2243   20.4852 N.ar    1  UNL1       -0.2149
     10 C          -3.8293  -21.2549   19.6067 C.3     1  UNL1        0.1571
     11 C          -3.6723  -19.5404   21.5524 C.ar    1  UNL1        0.2721
     12 O          -2.2252  -19.8872   21.7412 O.2     1  UNL1       -0.2659
     13 C          -4.3173  -18.5097   22.4309 C.ar    1  UNL1        0.0329
     14 C          -5.7644  -18.1630   22.2421 C.ar    1  UNL1       -0.0022
     15 C          -6.4095  -17.1324   23.1206 C.3     1  UNL1        0.0278
     16 C          -5.6074  -16.4485   24.1878 C.3     1  UNL1        0.0051
     17 C          -4.1603  -16.7953   24.3766 C.3     1  UNL1        0.0052
     18 C          -3.5153  -17.8259   23.4982 C.3     1  UNL1        0.0310
     19 O         -12.3549  -17.4599   20.4196 O.3     1  UNL1       -0.4754
     20 C         -13.1666  -16.9699   21.5820 C.3     1  UNL1        0.2068
     21 C         -13.4252  -17.8743   22.7505 C.3     1  UNL1        0.0646
     22 C         -12.5140  -17.8399   23.9415 C.3     1  UNL1        0.0759
     23 C          -9.5569  -16.9621   25.0069 C.3     1  UNL1        0.0173
     24 C          -9.9359  -18.3098   24.4685 C.3     1  UNL1        0.0576
     25 C          -9.0221  -19.4907   24.3252 C.3     1  UNL1        0.0174
     26 C          -9.8166  -20.6241   23.7470 C.3     1  UNL1        0.0187
     27 C         -11.2214  -20.1437   23.5329 C.3     1  UNL1        0.0721
     28 N         -11.2951  -18.7133   23.9788 N.3     1  UNL1       -0.2738
@<TRIPOS>BOND
     1    24    23    1
     2    24    25    1
     3    25    26    1
     4    26    27    1
     5    27    28    1
     6    28    22    1
     7    22    21    1
     8    21    20    1
     9    20    19    1
    10    19     1    1
    11     1     2   ar
    12     2     3   ar
    13     3     4   ar
    14     4     7    1
    15     7     8   ar
    16     8     9   ar
    17     9    10    1
    18     9    11   ar
    19    11    12    2
    20    11    13   ar
    21    13    14   ar
    22    14    15    1
    23    15    16    1
    24    16    17    1
    25    17    18    1
    26     4     5   ar
    27     5     6   ar
    28    28    24    1
    29     6     1   ar
    30    14     7   ar
    31    18    13    1
@<TRIPOS>MOLECULE
*****
 28 31 0 0 0
SMALL
GASTEIGER

@<TRIPOS>ATOM
      1 C          -5.5264  -15.5205   25.8103 C.ar    1  UNL1        0.1386
      2 C          -4.5894  -16.6762   26.0011 C.ar    1  UNL1        0.0369
      3 C          -4.2228  -17.5450   24.8345 C.ar    1  UNL1        0.0047
      4 C          -4.7933  -17.2580   23.4772 C.ar    1  UNL1        0.0192
      5 C          -5.7303  -16.1024   23.2864 C.ar    1  UNL1        0.0047
      6 C          -6.0969  -15.2336   24.4530 C.ar    1  UNL1        0.0369
      7 C          -4.4267  -18.1268   22.3106 C.ar    1  UNL1        0.0968
      8 N          -5.3084  -19.2779   21.9265 N.ar    1  UNL1       -0.1671
      9 N          -4.9418  -20.1467   20.7599 N.ar    1  UNL1       -0.2149
     10 C          -5.8235  -21.2979   20.3758 C.3     1  UNL1        0.1571
     11 C          -3.6936  -19.8644   19.9775 C.ar    1  UNL1        0.2721
     12 O          -3.3271  -20.7332   18.8110 O.2     1  UNL1       -0.2659
     13 C          -2.8119  -18.7132   20.3616 C.ar    1  UNL1        0.0329
     14 C          -3.1785  -17.8444   21.5282 C.ar    1  UNL1       -0.0022
     15 C          -2.2968  -16.6933   21.9123 C.3     1  UNL1        0.0278
     16 C          -1.0486  -16.4110   21.1299 C.3     1  UNL1        0.0051
     17 C          -0.6821  -17.2798   19.9633 C.3     1  UNL1        0.0052
     18 C          -1.5637  -18.4309   19.5792 C.3     1  UNL1        0.0310
     19 O          -5.8930  -14.6517   26.9768 O.3     1  UNL1       -0.4754
     20 C          -7.0421  -15.0314   27.8630 C.3     1  UNL1        0.2068
     21 C          -8.3682  -15.3888   27.2597 C.3     1  UNL1        0.0646
     22 C          -8.5711  -16.7405   26.6416 C.3     1  UNL1        0.0759
     23 C          -9.9026  -19.4365   25.3736 C.3     1  UNL1        0.0173
     24 C          -9.8151  -18.0973   24.7035 C.3     1  UNL1        0.0576
     25 C         -10.3243  -17.7623   23.3329 C.3     1  UNL1        0.0174
     26 C         -10.0270  -16.3160   23.0687 C.3     1  UNL1        0.0187
     27 C          -9.3340  -15.7571   24.2760 C.3     1  UNL1        0.0721
     28 N          -9.2031  -16.8581   25.2864 N.3     1  UNL1       -0.2738
@<TRIPOS>BOND
     1    24    23    1
     2    24    25    1
     3    25    26    1
     4    26    27    1
     5    27    28    1
     6    28    22    1
     7    22    21    1
     8    21    20    1
     9    20    19    1
    10    19     1    1
    11     1     2   ar
    12     2     3   ar
    13     3     4   ar
    14     4     7    1
    15     7     8   ar
    16     8     9   ar
    17     9    10    1
    18     9    11   ar
    19    11    12    2
    20    11    13   ar
    21    13    14   ar
    22    14    15    1
    23    15    16    1
    24    16    17    1
    25    17    18    1
    26     4     5   ar
    27     5     6   ar
    28    28    24    1
    29     6     1   ar
    30    14     7   ar
    31    18    13    1
@<TRIPOS>MOLECULE
*****
 28 31 0 0 0
SMALL
GASTEIGER

@<TRIPOS>ATOM
      1 C           5.5246   -2.6247   18.6336 C.ar    1  UNL1        0.1386
      2 C           6.8833   -2.3226   19.1931 C.ar    1  UNL1        0.0369
      3 C           7.2563   -2.8108   20.5615 C.ar    1  UNL1        0.0047
      4 C           6.2707   -3.6009   21.3705 C.ar    1  UNL1        0.0192
      5 C           4.9122   -3.9029   20.8110 C.ar    1  UNL1        0.0047
      6 C           4.5391   -3.4147   19.4426 C.ar    1  UNL1        0.0369
      7 C           6.6438   -4.0890   22.7389 C.ar    1  UNL1        0.0968
      8 N           7.3763   -5.3883   22.8978 N.ar    1  UNL1       -0.1671
      9 N           7.7493   -5.8764   24.2663 N.ar    1  UNL1       -0.2149
     10 C           8.4819   -7.1757   24.4252 C.3     1  UNL1        0.1571
     11 C           7.3899   -5.0652   25.4757 C.ar    1  UNL1        0.2721
     12 O           7.7630   -5.5533   26.8441 O.2     1  UNL1       -0.2659
     13 C           6.6574   -3.7659   25.3168 C.ar    1  UNL1        0.0329
     14 C           6.2843   -3.2778   23.9484 C.ar    1  UNL1       -0.0022
     15 C           5.5519   -1.9785   23.7894 C.3     1  UNL1        0.0278
     16 C           5.1925   -1.1673   24.9988 C.3     1  UNL1        0.0051
     17 C           5.5655   -1.6554   26.3672 C.3     1  UNL1        0.0052
     18 C           6.2980   -2.9547   26.5262 C.3     1  UNL1        0.0310
     19 O           5.1515   -2.1366   17.2652 O.3     1  UNL1       -0.4754
     20 C           4.3251   -0.8942   17.1115 C.3     1  UNL1        0.2068
     21 C           4.8978    0.4392   17.4908 C.3     1  UNL1        0.0646
     22 C           4.3750    1.1648   18.6951 C.3     1  UNL1        0.0759
     23 C           1.1507    0.7310   18.4398 C.3     1  UNL1        0.0173
     24 C           2.0189    0.2491   19.5641 C.3     1  UNL1        0.0576
     25 C           1.5574   -0.5168   20.7684 C.3     1  UNL1        0.0174
     26 C           2.7542   -0.7908   21.6301 C.3     1  UNL1        0.0187
     27 C           3.9555   -0.1942   20.9584 C.3     1  UNL1        0.0721
     28 N           3.5009    0.4485   19.6814 N.3     1  UNL1       -0.2738
@<TRIPOS>BOND
     1    24    23    1
     2    24    25    1
     3    25    26    1
     4    26    27    1
     5    27    28    1
     6    28    22    1
     7    22    21    1
     8    21    20    1
     9    20    19    1
    10    19     1    1
    11     1     2   ar
    12     2     3   ar
    13     3     4   ar
    14     4     7    1
    15     7     8   ar
    16     8     9   ar
    17     9    10    1
    18     9    11   ar
    19    11    12    2
    20    11    13   ar
    21    13    14   ar
    22    14    15    1
    23    15    16    1
    24    16    17    1
    25    17    18    1
    26     4     5   ar
    27     5     6   ar
    28    28    24    1
    29     6     1   ar
    30    14     7   ar
    31    18    13    1
@<TRIPOS>MOLECULE
*****
 28 31 0 0 0
SMALL
GASTEIGER

@<TRIPOS>ATOM
      1 C           4.7004   -0.6463   21.5744 C.ar    1  UNL1        0.1386
      2 C           3.8717   -1.7382   22.1838 C.ar    1  UNL1        0.0369
      3 C           4.5332   -2.8349   22.9646 C.ar    1  UNL1        0.0047
      4 C           6.0234   -2.8398   23.1360 C.ar    1  UNL1        0.0192
      5 C           6.8520   -1.7480   22.5266 C.ar    1  UNL1        0.0047
      6 C           6.1905   -0.6512   21.7459 C.ar    1  UNL1        0.0369
      7 C           6.6850   -3.9365   23.9168 C.ar    1  UNL1        0.0968
      8 N           7.3519   -5.0716   23.1981 N.ar    1  UNL1       -0.1671
      9 N           8.0134   -6.1683   23.9788 N.ar    1  UNL1       -0.2149
     10 C           8.6804   -7.3035   23.2600 C.3     1  UNL1        0.1571
     11 C           8.0080   -6.1299   25.4783 C.ar    1  UNL1        0.2721
     12 O           8.6695   -7.2266   26.2591 O.2     1  UNL1       -0.2659
     13 C           7.3410   -4.9947   26.1971 C.ar    1  UNL1        0.0329
     14 C           6.6795   -3.8980   25.4163 C.ar    1  UNL1       -0.0022
     15 C           6.0126   -2.7628   26.1350 C.3     1  UNL1        0.0278
     16 C           6.0072   -2.7244   27.6345 C.3     1  UNL1        0.0051
     17 C           6.6687   -3.8211   28.4152 C.3     1  UNL1        0.0052
     18 C           7.3356   -4.9563   27.6965 C.3     1  UNL1        0.0310
     19 O           4.0388    0.4504   20.7937 O.3     1  UNL1       -0.4754
     20 C           4.3488    0.6259   19.3366 C.3     1  UNL1        0.2068
     21 C           3.4951   -0.0455   18.3020 C.3     1  UNL1        0.0646
     22 C           3.9789   -1.2939   17.6255 C.3     1  UNL1        0.0759
     23 C           6.9885   -2.2370   18.4635 C.3     1  UNL1        0.0173
     24 C           5.7122   -2.9357   18.8276 C.3     1  UNL1        0.0576
     25 C           5.5951   -4.1906   19.6410 C.3     1  UNL1        0.0174
     26 C           4.1394   -4.5327   19.7584 C.3     1  UNL1        0.0187
     27 C           3.3567   -3.4893   19.0177 C.3     1  UNL1        0.0721
     28 N           4.3288   -2.5022   18.4425 N.3     1  UNL1       -0.2738
@<TRIPOS>BOND
     1    24    23    1
     2    24    25    1
     3    25    26    1
     4    26    27    1
     5    27    28    1
     6    28    22    1
     7    22    21    1
     8    21    20    1
     9    20    19    1
    10    19     1    1
    11     1     2   ar
    12     2     3   ar
    13     3     4   ar
    14     4     7    1
    15     7     8   ar
    16     8     9   ar
    17     9    10    1
    18     9    11   ar
    19    11    12    2
    20    11    13   ar
    21    13    14   ar
    22    14    15    1
    23    15    16    1
    24    16    17    1
    25    17    18    1
    26     4     5   ar
    27     5     6   ar
    28    28    24    1
    29     6     1   ar
    30    14     7   ar
    31    18    13    1
@<TRIPOS>MOLECULE
*****
 28 31 0 0 0
SMALL
GASTEIGER

@<TRIPOS>ATOM
      1 C           6.0387   -2.8181   19.3608 C.ar    1  UNL1        0.1386
      2 C           7.3627   -2.5027   19.9913 C.ar    1  UNL1        0.0369
      3 C           7.6249   -2.8873   21.4173 C.ar    1  UNL1        0.0047
      4 C           6.5630   -3.5873   22.2127 C.ar    1  UNL1        0.0192
      5 C           5.2391   -3.9026   21.5821 C.ar    1  UNL1        0.0047
      6 C           4.9769   -3.5180   20.1562 C.ar    1  UNL1        0.0369
      7 C           6.8252   -3.9719   23.6386 C.ar    1  UNL1        0.0968
      8 N           6.2908   -3.1240   24.7545 N.ar    1  UNL1       -0.1671
      9 N           6.5530   -3.5086   26.1805 N.ar    1  UNL1       -0.2149
     10 C           6.0186   -2.6605   27.2964 C.3     1  UNL1        0.1571
     11 C           7.3496   -4.7411   26.4905 C.ar    1  UNL1        0.2721
     12 O           7.6118   -5.1257   27.9165 O.2     1  UNL1       -0.2659
     13 C           7.8841   -5.5892   25.3746 C.ar    1  UNL1        0.0329
     14 C           7.6219   -5.2046   23.9486 C.ar    1  UNL1       -0.0022
     15 C           8.1563   -6.0525   22.8327 C.3     1  UNL1        0.0278
     16 C           8.9529   -7.2851   23.1427 C.3     1  UNL1        0.0051
     17 C           9.2151   -7.6697   24.5687 C.3     1  UNL1        0.0052
     18 C           8.6807   -6.8217   25.6846 C.3     1  UNL1        0.0310
     19 O           5.7765   -2.4335   17.9348 O.3     1  UNL1       -0.4754
     20 C           4.6846   -1.4577   17.6098 C.3     1  UNL1        0.2068
     21 C           4.8762    0.0032   17.8909 C.3     1  UNL1        0.0646
     22 C           4.0268    0.6864   18.9214 C.3     1  UNL1        0.0759
     23 C           1.4707   -0.8814   20.2091 C.3     1  UNL1        0.0173
     24 C           2.7677   -0.5900   20.9040 C.3     1  UNL1        0.0576
     25 C           3.1175   -0.9680   22.3128 C.3     1  UNL1        0.0174
     26 C           4.5085   -0.4810   22.5916 C.3     1  UNL1        0.0187
     27 C           5.0186    0.1980   21.3551 C.3     1  UNL1        0.0721
     28 N           3.9426    0.1307   20.3121 N.3     1  UNL1       -0.2738
@<TRIPOS>BOND
     1    24    23    1
     2    24    25    1
     3    25    26    1
     4    26    27    1
     5    27    28    1
     6    28    22    1
     7    22    21    1
     8    21    20    1
     9    20    19    1
    10    19     1    1
    11     1     2   ar
    12     2     3   ar
    13     3     4   ar
    14     4     7    1
    15     7     8   ar
    16     8     9   ar
    17     9    10    1
    18     9    11   ar
    19    11    12    2
    20    11    13   ar
    21    13    14   ar
    22    14    15    1
    23    15    16    1
    24    16    17    1
    25    17    18    1
    26     4     5   ar
    27     5     6   ar
    28    28    24    1
    29     6     1   ar
    30    14     7   ar
    31    18    13    1
