@<TRIPOS>MOLECULE
*****
 40 44 0 0 0
SMALL
GASTEIGER

@<TRIPOS>ATOM
      1 C           1.4096    1.3712   27.6741 C.2     1  UNL1        0.2252
      2 O           0.1800    2.1865   27.9447 O.2     1  UNL1       -0.2749
      3 N           1.7482    0.9682   26.2695 N.am    1  UNL1       -0.2794
      4 C           0.8572    1.3807   25.1355 C.3     1  UNL1        0.0953
      5 C           1.1958    0.9777   23.7308 C.3     1  UNL1        0.0442
      6 C           2.4255    0.1623   23.4602 C.3     1  UNL1        0.0933
      7 C           3.3164   -0.2501   24.5942 C.3     1  UNL1        0.0442
      8 C           2.9778    0.1529   25.9989 C.3     1  UNL1        0.0953
      9 N           2.7641   -0.2406   22.0556 N.ar    1  UNL1       -0.2817
     10 C           2.4513    0.5413   20.8143 C.ar    1  UNL1        0.3317
     11 O           1.7449    1.8635   20.7597 O.2     1  UNL1       -0.2463
     12 N           2.9688   -0.2311   19.6372 N.ar    1  UNL1       -0.2713
     13 C           3.6015   -1.4904   20.1510 C.ar    1  UNL1        0.0822
     14 C           4.2764   -2.6324   19.4509 C.ar    1  UNL1        0.0484
     15 C           4.8248   -3.7804   20.2455 C.ar    1  UNL1        0.1417
     16 F           5.4998   -4.9225   19.5454 F       1  UNL1       -0.2041
     17 C           4.6983   -3.7863   21.7401 C.ar    1  UNL1        0.0312
     18 C           4.0234   -2.6442   22.4402 C.ar    1  UNL1        0.0211
     19 C           3.4749   -1.4963   21.6456 C.ar    1  UNL1        0.0798
     20 C           2.8709    0.1831   18.1989 C.3     1  UNL1        0.2135
     21 C           4.0898    0.1528   17.3250 C.3     1  UNL1        0.4184
     22 F           5.3085    0.1225   16.4512 F       1  UNL1       -0.1679
     23 F           4.7194    1.2233   18.1662 F       1  UNL1       -0.1679
     24 F           3.4601   -0.9177   16.4839 F       1  UNL1       -0.1679
     25 N           4.0826    0.1339   31.0762 N.3     1  UNL1       -0.2689
     26 C           2.8830   -0.6955   30.7250 C.3     1  UNL1        0.0729
     27 C           1.9920   -0.2831   29.5909 C.3     1  UNL1        0.0264
     28 C           2.3006    0.9587   28.8081 C.3     1  UNL1        0.0795
     29 C           3.5001    1.7881   29.1593 C.3     1  UNL1        0.0264
     30 C           4.3911    1.3756   30.2933 C.3     1  UNL1        0.0729
     31 C           4.9736   -0.2786   32.2102 C.3     1  UNL1        0.0993
     32 N           6.3597   -5.2791   32.4813 N.pl3   1  UNL1       -0.3426
     33 C           6.6904   -3.8559   32.1417 C.ar    1  UNL1        0.1251
     34 C           5.6666   -2.7788   32.3457 C.ar    1  UNL1        0.0310
     35 C           5.9974   -1.3556   32.0062 C.ar    1  UNL1       -0.0018
     36 C           7.3520   -1.0097   31.4626 C.ar    1  UNL1        0.0179
     37 C           8.3757   -2.0868   31.2586 C.ar    1  UNL1        0.1000
     38 N           8.0449   -3.5100   31.5982 N.ar    1  UNL1       -0.2296
     39 H           5.4706   -5.5062   32.8380 H       1  UNL1        0.1437
     40 H           7.0316   -5.9860   32.3473 H       1  UNL1        0.1437
@<TRIPOS>BOND
     1    32    33    1
     2    33    34   ar
     3    34    35   ar
     4    35    31    1
     5    31    25    1
     6    25    26    1
     7    26    27    1
     8    27    28    1
     9    28     1    1
    10     1     2    2
    11     1     3   am
    12     3     4    1
    13     4     5    1
    14     5     6    1
    15     6     9    1
    16     9    10   ar
    17    10    11    2
    18    10    12   ar
    19    12    20    1
    20    20    21    1
    21    21    22    1
    22    21    23    1
    23    21    24    1
    24    12    13   ar
    25    13    14   ar
    26    14    15   ar
    27    15    16    1
    28    15    17   ar
    29    17    18   ar
    30    18    19   ar
    31     6     7    1
    32     7     8    1
    33    28    29    1
    34    29    30    1
    35    35    36   ar
    36    36    37   ar
    37    37    38   ar
    38    38    33   ar
    39    30    25    1
    40     8     3    1
    41    19     9   ar
    42    19    13   ar
    43    32    39    1
    44    32    40    1
@<TRIPOS>MOLECULE
*****
 40 44 0 0 0
SMALL
GASTEIGER

@<TRIPOS>ATOM
      1 C          -1.3955    3.8822   19.4235 C.2     1  UNL1        0.2252
      2 O          -1.3139    4.6563   18.1413 O.2     1  UNL1       -0.2749
      3 N          -0.3494    2.8576   19.7488 N.am    1  UNL1       -0.2794
      4 C           0.7783    2.6072   18.7920 C.3     1  UNL1        0.0953
      5 C           1.8245    1.5827   19.1173 C.3     1  UNL1        0.0442
      6 C           1.7429    0.8085   20.3995 C.3     1  UNL1        0.0933
      7 C           0.6153    1.0589   21.3563 C.3     1  UNL1        0.0442
      8 C          -0.4309    2.0835   21.0310 C.3     1  UNL1        0.0953
      9 N           2.7891   -0.2161   20.7248 N.ar    1  UNL1       -0.2817
     10 C           3.5727   -1.0221   19.7317 C.ar    1  UNL1        0.3317
     11 O           3.4477   -0.9451   18.2389 O.2     1  UNL1       -0.2463
     12 N           4.5032   -1.9187   20.4935 N.ar    1  UNL1       -0.2713
     13 C           4.2947   -1.6668   21.9574 C.ar    1  UNL1        0.0822
     14 C           4.9326   -2.2596   23.1787 C.ar    1  UNL1        0.0484
     15 C           4.5111   -1.8002   24.5430 C.ar    1  UNL1        0.1417
     16 F           5.1490   -2.3930   25.7644 F       1  UNL1       -0.2041
     17 C           3.4517   -0.7479   24.6859 C.ar    1  UNL1        0.0312
     18 C           2.8138   -0.1551   23.4647 C.ar    1  UNL1        0.0211
     19 C           3.2353   -0.6145   22.1004 C.ar    1  UNL1        0.0798
     20 C           5.4721   -2.8956   19.8963 C.3     1  UNL1        0.2135
     21 C           4.9682   -4.0421   19.0704 C.3     1  UNL1        0.4184
     22 F           4.4644   -5.1884   18.2445 F       1  UNL1       -0.1679
     23 F           4.3507   -4.6519   20.2938 F       1  UNL1       -0.1679
     24 F           5.5858   -3.4321   17.8471 F       1  UNL1       -0.1679
     25 N          -4.7786    4.6334   22.2942 N.3     1  UNL1       -0.2689
     26 C          -3.5850    5.5421   22.2872 C.3     1  UNL1        0.0729
     27 C          -2.4573    5.2917   21.3303 C.3     1  UNL1        0.0264
     28 C          -2.5232    4.1326   20.3804 C.3     1  UNL1        0.0795
     29 C          -3.7167    3.2240   20.3873 C.3     1  UNL1        0.0264
     30 C          -4.8444    3.4744   21.3442 C.3     1  UNL1        0.0729
     31 C          -5.9063    4.8838   23.2510 C.3     1  UNL1        0.0993
     32 N          -6.9635    6.8739   27.9331 N.pl3   1  UNL1       -0.3426
     33 C          -6.1671    5.9440   27.0665 C.ar    1  UNL1        0.1251
     34 C          -6.4349    5.8788   25.5920 C.ar    1  UNL1        0.0310
     35 C          -5.6384    4.9489   24.7254 C.ar    1  UNL1       -0.0018
     36 C          -4.5741    4.0842   25.3333 C.ar    1  UNL1        0.0179
     37 C          -4.3063    4.1494   26.8078 C.ar    1  UNL1        0.1000
     38 N          -5.1028    5.0793   27.6743 N.ar    1  UNL1       -0.2296
     39 H          -7.6621    7.4414   27.5342 H       1  UNL1        0.1437
     40 H          -6.7877    6.9166   28.9008 H       1  UNL1        0.1437
@<TRIPOS>BOND
     1    32    33    1
     2    33    34   ar
     3    34    35   ar
     4    35    31    1
     5    31    25    1
     6    25    26    1
     7    26    27    1
     8    27    28    1
     9    28     1    1
    10     1     2    2
    11     1     3   am
    12     3     4    1
    13     4     5    1
    14     5     6    1
    15     6     9    1
    16     9    10   ar
    17    10    11    2
    18    10    12   ar
    19    12    20    1
    20    20    21    1
    21    21    22    1
    22    21    23    1
    23    21    24    1
    24    12    13   ar
    25    13    14   ar
    26    14    15   ar
    27    15    16    1
    28    15    17   ar
    29    17    18   ar
    30    18    19   ar
    31     6     7    1
    32     7     8    1
    33    28    29    1
    34    29    30    1
    35    35    36   ar
    36    36    37   ar
    37    37    38   ar
    38    38    33   ar
    39    30    25    1
    40     8     3    1
    41    19     9   ar
    42    19    13   ar
    43    32    39    1
    44    32    40    1
@<TRIPOS>MOLECULE
*****
 40 44 0 0 0
SMALL
GASTEIGER

@<TRIPOS>ATOM
      1 C           2.2196    2.1857   25.8170 C.2     1  UNL1        0.2252
      2 O           3.1592    2.2921   26.9814 O.2     1  UNL1       -0.2749
      3 N           2.7031    1.6262   24.5119 N.am    1  UNL1       -0.2794
      4 C           4.1261    1.1731   24.3712 C.3     1  UNL1        0.0953
      5 C           4.6095    0.6137   23.0662 C.3     1  UNL1        0.0442
      6 C           3.6699    0.5073   21.9017 C.3     1  UNL1        0.0933
      7 C           2.2470    0.9604   22.0424 C.3     1  UNL1        0.0442
      8 C           1.7635    1.5199   23.3475 C.3     1  UNL1        0.0953
      9 N           4.1533   -0.0522   20.5966 N.ar    1  UNL1       -0.2817
     10 C           4.6264    0.7444   19.4169 C.ar    1  UNL1        0.3317
     11 O           4.6991    2.2404   19.3352 O.2     1  UNL1       -0.2463
     12 N           5.0140   -0.2176   18.3333 N.ar    1  UNL1       -0.2713
     13 C           4.7805   -1.6088   18.8432 C.ar    1  UNL1        0.0822
     14 C           4.9835   -2.9555   18.2146 C.ar    1  UNL1        0.0484
     15 C           4.6546   -4.1999   18.9847 C.ar    1  UNL1        0.1417
     16 F           4.8576   -5.5467   18.3561 F       1  UNL1       -0.2041
     17 C           4.1227   -4.0977   20.3835 C.ar    1  UNL1        0.0312
     18 C           3.9197   -2.7510   21.0122 C.ar    1  UNL1        0.0211
     19 C           4.2486   -1.5066   20.2420 C.ar    1  UNL1        0.0798
     20 C           5.5424    0.1474   16.9778 C.3     1  UNL1        0.2135
     21 C           6.8993    0.7730   16.8452 C.3     1  UNL1        0.4184
     22 F           8.2562    1.3985   16.7127 F       1  UNL1       -0.1679
     23 F           6.3142    1.8623   15.9961 F       1  UNL1       -0.1679
     24 F           7.4844   -0.3163   17.6943 F       1  UNL1       -0.1679
     25 N          -2.0493    3.5450   26.2390 N.3     1  UNL1       -0.2689
     26 C          -1.0580    4.4020   25.5088 C.3     1  UNL1        0.0729
     27 C           0.3650    3.9489   25.3682 C.3     1  UNL1        0.0264
     28 C           0.7966    2.6388   25.9577 C.3     1  UNL1        0.0795
     29 C          -0.1946    1.7819   26.6877 C.3     1  UNL1        0.0264
     30 C          -1.6176    2.2350   26.8284 C.3     1  UNL1        0.0729
     31 C          -3.4723    3.9981   26.3796 C.3     1  UNL1        0.0993
     32 N          -4.4406    2.5545   21.4829 N.pl3   1  UNL1       -0.3426
     33 C          -4.8798    3.2261   22.7502 C.ar    1  UNL1        0.1251
     34 C          -3.9565    3.2763   23.9313 C.ar    1  UNL1        0.0310
     35 C          -4.3957    3.9479   25.1986 C.ar    1  UNL1       -0.0018
     36 C          -5.7582    4.5692   25.2849 C.ar    1  UNL1        0.0179
     37 C          -6.6815    4.5190   24.1038 C.ar    1  UNL1        0.1000
     38 N          -6.2423    3.8474   22.8365 N.ar    1  UNL1       -0.2296
     39 H          -3.5463    2.1467   21.4262 H       1  UNL1        0.1437
     40 H          -5.0467    2.5215   20.7077 H       1  UNL1        0.1437
@<TRIPOS>BOND
     1    32    33    1
     2    33    34   ar
     3    34    35   ar
     4    35    31    1
     5    31    25    1
     6    25    26    1
     7    26    27    1
     8    27    28    1
     9    28     1    1
    10     1     2    2
    11     1     3   am
    12     3     4    1
    13     4     5    1
    14     5     6    1
    15     6     9    1
    16     9    10   ar
    17    10    11    2
    18    10    12   ar
    19    12    20    1
    20    20    21    1
    21    21    22    1
    22    21    23    1
    23    21    24    1
    24    12    13   ar
    25    13    14   ar
    26    14    15   ar
    27    15    16    1
    28    15    17   ar
    29    17    18   ar
    30    18    19   ar
    31     6     7    1
    32     7     8    1
    33    28    29    1
    34    29    30    1
    35    35    36   ar
    36    36    37   ar
    37    37    38   ar
    38    38    33   ar
    39    30    25    1
    40     8     3    1
    41    19     9   ar
    42    19    13   ar
    43    32    39    1
    44    32    40    1
@<TRIPOS>MOLECULE
*****
 40 44 0 0 0
SMALL
GASTEIGER

@<TRIPOS>ATOM
      1 C           1.6746    1.2701   28.7092 C.2     1  UNL1        0.2252
      2 O           0.4874    2.1078   29.0815 O.2     1  UNL1       -0.2749
      3 N           1.9120    0.9013   27.2747 N.am    1  UNL1       -0.2794
      4 C           0.9622    1.3702   26.2127 C.3     1  UNL1        0.0953
      5 C           1.1996    1.0014   24.7783 C.3     1  UNL1        0.0442
      6 C           2.3869    0.1636   24.4058 C.3     1  UNL1        0.0933
      7 C           3.3367   -0.3052   25.4679 C.3     1  UNL1        0.0442
      8 C           3.0993    0.0637   26.9023 C.3     1  UNL1        0.0953
      9 N           2.6243   -0.2052   22.9714 N.ar    1  UNL1       -0.2817
     10 C           3.5970   -1.2335   22.4748 C.ar    1  UNL1        0.3317
     11 O           4.5030   -2.0734   23.3254 O.2     1  UNL1       -0.2463
     12 N           3.5045   -1.2742   20.9782 N.ar    1  UNL1       -0.2713
     13 C           2.4747   -0.2712   20.5499 C.ar    1  UNL1        0.0822
     14 C           1.9621    0.1259   19.1973 C.ar    1  UNL1        0.0484
     15 C           0.9055    1.1837   19.0766 C.ar    1  UNL1        0.1417
     16 F           0.3928    1.5808   17.7240 F       1  UNL1       -0.2041
     17 C           0.3615    1.8444   20.3085 C.ar    1  UNL1        0.0312
     18 C           0.8741    1.4473   21.6611 C.ar    1  UNL1        0.0211
     19 C           1.9307    0.3895   21.7818 C.ar    1  UNL1        0.0798
     20 C           4.3018   -2.1622   20.0694 C.3     1  UNL1        0.2135
     21 C           3.6676   -3.3796   19.4645 C.3     1  UNL1        0.4184
     22 F           3.0334   -4.5969   18.8597 F       1  UNL1       -0.1679
     23 F           3.4789   -2.6397   18.1734 F       1  UNL1       -0.1679
     24 F           3.8563   -4.1194   20.7556 F       1  UNL1       -0.1679
     25 N           4.5242   -0.1364   31.8953 N.3     1  UNL1       -0.2689
     26 C           4.7518    1.1804   31.2138 C.3     1  UNL1        0.0729
     27 C           3.8019    1.6493   30.1517 C.3     1  UNL1        0.0264
     28 C           2.6245    0.8013   29.7712 C.3     1  UNL1        0.0795
     29 C           2.3970   -0.5154   30.4527 C.3     1  UNL1        0.0264
     30 C           3.3468   -0.9843   31.5147 C.3     1  UNL1        0.0729
     31 C           5.4741   -0.6053   32.9573 C.3     1  UNL1        0.0993
     32 N           6.6026   -5.5906   32.0228 N.pl3   1  UNL1       -0.3426
     33 C           7.0446   -4.1656   32.1781 C.ar    1  UNL1        0.1251
     34 C           6.0383   -3.0978   32.4901 C.ar    1  UNL1        0.0310
     35 C           6.4804   -1.6729   32.6453 C.ar    1  UNL1       -0.0018
     36 C           7.9288   -1.3157   32.4885 C.ar    1  UNL1        0.0179
     37 C           8.9351   -2.3834   32.1765 C.ar    1  UNL1        0.1000
     38 N           8.4930   -3.8083   32.0213 N.ar    1  UNL1       -0.2296
     39 H           5.6520   -5.8251   32.1257 H       1  UNL1        0.1437
     40 H           7.2631   -6.2913   31.8180 H       1  UNL1        0.1437
@<TRIPOS>BOND
     1    32    33    1
     2    33    34   ar
     3    34    35   ar
     4    35    31    1
     5    31    25    1
     6    25    26    1
     7    26    27    1
     8    27    28    1
     9    28     1    1
    10     1     2    2
    11     1     3   am
    12     3     4    1
    13     4     5    1
    14     5     6    1
    15     6     9    1
    16     9    10   ar
    17    10    11    2
    18    10    12   ar
    19    12    20    1
    20    20    21    1
    21    21    22    1
    22    21    23    1
    23    21    24    1
    24    12    13   ar
    25    13    14   ar
    26    14    15   ar
    27    15    16    1
    28    15    17   ar
    29    17    18   ar
    30    18    19   ar
    31     6     7    1
    32     7     8    1
    33    28    29    1
    34    29    30    1
    35    35    36   ar
    36    36    37   ar
    37    37    38   ar
    38    38    33   ar
    39    30    25    1
    40     8     3    1
    41    19     9   ar
    42    19    13   ar
    43    32    39    1
    44    32    40    1
@<TRIPOS>MOLECULE
*****
 40 44 0 0 0
SMALL
GASTEIGER

@<TRIPOS>ATOM
      1 C           3.2891   -0.2825   30.6837 C.2     1  UNL1        0.2252
      2 O           1.8499    0.1344   30.6136 O.2     1  UNL1       -0.2749
      3 N           3.9649   -0.8513   29.4713 N.am    1  UNL1       -0.2794
      4 C           3.2016   -1.0030   28.1890 C.3     1  UNL1        0.0953
      5 C           3.8775   -1.5717   26.9766 C.3     1  UNL1        0.0442
      6 C           5.3167   -1.9887   27.0466 C.3     1  UNL1        0.0933
      7 C           6.0799   -1.8370   28.3289 C.3     1  UNL1        0.0442
      8 C           5.4041   -1.2683   29.5413 C.3     1  UNL1        0.0953
      9 N           5.9926   -2.5575   25.8343 N.ar    1  UNL1       -0.2817
     10 C           6.2230   -1.8420   24.5362 C.ar    1  UNL1        0.3317
     11 O           5.8181   -0.4321   24.2226 O.2     1  UNL1       -0.2463
     12 N           6.9295   -2.7839   23.6069 N.ar    1  UNL1       -0.2713
     13 C           7.1357   -4.0815   24.3306 C.ar    1  UNL1        0.0822
     14 C           7.7759   -5.3724   23.9139 C.ar    1  UNL1        0.0484
     15 C           7.8370   -6.5233   24.8738 C.ar    1  UNL1        0.1417
     16 F           8.4773   -7.8143   24.4571 F       1  UNL1       -0.2041
     17 C           7.2580   -6.3834   26.2504 C.ar    1  UNL1        0.0312
     18 C           6.6178   -5.0925   26.6671 C.ar    1  UNL1        0.0211
     19 C           6.5566   -3.9416   25.7072 C.ar    1  UNL1        0.0798
     20 C           7.3551   -2.4813   22.2007 C.3     1  UNL1        0.2135
     21 C           6.7920   -3.2753   21.0594 C.3     1  UNL1        0.4184
     22 F           6.2288   -4.0692   19.9181 F       1  UNL1       -0.1679
     23 F           8.1677   -3.7710   20.7254 F       1  UNL1       -0.1679
     24 F           5.4163   -2.7795   21.3933 F       1  UNL1       -0.1679
     25 N           5.5790    0.1727   34.5306 N.3     1  UNL1       -0.2689
     26 C           5.4226    1.3448   33.6076 C.3     1  UNL1        0.0729
     27 C           4.6593    1.1931   32.3253 C.3     1  UNL1        0.0264
     28 C           4.0524   -0.1308   31.9660 C.3     1  UNL1        0.0795
     29 C           4.2088   -1.3029   32.8889 C.3     1  UNL1        0.0264
     30 C           4.9721   -1.1511   34.1712 C.3     1  UNL1        0.0729
     31 C           6.3423    0.3244   35.8129 C.3     1  UNL1        0.0993
     32 N           2.2268    0.6651   38.9667 N.pl3   1  UNL1       -0.3426
     33 C           3.6167    1.0888   38.5943 C.ar    1  UNL1        0.1251
     34 C           4.2846    0.4947   37.3897 C.ar    1  UNL1        0.0310
     35 C           5.6745    0.9185   37.0175 C.ar    1  UNL1       -0.0018
     36 C           6.3966    1.9363   37.8498 C.ar    1  UNL1        0.0179
     37 C           5.7287    2.5303   39.0544 C.ar    1  UNL1        0.1000
     38 N           4.3388    2.1066   39.4266 N.ar    1  UNL1       -0.2296
     39 H           1.7528   -0.0029   38.4204 H       1  UNL1        0.1437
     40 H           1.7885    1.0550   39.7573 H       1  UNL1        0.1437
@<TRIPOS>BOND
     1    32    33    1
     2    33    34   ar
     3    34    35   ar
     4    35    31    1
     5    31    25    1
     6    25    26    1
     7    26    27    1
     8    27    28    1
     9    28     1    1
    10     1     2    2
    11     1     3   am
    12     3     4    1
    13     4     5    1
    14     5     6    1
    15     6     9    1
    16     9    10   ar
    17    10    11    2
    18    10    12   ar
    19    12    20    1
    20    20    21    1
    21    21    22    1
    22    21    23    1
    23    21    24    1
    24    12    13   ar
    25    13    14   ar
    26    14    15   ar
    27    15    16    1
    28    15    17   ar
    29    17    18   ar
    30    18    19   ar
    31     6     7    1
    32     7     8    1
    33    28    29    1
    34    29    30    1
    35    35    36   ar
    36    36    37   ar
    37    37    38   ar
    38    38    33   ar
    39    30    25    1
    40     8     3    1
    41    19     9   ar
    42    19    13   ar
    43    32    39    1
    44    32    40    1
@<TRIPOS>MOLECULE
*****
 40 44 0 0 0
SMALL
GASTEIGER

@<TRIPOS>ATOM
      1 C           3.8701   -0.5392   18.1113 C.2     1  UNL1        0.2252
      2 O           4.1761   -1.0722   16.7430 O.2     1  UNL1       -0.2749
      3 N           4.4602   -1.1989   19.3224 N.am    1  UNL1       -0.2794
      4 C           5.3563   -2.3915   19.1650 C.3     1  UNL1        0.0953
      5 C           5.9464   -3.0513   20.3760 C.3     1  UNL1        0.0442
      6 C           5.6404   -2.5183   21.7444 C.3     1  UNL1        0.0933
      7 C           4.7444   -1.3258   21.9017 C.3     1  UNL1        0.0442
      8 C           4.1543   -0.6661   20.6907 C.3     1  UNL1        0.0953
      9 N           6.2305   -3.1781   22.9555 N.ar    1  UNL1       -0.2817
     10 C           7.1981   -4.3243   22.9516 C.ar    1  UNL1        0.3317
     11 O           7.7453   -5.0121   21.7361 O.2     1  UNL1       -0.2463
     12 N           7.5222   -4.6620   24.3767 N.ar    1  UNL1       -0.2713
     13 C           6.7550   -3.7244   25.2613 C.ar    1  UNL1        0.0822
     14 C           6.6802   -3.5874   26.7531 C.ar    1  UNL1        0.0484
     15 C           5.8071   -2.5332   27.3665 C.ar    1  UNL1        0.1417
     16 F           5.7323   -2.3961   28.8584 F       1  UNL1       -0.2041
     17 C           5.0088   -1.6161   26.4881 C.ar    1  UNL1        0.0312
     18 C           5.0836   -1.7531   24.9963 C.ar    1  UNL1        0.0211
     19 C           5.9567   -2.8073   24.3829 C.ar    1  UNL1        0.0798
     20 C           8.4505   -5.7468   24.8365 C.3     1  UNL1        0.2135
     21 C           7.8959   -7.0565   25.3132 C.3     1  UNL1        0.4184
     22 F           7.3413   -8.3661   25.7898 F       1  UNL1       -0.1679
     23 F           7.8398   -6.5229   26.7140 F       1  UNL1       -0.1679
     24 F           7.9520   -7.5900   23.9125 F       1  UNL1       -0.1679
     25 N           1.1819    3.0386   18.5834 N.3     1  UNL1       -0.2689
     26 C           2.6682    3.2230   18.5000 C.3     1  UNL1        0.0729
     27 C           3.5643    2.0304   18.3427 C.3     1  UNL1        0.0264
     28 C           2.9740    0.6534   18.2687 C.3     1  UNL1        0.0795
     29 C           1.4877    0.4689   18.3521 C.3     1  UNL1        0.0264
     30 C           0.5917    1.6615   18.5094 C.3     1  UNL1        0.0729
     31 C           0.2858    4.2312   18.7408 C.3     1  UNL1        0.0993
     32 N          -4.1469    2.8547   21.0767 N.pl3   1  UNL1       -0.3426
     33 C          -3.4202    3.3720   19.8707 C.ar    1  UNL1        0.1251
     34 C          -1.9305    3.5430   19.9087 C.ar    1  UNL1        0.0310
     35 C          -1.2039    4.0603   18.7027 C.ar    1  UNL1       -0.0018
     36 C          -1.9670    4.4066   17.4587 C.ar    1  UNL1        0.0179
     37 C          -3.4568    4.2357   17.4207 C.ar    1  UNL1        0.1000
     38 N          -4.1834    3.7184   18.6267 N.ar    1  UNL1       -0.2296
     39 H          -3.6460    2.6274   21.8932 H       1  UNL1        0.1437
     40 H          -5.1246    2.7425   21.0517 H       1  UNL1        0.1437
@<TRIPOS>BOND
     1    32    33    1
     2    33    34   ar
     3    34    35   ar
     4    35    31    1
     5    31    25    1
     6    25    26    1
     7    26    27    1
     8    27    28    1
     9    28     1    1
    10     1     2    2
    11     1     3   am
    12     3     4    1
    13     4     5    1
    14     5     6    1
    15     6     9    1
    16     9    10   ar
    17    10    11    2
    18    10    12   ar
    19    12    20    1
    20    20    21    1
    21    21    22    1
    22    21    23    1
    23    21    24    1
    24    12    13   ar
    25    13    14   ar
    26    14    15   ar
    27    15    16    1
    28    15    17   ar
    29    17    18   ar
    30    18    19   ar
    31     6     7    1
    32     7     8    1
    33    28    29    1
    34    29    30    1
    35    35    36   ar
    36    36    37   ar
    37    37    38   ar
    38    38    33   ar
    39    30    25    1
    40     8     3    1
    41    19     9   ar
    42    19    13   ar
    43    32    39    1
    44    32    40    1
@<TRIPOS>MOLECULE
*****
 40 44 0 0 0
SMALL
GASTEIGER

@<TRIPOS>ATOM
      1 C           1.5784    2.9331   26.3115 C.2     1  UNL1        0.2252
      2 O           2.4805    3.4859   27.3748 O.2     1  UNL1       -0.2749
      3 N           2.1296    2.0094   25.2662 N.am    1  UNL1       -0.2794
      4 C           3.5829    1.6385   25.2840 C.3     1  UNL1        0.0953
      5 C           4.1341    0.7147   24.2386 C.3     1  UNL1        0.0442
      6 C           3.2320    0.1618   23.1753 C.3     1  UNL1        0.0933
      7 C           1.7787    0.5327   23.1575 C.3     1  UNL1        0.0442
      8 C           1.2275    1.4565   24.2029 C.3     1  UNL1        0.0953
      9 N           3.7832   -0.7620   22.1299 N.ar    1  UNL1       -0.2817
     10 C           4.5491   -2.0261   22.3857 C.ar    1  UNL1        0.3317
     11 O           4.8982   -2.5884   23.7318 O.2     1  UNL1       -0.2463
     12 N           4.9045   -2.6291   21.0591 N.ar    1  UNL1       -0.2713
     13 C           4.3583   -1.7377   19.9834 C.ar    1  UNL1        0.0822
     14 C           4.4024   -1.8277   18.4868 C.ar    1  UNL1        0.0484
     15 C           3.7536   -0.7638   17.6520 C.ar    1  UNL1        0.1417
     16 F           3.7977   -0.8537   16.1553 F       1  UNL1       -0.2041
     17 C           3.0606    0.3902   18.3138 C.ar    1  UNL1        0.0312
     18 C           3.0164    0.4803   19.8104 C.ar    1  UNL1        0.0211
     19 C           3.6653   -0.5837   20.6452 C.ar    1  UNL1        0.0798
     20 C           5.6715   -3.9004   20.8455 C.3     1  UNL1        0.2135
     21 C           7.1655   -3.9065   20.9796 C.3     1  UNL1        0.4184
     22 F           8.6595   -3.9125   21.1136 F       1  UNL1       -0.1679
     23 F           7.0409   -4.5248   22.3405 F       1  UNL1       -0.1679
     24 F           7.2901   -3.2882   19.6187 F       1  UNL1       -0.1679
     25 N          -2.7815    4.0458   26.2579 N.3     1  UNL1       -0.2689
     26 C          -1.7700    4.9447   25.6105 C.3     1  UNL1        0.0729
     27 C          -0.3167    4.5738   25.6284 C.3     1  UNL1        0.0264
     28 C           0.1251    3.3040   26.2937 C.3     1  UNL1        0.0795
     29 C          -0.8863    2.4052   26.9410 C.3     1  UNL1        0.0264
     30 C          -2.3396    2.7761   26.9232 C.3     1  UNL1        0.0729
     31 C          -4.2348    4.4167   26.2400 C.3     1  UNL1        0.0993
     32 N          -4.6804    2.5734   21.4023 N.pl3   1  UNL1       -0.3426
     33 C          -5.2609    3.3200   22.5666 C.ar    1  UNL1        0.1251
     34 C          -4.4576    3.4951   23.8212 C.ar    1  UNL1        0.0310
     35 C          -5.0382    4.2417   24.9855 C.ar    1  UNL1       -0.0018
     36 C          -6.4221    4.8132   24.8952 C.ar    1  UNL1        0.0179
     37 C          -7.2254    4.6381   23.6406 C.ar    1  UNL1        0.1000
     38 N          -6.6448    3.8915   22.4763 N.ar    1  UNL1       -0.2296
     39 H          -3.7721    2.1982   21.4615 H       1  UNL1        0.1437
     40 H          -5.2077    2.4585   20.5789 H       1  UNL1        0.1437
@<TRIPOS>BOND
     1    32    33    1
     2    33    34   ar
     3    34    35   ar
     4    35    31    1
     5    31    25    1
     6    25    26    1
     7    26    27    1
     8    27    28    1
     9    28     1    1
    10     1     2    2
    11     1     3   am
    12     3     4    1
    13     4     5    1
    14     5     6    1
    15     6     9    1
    16     9    10   ar
    17    10    11    2
    18    10    12   ar
    19    12    20    1
    20    20    21    1
    21    21    22    1
    22    21    23    1
    23    21    24    1
    24    12    13   ar
    25    13    14   ar
    26    14    15   ar
    27    15    16    1
    28    15    17   ar
    29    17    18   ar
    30    18    19   ar
    31     6     7    1
    32     7     8    1
    33    28    29    1
    34    29    30    1
    35    35    36   ar
    36    36    37   ar
    37    37    38   ar
    38    38    33   ar
    39    30    25    1
    40     8     3    1
    41    19     9   ar
    42    19    13   ar
    43    32    39    1
    44    32    40    1
@<TRIPOS>MOLECULE
*****
 40 44 0 0 0
SMALL
GASTEIGER

@<TRIPOS>ATOM
      1 C           0.8217    2.5168   26.8023 C.2     1  UNL1        0.2252
      2 O           1.4047    2.6148   28.1809 O.2     1  UNL1       -0.2749
      3 N           1.4467    1.6069   25.7867 N.am    1  UNL1       -0.2794
      4 C           2.6546    0.7950   26.1497 C.3     1  UNL1        0.0953
      5 C           3.2796   -0.1149   25.1341 C.3     1  UNL1        0.0442
      6 C           2.6966   -0.2129   23.7554 C.3     1  UNL1        0.0933
      7 C           1.4888    0.5989   23.3925 C.3     1  UNL1        0.0442
      8 C           0.8638    1.5088   24.4081 C.3     1  UNL1        0.0953
      9 N           3.3216   -1.1228   22.7398 N.ar    1  UNL1       -0.2817
     10 C           2.9450   -1.2178   21.2909 C.ar    1  UNL1        0.3317
     11 O           1.8774   -0.4195   20.6033 O.2     1  UNL1       -0.2463
     12 N           3.8236   -2.2512   20.6505 N.ar    1  UNL1       -0.2713
     13 C           4.7432   -2.7949   21.7035 C.ar    1  UNL1        0.0822
     14 C           5.8229   -3.8349   21.6533 C.ar    1  UNL1        0.0484
     15 C           6.5924   -4.1775   22.8945 C.ar    1  UNL1        0.1417
     16 F           7.6722   -5.2175   22.8444 F       1  UNL1       -0.2041
     17 C           6.2821   -3.4801   24.1857 C.ar    1  UNL1        0.0312
     18 C           5.2024   -2.4401   24.2359 C.ar    1  UNL1        0.0211
     19 C           4.4329   -2.0975   22.9947 C.ar    1  UNL1        0.0798
     20 C           3.7888   -2.6678   19.2099 C.3     1  UNL1        0.2135
     21 C           4.2243   -4.0486   18.8177 C.3     1  UNL1        0.4184
     22 F           4.6599   -5.4293   18.4255 F       1  UNL1       -0.1679
     23 F           2.9361   -4.6053   19.3472 F       1  UNL1       -0.1679
     24 F           5.5126   -3.4918   18.2882 F       1  UNL1       -0.1679
     25 N          -2.8020    4.9524   25.7134 N.3     1  UNL1       -0.2689
     26 C          -1.4289    5.4719   25.4054 C.3     1  UNL1        0.0729
     27 C          -0.2210    4.6601   25.7684 C.3     1  UNL1        0.0264
     28 C          -0.3862    3.3287   26.4393 C.3     1  UNL1        0.0795
     29 C          -1.7592    2.8091   26.7473 C.3     1  UNL1        0.0264
     30 C          -2.9672    3.6210   26.3843 C.3     1  UNL1        0.0729
     31 C          -4.0100    5.7643   25.3504 C.3     1  UNL1        0.0993
     32 N          -8.4799    3.8005   23.5718 N.pl3   1  UNL1       -0.3426
     33 C          -7.1135    4.3624   23.3126 C.ar    1  UNL1        0.1251
     34 C          -6.2449    4.7824   24.4611 C.ar    1  UNL1        0.0310
     35 C          -4.8785    5.3443   24.2018 C.ar    1  UNL1       -0.0018
     36 C          -4.3807    5.4863   22.7940 C.ar    1  UNL1        0.0179
     37 C          -5.2493    5.0663   21.6454 C.ar    1  UNL1        0.1000
     38 N          -6.6157    4.5044   21.9048 N.ar    1  UNL1       -0.2296
     39 H          -8.8067    3.7073   24.4958 H       1  UNL1        0.1437
     40 H          -9.0500    3.5249   22.8180 H       1  UNL1        0.1437
@<TRIPOS>BOND
     1    32    33    1
     2    33    34   ar
     3    34    35   ar
     4    35    31    1
     5    31    25    1
     6    25    26    1
     7    26    27    1
     8    27    28    1
     9    28     1    1
    10     1     2    2
    11     1     3   am
    12     3     4    1
    13     4     5    1
    14     5     6    1
    15     6     9    1
    16     9    10   ar
    17    10    11    2
    18    10    12   ar
    19    12    20    1
    20    20    21    1
    21    21    22    1
    22    21    23    1
    23    21    24    1
    24    12    13   ar
    25    13    14   ar
    26    14    15   ar
    27    15    16    1
    28    15    17   ar
    29    17    18   ar
    30    18    19   ar
    31     6     7    1
    32     7     8    1
    33    28    29    1
    34    29    30    1
    35    35    36   ar
    36    36    37   ar
    37    37    38   ar
    38    38    33   ar
    39    30    25    1
    40     8     3    1
    41    19     9   ar
    42    19    13   ar
    43    32    39    1
    44    32    40    1
@<TRIPOS>MOLECULE
*****
 40 44 0 0 0
SMALL
GASTEIGER

@<TRIPOS>ATOM
      1 C          -3.2743    4.6215   18.7309 C.2     1  UNL1        0.2252
      2 O          -3.6196    5.2356   17.4066 O.2     1  UNL1       -0.2749
      3 N          -2.0140    3.8220   18.8810 N.am    1  UNL1       -0.2794
      4 C          -1.0992    3.6365   17.7068 C.3     1  UNL1        0.0953
      5 C           0.1611    2.8369   17.8569 C.3     1  UNL1        0.0442
      6 C           0.5064    2.2228   19.1813 C.3     1  UNL1        0.0933
      7 C          -0.4084    2.4083   20.3553 C.3     1  UNL1        0.0442
      8 C          -1.6687    3.2079   20.2052 C.3     1  UNL1        0.0953
      9 N           1.7667    1.4232   19.3313 N.ar    1  UNL1       -0.2817
     10 C           1.8731    0.0472   19.9188 C.ar    1  UNL1        0.3317
     11 O           0.7379   -0.7709   20.4594 O.2     1  UNL1       -0.2463
     12 N           3.3139   -0.3671   19.8708 N.ar    1  UNL1       -0.2713
     13 C           4.0980    0.7529   19.2537 C.ar    1  UNL1        0.0822
     14 C           5.5592    0.9081   18.9523 C.ar    1  UNL1        0.0484
     15 C           6.0640    2.1699   18.3175 C.ar    1  UNL1        0.1417
     16 F           7.5253    2.3252   18.0161 F       1  UNL1       -0.2041
     17 C           5.1078    3.2764   17.9841 C.ar    1  UNL1        0.0312
     18 C           3.6466    3.1211   18.2854 C.ar    1  UNL1        0.0211
     19 C           3.1417    1.8594   18.9203 C.ar    1  UNL1        0.0798
     20 C           3.8726   -1.6723   20.3550 C.3     1  UNL1        0.2135
     21 C           4.2184   -2.7510   19.3716 C.3     1  UNL1        0.4184
     22 F           4.5640   -3.8297   18.3884 F       1  UNL1       -0.1679
     23 F           5.6507   -2.3057   19.3868 F       1  UNL1       -0.1679
     24 F           2.7861   -3.1962   19.3566 F       1  UNL1       -0.1679
     25 N          -6.0189    5.1780   22.2533 N.3     1  UNL1       -0.2689
     26 C          -6.1483    3.9605   21.3865 C.3     1  UNL1        0.0729
     27 C          -5.2335    3.7750   20.2124 C.3     1  UNL1        0.0264
     28 C          -4.1891    4.8070   19.9050 C.3     1  UNL1        0.0795
     29 C          -4.0596    6.0244   20.7717 C.3     1  UNL1        0.0264
     30 C          -4.9745    6.2099   21.9458 C.3     1  UNL1        0.0729
     31 C          -6.9337    5.3635   23.4274 C.3     1  UNL1        0.0993
     32 N          -3.4780    3.5861   26.8769 N.pl3   1  UNL1       -0.3426
     33 C          -4.6503    4.4613   26.5454 C.ar    1  UNL1        0.1251
     34 C          -5.2059    4.4748   25.1521 C.ar    1  UNL1        0.0310
     35 C          -6.3781    5.3500   24.8207 C.ar    1  UNL1       -0.0018
     36 C          -6.9947    6.2117   25.8824 C.ar    1  UNL1        0.0179
     37 C          -6.4391    6.1982   27.2756 C.ar    1  UNL1        0.1000
     38 N          -5.2668    5.3230   27.6071 N.ar    1  UNL1       -0.2296
     39 H          -3.0733    3.0205   26.1801 H       1  UNL1        0.1437
     40 H          -3.1134    3.5772   27.7914 H       1  UNL1        0.1437
@<TRIPOS>BOND
     1    32    33    1
     2    33    34   ar
     3    34    35   ar
     4    35    31    1
     5    31    25    1
     6    25    26    1
     7    26    27    1
     8    27    28    1
     9    28     1    1
    10     1     2    2
    11     1     3   am
    12     3     4    1
    13     4     5    1
    14     5     6    1
    15     6     9    1
    16     9    10   ar
    17    10    11    2
    18    10    12   ar
    19    12    20    1
    20    20    21    1
    21    21    22    1
    22    21    23    1
    23    21    24    1
    24    12    13   ar
    25    13    14   ar
    26    14    15   ar
    27    15    16    1
    28    15    17   ar
    29    17    18   ar
    30    18    19   ar
    31     6     7    1
    32     7     8    1
    33    28    29    1
    34    29    30    1
    35    35    36   ar
    36    36    37   ar
    37    37    38   ar
    38    38    33   ar
    39    30    25    1
    40     8     3    1
    41    19     9   ar
    42    19    13   ar
    43    32    39    1
    44    32    40    1
