@<TRIPOS>MOLECULE
*****
 33 38 0 0 0
SMALL
GASTEIGER

@<TRIPOS>ATOM
      1 C         -15.8816   -1.4308   18.8316 C.ar    1  UNL1        0.0212
      2 C         -16.8866   -0.5049   19.4500 C.ar    1  UNL1        0.0328
      3 C         -18.1560   -1.0550   20.0298 C.ar    1  UNL1        0.1610
      4 F         -19.1610   -0.1290   20.6483 F       1  UNL1       -0.2025
      5 C         -18.4203   -2.5310   19.9911 C.ar    1  UNL1        0.1494
      6 N         -19.5730   -3.3573   20.4793 N.ar    1  UNL1       -0.1262
      7 N         -19.2804   -4.7940   20.1625 N.ar    1  UNL1       -0.0598
      8 N         -17.9468   -4.8556   19.4786 N.ar    1  UNL1       -0.2140
      9 C         -17.4153   -3.4569   19.3726 C.ar    1  UNL1        0.1057
     10 C         -16.1459   -2.9068   18.7929 C.ar    1  UNL1        0.0224
     11 C         -17.2646   -6.0977   18.9869 C.2     1  UNL1        0.0681
     12 C         -16.2754   -6.0149   17.8624 C.2     1  UNL1        0.0153
     13 C         -15.5931   -7.2571   17.3707 C.2     1  UNL1        0.0041
     14 C         -15.9002   -8.5819   18.0035 C.2     1  UNL1        0.0367
     15 C         -15.3885   -9.9659   17.7335 C.2     1  UNL1        0.1233
     16 N         -16.0615  -10.9039   18.6911 N.2     1  UNL1       -0.1467
     17 N         -16.9891  -10.0997   19.5530 N.2     1  UNL1       -0.1519
     18 C         -16.8895   -8.6646   19.1280 C.2     1  UNL1        0.0880
     19 C         -17.5717   -7.4226   19.6197 C.3     1  UNL1        0.0934
     20 N         -13.2196   -1.2523   18.6673 N.ar    1  UNL1       -0.2464
     21 N         -12.2593   -0.4637   17.8270 N.ar    1  UNL1       -0.1674
     22 C         -13.0584    0.3951   16.8922 C.ar    1  UNL1        0.1217
     23 C         -14.5126    0.1373   17.1547 C.ar    1  UNL1        0.0412
     24 C         -14.6122   -0.8808   18.2518 C.ar    1  UNL1        0.0799
     25 C         -12.8518   -2.2391   19.7355 C.3     1  UNL1        0.1538
     26 C         -10.8832   -6.1297   18.6232 C.ar    1  UNL1        0.0684
     27 C         -10.1187   -4.8438   18.5125 C.ar    1  UNL1        0.0100
     28 C         -10.7749   -3.5469   18.8833 C.ar    1  UNL1       -0.0016
     29 C         -12.1956   -3.5360   19.3647 C.ar    1  UNL1        0.0021
     30 C         -12.9599   -4.8218   19.4753 C.ar    1  UNL1       -0.0016
     31 C         -12.3037   -6.1187   19.1046 C.ar    1  UNL1        0.0100
     32 N          -9.5707   -8.7234   17.8816 N.1     1  UNL1       -0.1908
     33 C         -10.2269   -7.4265   18.2524 C.1     1  UNL1        0.1004
@<TRIPOS>BOND
     1    32    33    3
     2    33    26    1
     3    26    27   ar
     4    27    28   ar
     5    28    29   ar
     6    29    25    1
     7    25    20    1
     8    20    21   ar
     9    21    22   ar
    10    22    23   ar
    11    23    24   ar
    12    24     1    1
    13     1     2   ar
    14     2     3   ar
    15     3     4    1
    16     3     5   ar
    17     5     6   ar
    18     6     7   ar
    19     7     8   ar
    20     8    11    1
    21    11    12    2
    22    12    13    1
    23    13    14    2
    24    14    15    1
    25    15    16    2
    26    16    17    1
    27    17    18    2
    28    18    19    1
    29     8     9   ar
    30     9    10   ar
    31    29    30   ar
    32    30    31   ar
    33    31    26   ar
    34    24    20   ar
    35    10     1   ar
    36     9     5   ar
    37    19    11    1
    38    18    14    1
@<TRIPOS>MOLECULE
*****
 33 38 0 0 0
SMALL
GASTEIGER

@<TRIPOS>ATOM
      1 C           0.4699    1.9404   23.2061 C.ar    1  UNL1        0.0212
      2 C          -0.5491    3.0023   22.9167 C.ar    1  UNL1        0.0328
      3 C          -0.8729    3.3643   21.4975 C.ar    1  UNL1        0.1610
      4 F          -1.8920    4.4263   21.2082 F       1  UNL1       -0.2025
      5 C          -0.1775    2.6644   20.3677 C.ar    1  UNL1        0.1494
      6 N          -0.2884    2.8070   18.8786 N.ar    1  UNL1       -0.1262
      7 N           0.6622    1.8331   18.2477 N.ar    1  UNL1       -0.0598
      8 N           1.3605    1.0886   19.3468 N.ar    1  UNL1       -0.2140
      9 C           0.8415    1.6024   20.6571 C.ar    1  UNL1        0.1057
     10 C           1.1652    1.2404   22.0763 C.ar    1  UNL1        0.0224
     11 C           2.3960    0.0183   19.1672 C.2     1  UNL1        0.0681
     12 C           2.2699   -1.2792   19.9091 C.2     1  UNL1        0.0153
     13 C           3.3054   -2.3496   19.7296 C.2     1  UNL1        0.0041
     14 C           4.4669   -2.1223   18.8081 C.2     1  UNL1        0.0367
     15 C           5.6344   -2.9862   18.4328 C.2     1  UNL1        0.1233
     16 N           6.4819   -2.2226   17.4590 N.2     1  UNL1       -0.1467
     17 N           5.8383   -0.8866   17.2324 N.2     1  UNL1       -0.1519
     18 C           4.5930   -0.8247   18.0662 C.2     1  UNL1        0.0880
     19 C           3.5576    0.2456   18.2458 C.3     1  UNL1        0.0934
     20 N           2.1681    1.3904   25.1958 N.ar    1  UNL1       -0.2464
     21 N           2.0236    1.0366   26.6463 N.ar    1  UNL1       -0.1674
     22 C           0.5598    1.0058   26.9723 C.ar    1  UNL1        0.1217
     23 C          -0.2004    1.3406   25.7233 C.ar    1  UNL1        0.0412
     24 C           0.7936    1.5783   24.6254 C.ar    1  UNL1        0.0799
     25 C           3.4603    1.5315   24.4472 C.3     1  UNL1        0.1538
     26 C           5.4509   -2.1015   22.6898 C.ar    1  UNL1        0.0684
     27 C           4.5368   -2.2445   23.8706 C.ar    1  UNL1        0.0100
     28 C           3.8732   -1.0335   24.4564 C.ar    1  UNL1       -0.0016
     29 C           4.1238    0.3205   23.8614 C.ar    1  UNL1        0.0021
     30 C           5.0378    0.4635   22.6807 C.ar    1  UNL1       -0.0016
     31 C           5.7014   -0.7475   22.0949 C.ar    1  UNL1        0.0100
     32 N           6.7780   -4.5236   21.5184 N.1     1  UNL1       -0.1908
     33 C           6.1144   -3.3125   22.1041 C.1     1  UNL1        0.1004
@<TRIPOS>BOND
     1    32    33    3
     2    33    26    1
     3    26    27   ar
     4    27    28   ar
     5    28    29   ar
     6    29    25    1
     7    25    20    1
     8    20    21   ar
     9    21    22   ar
    10    22    23   ar
    11    23    24   ar
    12    24     1    1
    13     1     2   ar
    14     2     3   ar
    15     3     4    1
    16     3     5   ar
    17     5     6   ar
    18     6     7   ar
    19     7     8   ar
    20     8    11    1
    21    11    12    2
    22    12    13    1
    23    13    14    2
    24    14    15    1
    25    15    16    2
    26    16    17    1
    27    17    18    2
    28    18    19    1
    29     8     9   ar
    30     9    10   ar
    31    29    30   ar
    32    30    31   ar
    33    31    26   ar
    34    24    20   ar
    35    10     1   ar
    36     9     5   ar
    37    19    11    1
    38    18    14    1
@<TRIPOS>MOLECULE
*****
 33 38 0 0 0
SMALL
GASTEIGER

@<TRIPOS>ATOM
      1 C         -15.3849   -1.1800   18.4123 C.ar    1  UNL1        0.0212
      2 C         -15.1949    0.3038   18.3033 C.ar    1  UNL1        0.0328
      3 C         -13.8599    0.8619   17.9075 C.ar    1  UNL1        0.1610
      4 F         -13.6699    2.3459   17.7984 F       1  UNL1       -0.2025
      5 C         -12.7151   -0.0639   17.6208 C.ar    1  UNL1        0.1494
      6 N         -11.2948    0.1927   17.2123 N.ar    1  UNL1       -0.1262
      7 N         -10.6071   -1.1327   17.0690 N.ar    1  UNL1       -0.0598
      8 N         -11.6024   -2.2084   17.3888 N.ar    1  UNL1       -0.2140
      9 C         -12.9053   -1.5479   17.7299 C.ar    1  UNL1        0.1057
     10 C         -14.2402   -2.1059   18.1256 C.ar    1  UNL1        0.0224
     11 C         -11.3408   -3.6853   17.3708 C.2     1  UNL1        0.0681
     12 C         -11.9938   -4.5500   16.3336 C.2     1  UNL1        0.0153
     13 C         -11.7322   -6.0269   16.3155 C.2     1  UNL1        0.0041
     14 C         -10.8176   -6.6391   17.3346 C.2     1  UNL1        0.0367
     15 C         -10.3735   -8.0534   17.5638 C.2     1  UNL1        0.1233
     16 N          -9.4460   -8.0628   18.7426 N.2     1  UNL1       -0.1467
     17 N          -9.3169   -6.6542   19.2420 N.2     1  UNL1       -0.1519
     18 C         -10.1646   -5.7743   18.3718 C.2     1  UNL1        0.0880
     19 C         -10.4261   -4.2975   18.3899 C.3     1  UNL1        0.0934
     20 N         -16.9510   -2.9539   19.6556 N.ar    1  UNL1       -0.2464
     21 N         -18.4321   -3.1455   19.7971 N.ar    1  UNL1       -0.1674
     22 C         -19.1161   -2.0481   19.0371 C.ar    1  UNL1        0.1217
     23 C         -18.0580   -1.1782   18.4258 C.ar    1  UNL1        0.0412
     24 C         -16.7199   -1.7381   18.8081 C.ar    1  UNL1        0.0799
     25 C         -15.8879   -3.8252   20.2561 C.3     1  UNL1        0.1538
     26 C         -15.3849   -8.0649   18.8343 C.ar    1  UNL1        0.0684
     27 C         -16.7468   -7.5530   19.1998 C.ar    1  UNL1        0.0100
     28 C         -16.9144   -6.1398   19.6738 C.ar    1  UNL1       -0.0016
     29 C         -15.7203   -5.2385   19.7822 C.ar    1  UNL1        0.0021
     30 C         -14.3585   -5.7504   19.4167 C.ar    1  UNL1       -0.0016
     31 C         -14.1909   -7.1637   18.9428 C.ar    1  UNL1        0.0100
     32 N         -15.0497  -10.8915   17.8865 N.1     1  UNL1       -0.1908
     33 C         -15.2173   -9.4782   18.3604 C.1     1  UNL1        0.1004
@<TRIPOS>BOND
     1    32    33    3
     2    33    26    1
     3    26    27   ar
     4    27    28   ar
     5    28    29   ar
     6    29    25    1
     7    25    20    1
     8    20    21   ar
     9    21    22   ar
    10    22    23   ar
    11    23    24   ar
    12    24     1    1
    13     1     2   ar
    14     2     3   ar
    15     3     4    1
    16     3     5   ar
    17     5     6   ar
    18     6     7   ar
    19     7     8   ar
    20     8    11    1
    21    11    12    2
    22    12    13    1
    23    13    14    2
    24    14    15    1
    25    15    16    2
    26    16    17    1
    27    17    18    2
    28    18    19    1
    29     8     9   ar
    30     9    10   ar
    31    29    30   ar
    32    30    31   ar
    33    31    26   ar
    34    24    20   ar
    35    10     1   ar
    36     9     5   ar
    37    19    11    1
    38    18    14    1
@<TRIPOS>MOLECULE
*****
 33 38 0 0 0
SMALL
GASTEIGER

@<TRIPOS>ATOM
      1 C           0.6892    2.1428   23.0766 C.ar    1  UNL1        0.0212
      2 C          -0.0188    2.4778   24.3558 C.ar    1  UNL1        0.0328
      3 C           0.4661    1.9037   25.6540 C.ar    1  UNL1        0.1610
      4 F          -0.2420    2.2388   26.9332 F       1  UNL1       -0.2025
      5 C           1.6590    0.9946   25.6730 C.ar    1  UNL1        0.1494
      6 N           2.3615    0.2838   26.7915 N.ar    1  UNL1       -0.1262
      7 N           3.5038   -0.4906   26.2036 N.ar    1  UNL1       -0.0598
      8 N           3.5072   -0.2583   24.7217 N.ar    1  UNL1       -0.2140
      9 C           2.3671    0.6596   24.3937 C.ar    1  UNL1        0.1057
     10 C           1.8822    1.2337   23.0955 C.ar    1  UNL1        0.0224
     11 C           4.4800   -0.8415   23.7401 C.2     1  UNL1        0.0681
     12 C           5.3773    0.0615   22.9467 C.2     1  UNL1        0.0153
     13 C           6.3501   -0.5217   21.9651 C.2     1  UNL1        0.0041
     14 C           6.4256   -2.0079   21.7768 C.2     1  UNL1        0.0367
     15 C           7.2785   -2.8652   20.8893 C.2     1  UNL1        0.1233
     16 N           6.9083   -4.2980   21.1342 N.2     1  UNL1       -0.1467
     17 N           5.8266   -4.3263   22.1730 N.2     1  UNL1       -0.1519
     18 C           5.5282   -2.9109   22.5703 C.2     1  UNL1        0.0880
     19 C           4.5555   -2.3278   23.5518 C.3     1  UNL1        0.0934
     20 N          -0.0452    1.9499   20.5136 N.ar    1  UNL1       -0.2464
     21 N          -0.5199    2.9178   19.4706 N.ar    1  UNL1       -0.1674
     22 C          -0.5638    4.2829   20.0907 C.ar    1  UNL1        0.1217
     23 C          -0.1162    4.1587   21.5169 C.ar    1  UNL1        0.0412
     24 C           0.2043    2.7169   21.7783 C.ar    1  UNL1        0.0799
     25 C           0.1464    0.4742   20.3251 C.3     1  UNL1        0.1538
     26 C           3.9859   -1.0909   18.5762 C.ar    1  UNL1        0.0684
     27 C           3.2638    0.0413   17.9076 C.ar    1  UNL1        0.0100
     28 C           1.9840    0.5630   18.4906 C.ar    1  UNL1       -0.0016
     29 C           1.4263   -0.0475   19.7421 C.ar    1  UNL1        0.0021
     30 C           2.1483   -1.1796   20.4106 C.ar    1  UNL1       -0.0016
     31 C           3.4282   -1.7013   19.8276 C.ar    1  UNL1        0.0100
     32 N           6.5456   -2.1342   17.4102 N.1     1  UNL1       -0.1908
     33 C           5.2657   -1.6125   17.9932 C.1     1  UNL1        0.1004
@<TRIPOS>BOND
     1    32    33    3
     2    33    26    1
     3    26    27   ar
     4    27    28   ar
     5    28    29   ar
     6    29    25    1
     7    25    20    1
     8    20    21   ar
     9    21    22   ar
    10    22    23   ar
    11    23    24   ar
    12    24     1    1
    13     1     2   ar
    14     2     3   ar
    15     3     4    1
    16     3     5   ar
    17     5     6   ar
    18     6     7   ar
    19     7     8   ar
    20     8    11    1
    21    11    12    2
    22    12    13    1
    23    13    14    2
    24    14    15    1
    25    15    16    2
    26    16    17    1
    27    17    18    2
    28    18    19    1
    29     8     9   ar
    30     9    10   ar
    31    29    30   ar
    32    30    31   ar
    33    31    26   ar
    34    24    20   ar
    35    10     1   ar
    36     9     5   ar
    37    19    11    1
    38    18    14    1
@<TRIPOS>MOLECULE
*****
 33 38 0 0 0
SMALL
GASTEIGER

@<TRIPOS>ATOM
      1 C          -9.3364  -17.3047   24.1938 C.ar    1  UNL1        0.0212
      2 C         -10.8303  -17.2401   24.0760 C.ar    1  UNL1        0.0328
      3 C         -11.5172  -17.8604   22.8956 C.ar    1  UNL1        0.1610
      4 F         -13.0112  -17.7958   22.7779 F       1  UNL1       -0.2025
      5 C         -10.7100  -18.5454   21.8329 C.ar    1  UNL1        0.1494
      6 N         -11.1057  -19.2422   20.5648 N.ar    1  UNL1       -0.1262
      7 N          -9.8562  -19.7374   19.8989 N.ar    1  UNL1       -0.0598
      8 N          -8.6883  -19.3468   20.7554 N.ar    1  UNL1       -0.2140
      9 C          -9.2161  -18.6100   21.9507 C.ar    1  UNL1        0.1057
     10 C          -8.5292  -17.9897   23.1311 C.ar    1  UNL1        0.0224
     11 C          -7.2460  -19.6411   20.4671 C.2     1  UNL1        0.0681
     12 C          -6.6962  -21.0140   20.7179 C.2     1  UNL1        0.0153
     13 C          -5.2538  -21.3084   20.4296 C.2     1  UNL1        0.0041
     14 C          -4.3614  -20.2300   19.8907 C.2     1  UNL1        0.0367
     15 C          -2.9094  -20.2237   19.5139 C.2     1  UNL1        0.1233
     16 N          -2.5620  -18.8470   19.0304 N.2     1  UNL1       -0.1467
     17 N          -3.7993  -18.0023   19.1083 N.2     1  UNL1       -0.1519
     18 C          -4.9113  -18.8571   19.6400 C.2     1  UNL1        0.0880
     19 C          -6.3536  -18.5627   19.9282 C.3     1  UNL1        0.0934
     20 N          -7.4942  -15.7291   25.3204 N.ar    1  UNL1       -0.2464
     21 N          -7.1281  -15.3648   26.7287 N.ar    1  UNL1       -0.1674
     22 C          -8.0571  -16.0949   27.6529 C.ar    1  UNL1        0.1217
     23 C          -8.9973  -16.9104   26.8158 C.ar    1  UNL1        0.0412
     24 C          -8.6495  -16.6844   25.3743 C.ar    1  UNL1        0.0799
     25 C          -6.8230  -15.2265   24.0767 C.3     1  UNL1        0.1538
     26 C          -3.0712  -17.2135   22.5850 C.ar    1  UNL1        0.0684
     27 C          -4.1689  -18.0397   23.1870 C.ar    1  UNL1        0.0100
     28 C          -5.4196  -17.3774   23.6842 C.ar    1  UNL1       -0.0016
     29 C          -5.5724  -15.8889   23.5795 C.ar    1  UNL1        0.0021
     30 C          -4.4746  -15.0627   22.9775 C.ar    1  UNL1       -0.0016
     31 C          -3.2240  -15.7250   22.4803 C.ar    1  UNL1        0.0100
     32 N          -0.5700  -18.5383   21.5905 N.1     1  UNL1       -0.1908
     33 C          -1.8206  -17.8759   22.0878 C.1     1  UNL1        0.1004
@<TRIPOS>BOND
     1    32    33    3
     2    33    26    1
     3    26    27   ar
     4    27    28   ar
     5    28    29   ar
     6    29    25    1
     7    25    20    1
     8    20    21   ar
     9    21    22   ar
    10    22    23   ar
    11    23    24   ar
    12    24     1    1
    13     1     2   ar
    14     2     3   ar
    15     3     4    1
    16     3     5   ar
    17     5     6   ar
    18     6     7   ar
    19     7     8   ar
    20     8    11    1
    21    11    12    2
    22    12    13    1
    23    13    14    2
    24    14    15    1
    25    15    16    2
    26    16    17    1
    27    17    18    2
    28    18    19    1
    29     8     9   ar
    30     9    10   ar
    31    29    30   ar
    32    30    31   ar
    33    31    26   ar
    34    24    20   ar
    35    10     1   ar
    36     9     5   ar
    37    19    11    1
    38    18    14    1
@<TRIPOS>MOLECULE
*****
 33 38 0 0 0
SMALL
GASTEIGER

@<TRIPOS>ATOM
      1 C          -6.2496  -19.2796   20.2047 C.ar    1  UNL1        0.0212
      2 C          -5.0475  -19.6899   19.4071 C.ar    1  UNL1        0.0328
      3 C          -3.6722  -19.3241   19.8812 C.ar    1  UNL1        0.1610
      4 F          -2.4700  -19.7344   19.0834 F       1  UNL1       -0.2025
      5 C          -3.4991  -18.5479   21.1531 C.ar    1  UNL1        0.1494
      6 N          -2.2775  -18.0477   21.8653 N.ar    1  UNL1       -0.1262
      7 N          -2.7247  -17.3282   23.1031 N.ar    1  UNL1       -0.0598
      8 N          -4.2227  -17.3838   23.1560 N.ar    1  UNL1       -0.2140
      9 C          -4.7014  -18.1376   21.9508 C.ar    1  UNL1        0.1057
     10 C          -6.0766  -18.5035   21.4766 C.ar    1  UNL1        0.0224
     11 C          -5.0898  -16.7898   24.2262 C.2     1  UNL1        0.0681
     12 C          -4.5183  -16.5083   25.5841 C.2     1  UNL1        0.0153
     13 C          -5.3854  -15.9142   26.6544 C.2     1  UNL1        0.0041
     14 C          -6.8240  -15.6018   26.3666 C.2     1  UNL1        0.0367
     15 C          -7.9135  -15.0171   27.2159 C.2     1  UNL1        0.1233
     16 N          -9.1582  -14.9373   26.3828 N.2     1  UNL1       -0.1467
     17 N          -8.8381  -15.4727   25.0186 N.2     1  UNL1       -0.1519
     18 C          -7.3955  -15.8834   25.0086 C.2     1  UNL1        0.0880
     19 C          -6.5285  -16.4773   23.9384 C.3     1  UNL1        0.0934
     20 N          -8.9167  -19.1169   20.2802 N.ar    1  UNL1       -0.2464
     21 N         -10.0400  -19.7489   19.5128 N.ar    1  UNL1       -0.1674
     22 C          -9.4425  -20.6680   18.4890 C.ar    1  UNL1        0.1217
     23 C          -7.9499  -20.6041   18.6236 C.ar    1  UNL1        0.0412
     24 C          -7.6250  -19.6454   19.7306 C.ar    1  UNL1        0.0799
     25 C          -9.0600  -18.1297   21.4004 C.3     1  UNL1        0.1538
     26 C         -12.4871  -18.4919   24.2940 C.ar    1  UNL1        0.0684
     27 C         -12.6926  -17.8208   22.9682 C.ar    1  UNL1        0.0100
     28 C         -11.5502  -17.7001   22.0037 C.ar    1  UNL1       -0.0016
     29 C         -10.2024  -18.2504   22.3649 C.ar    1  UNL1        0.0021
     30 C          -9.9969  -18.9214   23.6907 C.ar    1  UNL1       -0.0016
     31 C         -11.1393  -19.0421   24.6552 C.ar    1  UNL1        0.0100
     32 N         -14.7720  -18.7331   26.2231 N.1     1  UNL1       -0.1908
     33 C         -13.6295  -18.6125   25.2585 C.1     1  UNL1        0.1004
@<TRIPOS>BOND
     1    32    33    3
     2    33    26    1
     3    26    27   ar
     4    27    28   ar
     5    28    29   ar
     6    29    25    1
     7    25    20    1
     8    20    21   ar
     9    21    22   ar
    10    22    23   ar
    11    23    24   ar
    12    24     1    1
    13     1     2   ar
    14     2     3   ar
    15     3     4    1
    16     3     5   ar
    17     5     6   ar
    18     6     7   ar
    19     7     8   ar
    20     8    11    1
    21    11    12    2
    22    12    13    1
    23    13    14    2
    24    14    15    1
    25    15    16    2
    26    16    17    1
    27    17    18    2
    28    18    19    1
    29     8     9   ar
    30     9    10   ar
    31    29    30   ar
    32    30    31   ar
    33    31    26   ar
    34    24    20   ar
    35    10     1   ar
    36     9     5   ar
    37    19    11    1
    38    18    14    1
@<TRIPOS>MOLECULE
*****
 33 38 0 0 0
SMALL
GASTEIGER

@<TRIPOS>ATOM
      1 C           4.3638   -2.5060   22.2404 C.ar    1  UNL1        0.0212
      2 C           5.2709   -3.1608   23.2394 C.ar    1  UNL1        0.0328
      3 C           5.2685   -2.7030   24.6679 C.ar    1  UNL1        0.1610
      4 F           6.1758   -3.3578   25.6670 F       1  UNL1       -0.2025
      5 C           4.3588   -1.5903   25.0972 C.ar    1  UNL1        0.1494
      6 N           4.1383   -0.9302   26.4260 N.ar    1  UNL1       -0.1262
      7 N           3.0948    0.1325   26.2482 N.ar    1  UNL1       -0.0598
      8 N           2.6704    0.1293   24.8095 N.ar    1  UNL1       -0.2140
      9 C           3.4516   -0.9354   24.0981 C.ar    1  UNL1        0.1057
     10 C           3.4541   -1.3933   22.6697 C.ar    1  UNL1        0.0224
     11 C           1.6448    1.0323   24.1908 C.2     1  UNL1        0.0681
     12 C           1.7808    1.4498   22.7565 C.2     1  UNL1        0.0153
     13 C           0.7552    2.3529   22.1377 C.2     1  UNL1        0.0041
     14 C          -0.4063    2.8383   22.9533 C.2     1  UNL1        0.0367
     15 C          -1.5652    3.7298   22.6182 C.2     1  UNL1        0.1233
     16 N          -2.4174    3.8632   23.8453 N.2     1  UNL1       -0.1467
     17 N          -1.7851    3.0542   24.9390 N.2     1  UNL1       -0.1519
     18 C          -0.5422    2.4208   24.3876 C.2     1  UNL1        0.0880
     19 C           0.4833    1.5178   25.0064 C.3     1  UNL1        0.0934
     20 N           4.5157   -2.0860   19.6050 N.ar    1  UNL1       -0.2464
     21 N           4.4614   -2.9596   18.3868 N.ar    1  UNL1       -0.1674
     22 C           4.2784   -4.3774   18.8410 C.ar    1  UNL1        0.1217
     23 C           4.2195   -4.3801   20.3398 C.ar    1  UNL1        0.0412
     24 C           4.3662   -2.9639   20.8120 C.ar    1  UNL1        0.0799
     25 C           4.6890   -0.5961   19.6144 C.3     1  UNL1        0.1538
     26 C           1.2431    2.0771   18.5058 C.ar    1  UNL1        0.0684
     27 C           2.6407    2.6216   18.5187 C.ar    1  UNL1        0.0100
     28 C           3.7894    1.7306   18.8882 C.ar    1  UNL1       -0.0016
     29 C           3.5404    0.2950   19.2448 C.ar    1  UNL1        0.0021
     30 C           2.1427   -0.2495   19.2319 C.ar    1  UNL1       -0.0016
     31 C           0.9941    0.6416   18.8624 C.ar    1  UNL1        0.0100
     32 N          -1.0542    3.8593   17.7665 N.1     1  UNL1       -0.1908
     33 C           0.0944    2.9682   18.1362 C.1     1  UNL1        0.1004
@<TRIPOS>BOND
     1    32    33    3
     2    33    26    1
     3    26    27   ar
     4    27    28   ar
     5    28    29   ar
     6    29    25    1
     7    25    20    1
     8    20    21   ar
     9    21    22   ar
    10    22    23   ar
    11    23    24   ar
    12    24     1    1
    13     1     2   ar
    14     2     3   ar
    15     3     4    1
    16     3     5   ar
    17     5     6   ar
    18     6     7   ar
    19     7     8   ar
    20     8    11    1
    21    11    12    2
    22    12    13    1
    23    13    14    2
    24    14    15    1
    25    15    16    2
    26    16    17    1
    27    17    18    2
    28    18    19    1
    29     8     9   ar
    30     9    10   ar
    31    29    30   ar
    32    30    31   ar
    33    31    26   ar
    34    24    20   ar
    35    10     1   ar
    36     9     5   ar
    37    19    11    1
    38    18    14    1
@<TRIPOS>MOLECULE
*****
 33 38 0 0 0
SMALL
GASTEIGER

@<TRIPOS>ATOM
      1 C           3.5825   -1.6983   21.0184 C.ar    1  UNL1        0.0212
      2 C           3.7716   -2.2815   19.6496 C.ar    1  UNL1        0.0328
      3 C           4.8647   -3.2789   19.4036 C.ar    1  UNL1        0.1610
      4 F           5.0537   -3.8622   18.0346 F       1  UNL1       -0.2025
      5 C           5.7686   -3.6930   20.5267 C.ar    1  UNL1        0.1494
      6 N           6.9236   -4.6483   20.5853 N.ar    1  UNL1       -0.1262
      7 N           7.4483   -4.6555   21.9906 N.ar    1  UNL1       -0.0598
      8 N           6.6176   -3.7046   22.8004 N.ar    1  UNL1       -0.2140
      9 C           5.5795   -3.1098   21.8957 C.ar    1  UNL1        0.1057
     10 C           4.4865   -2.1124   22.1415 C.ar    1  UNL1        0.0224
     11 C           6.7941   -3.4017   24.2589 C.2     1  UNL1        0.0681
     12 C           7.2026   -2.0259   24.6951 C.2     1  UNL1        0.0153
     13 C           7.3791   -1.7230   26.1536 C.2     1  UNL1        0.0041
     14 C           7.1471   -2.7959   27.1758 C.2     1  UNL1        0.0367
     15 C           7.2429   -2.7936   28.6728 C.2     1  UNL1        0.1233
     16 N           6.8936   -4.1679   29.1617 N.2     1  UNL1       -0.1467
     17 N           6.5819   -5.0197   27.9669 N.2     1  UNL1       -0.1519
     18 C           6.7386   -4.1717   26.7395 C.2     1  UNL1        0.0880
     19 C           6.5621   -4.4747   25.2811 C.3     1  UNL1        0.0934
     20 N           2.4678    0.3337   22.3503 N.ar    1  UNL1       -0.2464
     21 N           1.1911    1.1111   22.2245 N.ar    1  UNL1       -0.1674
     22 C           0.4237    0.5569   21.0609 C.ar    1  UNL1        0.1217
     23 C           1.2261   -0.5629   20.4675 C.ar    1  UNL1        0.0412
     24 C           2.4895   -0.7008   21.2644 C.ar    1  UNL1        0.0799
     25 C           3.5354    0.5525   23.3810 C.3     1  UNL1        0.1538
     26 C           2.6692   -0.2503   27.7232 C.ar    1  UNL1        0.0684
     27 C           3.5679   -1.1732   26.9546 C.ar    1  UNL1        0.0100
     28 C           3.8567   -0.9056   25.5071 C.ar    1  UNL1       -0.0016
     29 C           3.2467    0.2849   24.8284 C.ar    1  UNL1        0.0021
     30 C           2.3480    1.2077   25.5970 C.ar    1  UNL1       -0.0016
     31 C           2.0592    0.9401   27.0444 C.ar    1  UNL1        0.0100
     32 N           2.0917   -0.7858   30.6180 N.1     1  UNL1       -0.1908
     33 C           2.3805   -0.5181   29.1706 C.1     1  UNL1        0.1004
@<TRIPOS>BOND
     1    32    33    3
     2    33    26    1
     3    26    27   ar
     4    27    28   ar
     5    28    29   ar
     6    29    25    1
     7    25    20    1
     8    20    21   ar
     9    21    22   ar
    10    22    23   ar
    11    23    24   ar
    12    24     1    1
    13     1     2   ar
    14     2     3   ar
    15     3     4    1
    16     3     5   ar
    17     5     6   ar
    18     6     7   ar
    19     7     8   ar
    20     8    11    1
    21    11    12    2
    22    12    13    1
    23    13    14    2
    24    14    15    1
    25    15    16    2
    26    16    17    1
    27    17    18    2
    28    18    19    1
    29     8     9   ar
    30     9    10   ar
    31    29    30   ar
    32    30    31   ar
    33    31    26   ar
    34    24    20   ar
    35    10     1   ar
    36     9     5   ar
    37    19    11    1
    38    18    14    1
@<TRIPOS>MOLECULE
*****
 33 38 0 0 0
SMALL
GASTEIGER

@<TRIPOS>ATOM
      1 C          -0.1160    1.7331   26.5787 C.ar    1  UNL1        0.0212
      2 C          -1.3346    2.3668   27.1814 C.ar    1  UNL1        0.0328
      3 C          -2.2550    3.1860   26.3259 C.ar    1  UNL1        0.1610
      4 F          -3.4736    3.8197   26.9287 F       1  UNL1       -0.2025
      5 C          -1.9567    3.3713   24.8676 C.ar    1  UNL1        0.1494
      6 N          -2.6749    4.1187   23.7833 N.ar    1  UNL1       -0.1262
      7 N          -1.9001    3.9468   22.5105 N.ar    1  UNL1       -0.0598
      8 N          -0.7031    3.0932   22.8080 N.ar    1  UNL1       -0.2140
      9 C          -0.7381    2.7375   24.2648 C.ar    1  UNL1        0.1057
     10 C           0.1822    1.9184   25.1204 C.ar    1  UNL1        0.0224
     11 C           0.3449    2.6697   21.8219 C.2     1  UNL1        0.0681
     12 C           1.7505    3.1754   21.9577 C.2     1  UNL1        0.0153
     13 C           2.7985    2.7519   20.9716 C.2     1  UNL1        0.0041
     14 C           2.4409    1.8227   19.8498 C.2     1  UNL1        0.0367
     15 C           3.2543    1.2361   18.7342 C.2     1  UNL1        0.1233
     16 N           2.3514    0.3679   17.9091 N.2     1  UNL1       -0.1467
     17 N           0.9799    0.4179   18.5146 N.2     1  UNL1       -0.1519
     18 C           1.0352    1.3169   19.7140 C.2     1  UNL1        0.0880
     19 C          -0.0128    1.7404   20.7001 C.3     1  UNL1        0.0934
     20 N           2.2196    0.5434   27.1029 N.ar    1  UNL1       -0.2464
     21 N           2.7610   -0.2781   28.2353 N.ar    1  UNL1       -0.1674
     22 C           1.6803   -0.4152   29.2664 C.ar    1  UNL1        0.1217
     23 C           0.4711    0.3215   28.7714 C.ar    1  UNL1        0.0412
     24 C           0.8044    0.9139   27.4343 C.ar    1  UNL1        0.0799
     25 C           2.9630    0.9269   25.8578 C.3     1  UNL1        0.1538
     26 C           4.0989   -2.2256   22.8543 C.ar    1  UNL1        0.0684
     27 C           4.6813   -2.2618   24.2362 C.ar    1  UNL1        0.0100
     28 C           4.3026   -1.2109   25.2374 C.ar    1  UNL1       -0.0016
     29 C           3.3416   -0.1239   24.8566 C.ar    1  UNL1        0.0021
     30 C           2.7593   -0.0878   23.4747 C.ar    1  UNL1       -0.0016
     31 C           3.1380   -1.1386   22.4735 C.ar    1  UNL1        0.0100
     32 N           4.8564   -4.3274   20.8521 N.1     1  UNL1       -0.1908
     33 C           4.4776   -3.2765   21.8531 C.1     1  UNL1        0.1004
@<TRIPOS>BOND
     1    32    33    3
     2    33    26    1
     3    26    27   ar
     4    27    28   ar
     5    28    29   ar
     6    29    25    1
     7    25    20    1
     8    20    21   ar
     9    21    22   ar
    10    22    23   ar
    11    23    24   ar
    12    24     1    1
    13     1     2   ar
    14     2     3   ar
    15     3     4    1
    16     3     5   ar
    17     5     6   ar
    18     6     7   ar
    19     7     8   ar
    20     8    11    1
    21    11    12    2
    22    12    13    1
    23    13    14    2
    24    14    15    1
    25    15    16    2
    26    16    17    1
    27    17    18    2
    28    18    19    1
    29     8     9   ar
    30     9    10   ar
    31    29    30   ar
    32    30    31   ar
    33    31    26   ar
    34    24    20   ar
    35    10     1   ar
    36     9     5   ar
    37    19    11    1
    38    18    14    1
