@<TRIPOS>MOLECULE
*****
 35 40 0 0 0
SMALL
GASTEIGER

@<TRIPOS>ATOM
      1 N          -6.6559  -14.9883   27.8245 N.pl3   1  UNL1       -0.3400
      2 C          -6.4160  -15.4312   26.4116 C.ar    1  UNL1        0.1648
      3 N          -5.0855  -15.7707   25.8079 N.ar    1  UNL1       -0.1491
      4 N          -5.3117  -16.1616   24.3775 N.ar    1  UNL1       -0.2306
      5 C          -6.7820  -16.0637   24.0972 C.ar    1  UNL1        0.1029
      6 C          -7.5875  -16.3273   22.8596 C.ar    1  UNL1        0.0238
      7 C          -9.0756  -16.1394   22.8791 C.ar    1  UNL1        0.0380
      8 C          -9.7581  -15.6879   24.1363 C.ar    1  UNL1        0.1005
      9 N          -8.9526  -15.4244   25.3738 N.ar    1  UNL1       -0.2394
     10 C          -7.4645  -15.6122   25.3543 C.ar    1  UNL1        0.1316
     11 H          -5.8990  -14.8986   28.4475 H       1  UNL1        0.1438
     12 H          -7.5704  -14.7873   28.1288 H       1  UNL1        0.1438
     13 C          -4.2534  -16.5775   23.3992 C.2     1  UNL1        0.0666
     14 C          -3.5061  -15.5391   22.6162 C.2     1  UNL1        0.0152
     15 C          -2.4478  -15.9550   21.6379 C.2     1  UNL1        0.0041
     16 C          -2.1368  -17.4093   21.4426 C.2     1  UNL1        0.0367
     17 C          -1.1541  -18.1153   20.5563 C.2     1  UNL1        0.1233
     18 N          -1.2939  -19.5901   20.7914 N.2     1  UNL1       -0.1467
     19 N          -2.3632  -19.7956   21.8232 N.2     1  UNL1       -0.1519
     20 C          -2.8841  -18.4478   22.2256 C.2     1  UNL1        0.0880
     21 C          -3.9424  -18.0319   23.2039 C.3     1  UNL1        0.0934
     22 C          -9.8812  -16.4030   21.6415 C.ar    1  UNL1        0.0814
     23 C         -10.5373  -15.3658   20.7791 C.ar    1  UNL1        0.0412
     24 C         -11.2337  -16.0718   19.6537 C.ar    1  UNL1        0.1217
     25 N         -11.0079  -17.5454   19.8205 N.ar    1  UNL1       -0.1674
     26 N         -10.1720  -17.7500   21.0491 N.ar    1  UNL1       -0.2463
     27 C          -9.7083  -19.0699   21.5902 C.3     1  UNL1        0.1546
     28 C          -8.3704  -19.6167   21.1892 C.ar    1  UNL1        0.0127
     29 C          -7.2896  -19.7826   22.2160 C.ar    1  UNL1       -0.0006
     30 C          -5.9516  -20.3294   21.8149 C.ar    1  UNL1        0.0112
     31 C          -5.6945  -20.7102   20.3870 C.ar    1  UNL1        0.0585
     32 CL         -4.3564  -21.2570   19.9860 Cl      1  UNL1       -0.0822
     33 C          -6.7753  -20.5443   19.3602 C.ar    1  UNL1        0.0225
     34 C          -8.1132  -19.9975   19.7613 C.ar    1  UNL1        0.0564
     35 CL         -9.1941  -19.8315   18.7345 Cl      1  UNL1       -0.0825
@<TRIPOS>BOND
     1     1     2    1
     2     2     3   ar
     3     3     4   ar
     4     4    13    1
     5    13    14    2
     6    14    15    1
     7    15    16    2
     8    16    17    1
     9    17    18    2
    10    18    19    1
    11    19    20    2
    12    20    21    1
    13     4     5   ar
    14     5     6   ar
    15     6     7   ar
    16     7    22    1
    17    22    23   ar
    18    23    24   ar
    19    24    25   ar
    20    25    26   ar
    21    26    27    1
    22    27    28    1
    23    28    29   ar
    24    29    30   ar
    25    30    31   ar
    26    31    32    1
    27    31    33   ar
    28    33    34   ar
    29    34    35    1
    30     7     8   ar
    31     8     9   ar
    32     9    10   ar
    33    10     2   ar
    34    21    13    1
    35    10     5   ar
    36    20    16    1
    37    26    22   ar
    38    34    28   ar
    39     1    11    1
    40     1    12    1
@<TRIPOS>MOLECULE
*****
 35 40 0 0 0
SMALL
GASTEIGER

@<TRIPOS>ATOM
      1 N          -6.5970  -14.5527   27.5750 N.pl3   1  UNL1       -0.3400
      2 C          -6.9888  -15.1902   26.2749 C.ar    1  UNL1        0.1648
      3 N          -8.3526  -15.1549   25.6513 N.ar    1  UNL1       -0.1491
      4 N          -8.2922  -15.9178   24.3612 N.ar    1  UNL1       -0.2306
      5 C          -6.8911  -16.4246   24.1875 C.ar    1  UNL1        0.1029
      6 C          -6.2448  -17.2375   23.1052 C.ar    1  UNL1        0.0238
      7 C          -4.7929  -17.6006   23.2056 C.ar    1  UNL1        0.0380
      8 C          -3.9873  -17.1509   24.3884 C.ar    1  UNL1        0.1005
      9 N          -4.6337  -16.3381   25.4707 N.ar    1  UNL1       -0.2394
     10 C          -6.0855  -15.9749   25.3703 C.ar    1  UNL1        0.1316
     11 H          -7.2648  -14.0554   28.1003 H       1  UNL1        0.1438
     12 H          -5.6721  -14.6315   27.9028 H       1  UNL1        0.1438
     13 C          -9.4326  -16.1357   23.4116 C.2     1  UNL1        0.0666
     14 C         -10.6435  -16.9009   23.8566 C.2     1  UNL1        0.0152
     15 C         -11.7839  -17.1188   22.9069 C.2     1  UNL1        0.0041
     16 C         -11.7135  -16.5715   21.5121 C.2     1  UNL1        0.0367
     17 C         -12.6752  -16.6270   20.3623 C.2     1  UNL1        0.1233
     18 N         -12.0587  -15.8961   19.2066 N.2     1  UNL1       -0.1467
     19 N         -10.7160  -15.3888   19.6422 N.2     1  UNL1       -0.1519
     20 C         -10.5026  -15.8062   21.0670 C.2     1  UNL1        0.0880
     21 C          -9.3622  -15.5883   22.0167 C.3     1  UNL1        0.0934
     22 C          -4.1465  -18.4135   22.1233 C.ar    1  UNL1        0.0814
     23 C          -2.8499  -18.0976   21.4384 C.ar    1  UNL1        0.0412
     24 C          -2.5853  -19.1739   20.4277 C.ar    1  UNL1        0.1217
     25 N          -3.7184  -20.1550   20.4878 N.ar    1  UNL1       -0.1674
     26 N          -4.6832  -19.6850   21.5357 N.ar    1  UNL1       -0.2463
     27 C          -5.9606  -20.3669   21.9274 C.3     1  UNL1        0.1546
     28 C          -7.2319  -20.0561   21.1946 C.ar    1  UNL1        0.0127
     29 C          -7.2229  -19.9216   19.7007 C.ar    1  UNL1       -0.0006
     30 C          -8.4944  -19.6108   18.9680 C.ar    1  UNL1        0.0112
     31 C          -9.7748  -19.4346   19.7292 C.ar    1  UNL1        0.0585
     32 CL        -11.0462  -19.1238   18.9964 Cl      1  UNL1       -0.0822
     33 C          -9.7838  -19.5691   21.2232 C.ar    1  UNL1        0.0225
     34 C          -8.5124  -19.8799   21.9559 C.ar    1  UNL1        0.0564
     35 CL         -8.5214  -20.0144   23.4498 Cl      1  UNL1       -0.0825
@<TRIPOS>BOND
     1     1     2    1
     2     2     3   ar
     3     3     4   ar
     4     4    13    1
     5    13    14    2
     6    14    15    1
     7    15    16    2
     8    16    17    1
     9    17    18    2
    10    18    19    1
    11    19    20    2
    12    20    21    1
    13     4     5   ar
    14     5     6   ar
    15     6     7   ar
    16     7    22    1
    17    22    23   ar
    18    23    24   ar
    19    24    25   ar
    20    25    26   ar
    21    26    27    1
    22    27    28    1
    23    28    29   ar
    24    29    30   ar
    25    30    31   ar
    26    31    32    1
    27    31    33   ar
    28    33    34   ar
    29    34    35    1
    30     7     8   ar
    31     8     9   ar
    32     9    10   ar
    33    10     2   ar
    34    21    13    1
    35    10     5   ar
    36    20    16    1
    37    26    22   ar
    38    34    28   ar
    39     1    11    1
    40     1    12    1
@<TRIPOS>MOLECULE
*****
 35 40 0 0 0
SMALL
GASTEIGER

@<TRIPOS>ATOM
      1 N          -6.9264  -15.1952   27.7335 N.pl3   1  UNL1       -0.3400
      2 C          -6.6362  -15.5844   26.3142 C.ar    1  UNL1        0.1648
      3 N          -5.3073  -16.0231   25.7745 N.ar    1  UNL1       -0.1491
      4 N          -5.4738  -16.3131   24.3122 N.ar    1  UNL1       -0.2306
      5 C          -6.9057  -16.0535   23.9483 C.ar    1  UNL1        0.1029
      6 C          -7.6481  -16.1690   22.6501 C.ar    1  UNL1        0.0238
      7 C          -9.1089  -15.8342   22.5892 C.ar    1  UNL1        0.0380
      8 C          -9.8274  -15.3838   23.8265 C.ar    1  UNL1        0.1005
      9 N          -9.0849  -15.2683   25.1248 N.ar    1  UNL1       -0.2394
     10 C          -7.6241  -15.6031   25.1856 C.ar    1  UNL1        0.1316
     11 H          -6.2078  -15.2150   28.4061 H       1  UNL1        0.1438
     12 H          -7.8355  -14.9199   27.9924 H       1  UNL1        0.1438
     13 C          -4.3975  -16.7805   23.3779 C.2     1  UNL1        0.0666
     14 C          -3.4901  -15.7835   22.7203 C.2     1  UNL1        0.0152
     15 C          -2.4137  -16.2510   21.7860 C.2     1  UNL1        0.0041
     16 C          -2.2448  -17.7155   21.5092 C.2     1  UNL1        0.0367
     17 C          -1.2807  -18.4683   20.6410 C.2     1  UNL1        0.1233
     18 N          -1.5921  -19.9305   20.7620 N.2     1  UNL1       -0.1467
     19 N          -2.7489  -20.0815   21.7050 N.2     1  UNL1       -0.1519
     20 C          -3.1522  -18.7126   22.1668 C.2     1  UNL1        0.0880
     21 C          -4.2286  -18.2451   23.1011 C.3     1  UNL1        0.0934
     22 C          -9.8515  -15.9497   21.2909 C.ar    1  UNL1        0.0814
     23 C          -9.9247  -14.9012   20.2208 C.ar    1  UNL1        0.0412
     24 C         -10.7696  -15.4375   19.1034 C.ar    1  UNL1        0.1217
     25 N         -11.2185  -16.8176   19.4830 N.ar    1  UNL1       -0.1674
     26 N         -10.6510  -17.1341   20.8349 N.ar    1  UNL1       -0.2463
     27 C         -10.8485  -18.4109   21.5971 C.3     1  UNL1        0.1546
     28 C         -11.7770  -18.4455   22.7746 C.ar    1  UNL1        0.0127
     29 C         -13.1930  -17.9730   22.6275 C.ar    1  UNL1       -0.0006
     30 C         -14.1214  -18.0077   23.8052 C.ar    1  UNL1        0.0112
     31 C         -13.6337  -18.5149   25.1299 C.ar    1  UNL1        0.0585
     32 CL        -14.5623  -18.5496   26.3076 Cl      1  UNL1       -0.0822
     33 C         -12.2177  -18.9875   25.2770 C.ar    1  UNL1        0.0225
     34 C         -11.2894  -18.9528   24.0994 C.ar    1  UNL1        0.0564
     35 CL         -9.8734  -19.4253   24.2465 Cl      1  UNL1       -0.0825
@<TRIPOS>BOND
     1     1     2    1
     2     2     3   ar
     3     3     4   ar
     4     4    13    1
     5    13    14    2
     6    14    15    1
     7    15    16    2
     8    16    17    1
     9    17    18    2
    10    18    19    1
    11    19    20    2
    12    20    21    1
    13     4     5   ar
    14     5     6   ar
    15     6     7   ar
    16     7    22    1
    17    22    23   ar
    18    23    24   ar
    19    24    25   ar
    20    25    26   ar
    21    26    27    1
    22    27    28    1
    23    28    29   ar
    24    29    30   ar
    25    30    31   ar
    26    31    32    1
    27    31    33   ar
    28    33    34   ar
    29    34    35    1
    30     7     8   ar
    31     8     9   ar
    32     9    10   ar
    33    10     2   ar
    34    21    13    1
    35    10     5   ar
    36    20    16    1
    37    26    22   ar
    38    34    28   ar
    39     1    11    1
    40     1    12    1
@<TRIPOS>MOLECULE
*****
 35 40 0 0 0
SMALL
GASTEIGER

@<TRIPOS>ATOM
      1 N          -1.1081    3.8706   18.1521 N.pl3   1  UNL1       -0.3400
      2 C          -0.2342    2.8936   18.8814 C.ar    1  UNL1        0.1648
      3 N           0.6965    1.9012   18.2499 N.ar    1  UNL1       -0.1491
      4 N           1.3683    1.1317   19.3485 N.ar    1  UNL1       -0.2306
      5 C           0.8526    1.6486   20.6588 C.ar    1  UNL1        0.1029
      6 C           1.1570    1.2684   22.0775 C.ar    1  UNL1        0.0238
      7 C           0.4710    1.9771   23.2075 C.ar    1  UNL1        0.0380
      8 C          -0.5195    3.0660   22.9188 C.ar    1  UNL1        0.1005
      9 N          -0.8239    3.4462   21.5001 N.ar    1  UNL1       -0.2394
     10 C          -0.1378    2.7375   20.3701 C.ar    1  UNL1        0.1316
     11 H          -1.1018    3.8974   17.1680 H       1  UNL1        0.1438
     12 H          -1.6880    4.4850   18.6576 H       1  UNL1        0.1438
     13 C           2.3783    0.0375   19.1683 C.2     1  UNL1        0.0666
     14 C           2.2077   -1.2668   19.8890 C.2     1  UNL1        0.0152
     15 C           3.2178   -2.3611   19.7088 C.2     1  UNL1        0.0041
     16 C           4.3985   -2.1509   18.8079 C.2     1  UNL1        0.0367
     17 C           5.5488   -3.0394   18.4370 C.2     1  UNL1        0.1233
     18 N           6.4304   -2.2842   17.4871 N.2     1  UNL1       -0.1467
     19 N           5.8250   -0.9289   17.2709 N.2     1  UNL1       -0.1519
     20 C           4.5693   -0.8465   18.0872 C.2     1  UNL1        0.0880
     21 C           3.5592    0.2477   18.2674 C.3     1  UNL1        0.0934
     22 C           0.7753    1.5969   24.6263 C.ar    1  UNL1        0.0814
     23 C          -0.2325    1.3698   25.7138 C.ar    1  UNL1        0.0412
     24 C           0.5103    1.0096   26.9663 C.ar    1  UNL1        0.1217
     25 N           1.9772    1.0142   26.6528 N.ar    1  UNL1       -0.1674
     26 N           2.1410    1.3772   25.2067 N.ar    1  UNL1       -0.2463
     27 C           3.4420    1.4991   24.4701 C.3     1  UNL1        0.1546
     28 C           4.0776    0.2831   23.8642 C.ar    1  UNL1        0.0127
     29 C           3.9052   -1.0569   24.5158 C.ar    1  UNL1       -0.0006
     30 C           4.5409   -2.2729   23.9098 C.ar    1  UNL1        0.0112
     31 C           5.3491   -2.1489   22.6523 C.ar    1  UNL1        0.0585
     32 CL          5.9847   -3.3650   22.0463 Cl      1  UNL1       -0.0822
     33 C           5.5215   -0.8089   22.0007 C.ar    1  UNL1        0.0225
     34 C           4.8858    0.4071   22.6067 C.ar    1  UNL1        0.0564
     35 CL          5.0583    1.7471   21.9551 Cl      1  UNL1       -0.0825
@<TRIPOS>BOND
     1     1     2    1
     2     2     3   ar
     3     3     4   ar
     4     4    13    1
     5    13    14    2
     6    14    15    1
     7    15    16    2
     8    16    17    1
     9    17    18    2
    10    18    19    1
    11    19    20    2
    12    20    21    1
    13     4     5   ar
    14     5     6   ar
    15     6     7   ar
    16     7    22    1
    17    22    23   ar
    18    23    24   ar
    19    24    25   ar
    20    25    26   ar
    21    26    27    1
    22    27    28    1
    23    28    29   ar
    24    29    30   ar
    25    30    31   ar
    26    31    32    1
    27    31    33   ar
    28    33    34   ar
    29    34    35    1
    30     7     8   ar
    31     8     9   ar
    32     9    10   ar
    33    10     2   ar
    34    21    13    1
    35    10     5   ar
    36    20    16    1
    37    26    22   ar
    38    34    28   ar
    39     1    11    1
    40     1    12    1
@<TRIPOS>MOLECULE
*****
 35 40 0 0 0
SMALL
GASTEIGER

@<TRIPOS>ATOM
      1 N           6.5636   -5.4644   32.4380 N.pl3   1  UNL1       -0.3400
      2 C           6.8310   -5.1731   30.9911 C.ar    1  UNL1        0.1648
      3 N           7.3578   -6.1462   29.9785 N.ar    1  UNL1       -0.1491
      4 N           7.4708   -5.4319   28.6643 N.ar    1  UNL1       -0.2306
      5 C           7.0138   -4.0174   28.8647 C.ar    1  UNL1        0.1029
      6 C           6.9066   -2.8543   27.9235 C.ar    1  UNL1        0.0238
      7 C           6.4040   -1.5313   28.4204 C.ar    1  UNL1        0.0380
      8 C           6.0085   -1.3714   29.8585 C.ar    1  UNL1        0.1005
      9 N           6.1157   -2.5344   30.7996 N.ar    1  UNL1       -0.2394
     10 C           6.6183   -3.8574   30.3027 C.ar    1  UNL1        0.1316
     11 H           6.7357   -6.3641   32.7989 H       1  UNL1        0.1438
     12 H           6.2161   -4.7560   33.0268 H       1  UNL1        0.1438
     13 C           7.9557   -6.0276   27.3759 C.2     1  UNL1        0.0666
     14 C           8.9140   -7.1813   27.3967 C.2     1  UNL1        0.0152
     15 C           9.3990   -7.7770   26.1083 C.2     1  UNL1        0.0041
     16 C           8.9255   -7.2189   24.7989 C.2     1  UNL1        0.0367
     17 C           9.2279   -7.5960   23.3790 C.2     1  UNL1        0.1233
     18 N           8.4565   -6.6755   22.4805 N.2     1  UNL1       -0.1467
     19 N           7.6773   -5.7293   23.3451 N.2     1  UNL1       -0.1519
     20 C           7.9672   -6.0652   24.7780 C.2     1  UNL1        0.0880
     21 C           7.4823   -5.4695   26.0664 C.3     1  UNL1        0.0934
     22 C           6.2968   -0.3682   27.4792 C.ar    1  UNL1        0.0814
     23 C           7.1080    0.8920   27.5390 C.ar    1  UNL1        0.0412
     24 C           6.6721    1.7779   26.4098 C.ar    1  UNL1        0.1217
     25 N           5.5914    1.0652   25.6520 N.ar    1  UNL1       -0.1674
     26 N           5.3594   -0.2612   26.3130 N.ar    1  UNL1       -0.2463
     27 C           4.3648   -1.2985   25.8832 C.3     1  UNL1        0.1546
     28 C           4.2783   -1.7028   24.4414 C.ar    1  UNL1        0.0127
     29 C           5.1027   -2.8481   23.9329 C.ar    1  UNL1       -0.0006
     30 C           5.0162   -3.2524   22.4910 C.ar    1  UNL1        0.0112
     31 C           4.1053   -2.5114   21.5576 C.ar    1  UNL1        0.0585
     32 CL          4.0189   -2.9158   20.1157 Cl      1  UNL1       -0.0822
     33 C           3.2809   -1.3660   22.0662 C.ar    1  UNL1        0.0225
     34 C           3.3675   -0.9618   23.5080 C.ar    1  UNL1        0.0564
     35 CL          2.5431    0.1836   24.0166 Cl      1  UNL1       -0.0825
@<TRIPOS>BOND
     1     1     2    1
     2     2     3   ar
     3     3     4   ar
     4     4    13    1
     5    13    14    2
     6    14    15    1
     7    15    16    2
     8    16    17    1
     9    17    18    2
    10    18    19    1
    11    19    20    2
    12    20    21    1
    13     4     5   ar
    14     5     6   ar
    15     6     7   ar
    16     7    22    1
    17    22    23   ar
    18    23    24   ar
    19    24    25   ar
    20    25    26   ar
    21    26    27    1
    22    27    28    1
    23    28    29   ar
    24    29    30   ar
    25    30    31   ar
    26    31    32    1
    27    31    33   ar
    28    33    34   ar
    29    34    35    1
    30     7     8   ar
    31     8     9   ar
    32     9    10   ar
    33    10     2   ar
    34    21    13    1
    35    10     5   ar
    36    20    16    1
    37    26    22   ar
    38    34    28   ar
    39     1    11    1
    40     1    12    1
@<TRIPOS>MOLECULE
*****
 35 40 0 0 0
SMALL
GASTEIGER

@<TRIPOS>ATOM
      1 N          -6.7131  -15.0687   27.4577 N.pl3   1  UNL1       -0.3400
      2 C          -6.6432  -15.6007   26.0570 C.ar    1  UNL1        0.1648
      3 N          -5.4587  -16.2714   25.4267 N.ar    1  UNL1       -0.1491
      4 N          -5.8289  -16.6406   24.0208 N.ar    1  UNL1       -0.2306
      5 C          -7.2422  -16.1982   23.7822 C.ar    1  UNL1        0.1029
      6 C          -8.1358  -16.2975   22.5816 C.ar    1  UNL1        0.0238
      7 C          -9.5327  -15.7541   22.6394 C.ar    1  UNL1        0.0380
      8 C         -10.0359  -15.1114   23.8979 C.ar    1  UNL1        0.1005
      9 N          -9.1423  -15.0121   25.0985 N.ar    1  UNL1       -0.2394
     10 C          -7.7454  -15.5555   25.0406 C.ar    1  UNL1        0.1316
     11 H          -5.9328  -15.1456   28.0530 H       1  UNL1        0.1438
     12 H          -7.5394  -14.6426   27.7818 H       1  UNL1        0.1438
     13 C          -4.9417  -17.3311   23.0278 C.2     1  UNL1        0.0666
     14 C          -3.5352  -16.8534   22.8193 C.2     1  UNL1        0.0152
     15 C          -2.6480  -17.5439   21.8263 C.2     1  UNL1        0.0041
     16 C          -3.1672  -18.7122   21.0418 C.2     1  UNL1        0.0367
     17 C          -2.5306  -19.5852   20.0014 C.2     1  UNL1        0.1233
     18 N          -3.5436  -20.6025   19.5668 N.2     1  UNL1       -0.1467
     19 N          -4.8063  -20.3583   20.3387 N.2     1  UNL1       -0.1519
     20 C          -4.5737  -19.1900   21.2503 C.2     1  UNL1        0.0880
     21 C          -5.4610  -18.4995   22.2433 C.3     1  UNL1        0.0934
     22 C         -10.4264  -15.8534   21.4388 C.ar    1  UNL1        0.0814
     23 C         -10.1978  -15.1915   20.1123 C.ar    1  UNL1        0.0412
     24 C         -11.3357  -15.5610   19.2076 C.ar    1  UNL1        0.1217
     25 N         -12.2678  -16.4513   19.9750 N.ar    1  UNL1       -0.1674
     26 N         -11.7058  -16.6319   21.3539 N.ar    1  UNL1       -0.2463
     27 C         -12.3160  -17.4479   22.4548 C.3     1  UNL1        0.1546
     28 C         -11.5211  -18.5390   23.1086 C.ar    1  UNL1        0.0127
     29 C         -11.2711  -18.5019   24.5872 C.ar    1  UNL1       -0.0006
     30 C         -10.4762  -19.5931   25.2410 C.ar    1  UNL1        0.0112
     31 C          -9.9313  -20.7214   24.4162 C.ar    1  UNL1        0.0585
     32 CL         -9.1364  -21.8125   25.0701 Cl      1  UNL1       -0.0822
     33 C         -10.1814  -20.7584   22.9377 C.ar    1  UNL1        0.0225
     34 C         -10.9763  -19.6672   22.2839 C.ar    1  UNL1        0.0564
     35 CL        -11.2263  -19.7043   20.8053 Cl      1  UNL1       -0.0825
@<TRIPOS>BOND
     1     1     2    1
     2     2     3   ar
     3     3     4   ar
     4     4    13    1
     5    13    14    2
     6    14    15    1
     7    15    16    2
     8    16    17    1
     9    17    18    2
    10    18    19    1
    11    19    20    2
    12    20    21    1
    13     4     5   ar
    14     5     6   ar
    15     6     7   ar
    16     7    22    1
    17    22    23   ar
    18    23    24   ar
    19    24    25   ar
    20    25    26   ar
    21    26    27    1
    22    27    28    1
    23    28    29   ar
    24    29    30   ar
    25    30    31   ar
    26    31    32    1
    27    31    33   ar
    28    33    34   ar
    29    34    35    1
    30     7     8   ar
    31     8     9   ar
    32     9    10   ar
    33    10     2   ar
    34    21    13    1
    35    10     5   ar
    36    20    16    1
    37    26    22   ar
    38    34    28   ar
    39     1    11    1
    40     1    12    1
@<TRIPOS>MOLECULE
*****
 35 40 0 0 0
SMALL
GASTEIGER

@<TRIPOS>ATOM
      1 N           4.5789   -5.0892   18.4538 N.pl3   1  UNL1       -0.3400
      2 C           4.4691   -3.8480   19.2889 C.ar    1  UNL1        0.1648
      3 N           4.2913   -3.7999   20.7776 N.ar    1  UNL1       -0.1491
      4 N           4.2302   -2.3592   21.1907 N.ar    1  UNL1       -0.2306
      5 C           4.3702   -1.5169   19.9574 C.ar    1  UNL1        0.1029
      6 C           4.3823   -0.0310   19.7527 C.ar    1  UNL1        0.0238
      7 C           4.5421    0.5347   18.3728 C.ar    1  UNL1        0.0380
      8 C           4.6897   -0.3855   17.1974 C.ar    1  UNL1        0.1005
      9 N           4.6776   -1.8714   17.4020 N.ar    1  UNL1       -0.2394
     10 C           4.5178   -2.4371   18.7820 C.ar    1  UNL1        0.1316
     11 H           4.5353   -5.9752   18.8807 H       1  UNL1        0.1438
     12 H           4.6944   -5.0178   17.4787 H       1  UNL1        0.1438
     13 C           4.0591   -1.8500   22.5912 C.2     1  UNL1        0.0666
     14 C           2.9969   -0.8359   22.8961 C.2     1  UNL1        0.0152
     15 C           2.8258   -0.3268   24.2966 C.2     1  UNL1        0.0041
     16 C           3.7170   -0.8318   25.3924 C.2     1  UNL1        0.0367
     17 C           3.7842   -0.5163   26.8572 C.2     1  UNL1        0.1233
     18 N           4.8879   -1.3354   27.4578 N.2     1  UNL1       -0.1467
     19 N           5.5030   -2.1573   26.3640 N.2     1  UNL1       -0.1519
     20 C           4.7793   -1.8461   25.0876 C.2     1  UNL1        0.0880
     21 C           4.9504   -2.3552   23.6870 C.3     1  UNL1        0.0934
     22 C           4.5542    2.0207   18.1681 C.ar    1  UNL1        0.0814
     23 C           5.7577    2.8569   17.8484 C.ar    1  UNL1        0.0412
     24 C           5.3122    4.2843   17.7299 C.ar    1  UNL1        0.1217
     25 N           3.8333    4.3303   17.9764 N.ar    1  UNL1       -0.1674
     26 N           3.3648    2.9313   18.2472 N.ar    1  UNL1       -0.2463
     27 C           1.9546    2.5159   18.5449 C.3     1  UNL1        0.1546
     28 C           1.4591    2.5040   19.9606 C.ar    1  UNL1        0.0127
     29 C           1.5671    3.7401   20.8034 C.ar    1  UNL1       -0.0006
     30 C           1.0716    3.7281   22.2192 C.ar    1  UNL1        0.0112
     31 C           0.4681    2.4801   22.7920 C.ar    1  UNL1        0.0585
     32 CL         -0.0274    2.4682   24.2079 Cl      1  UNL1       -0.0822
     33 C           0.3601    1.2440   21.9492 C.ar    1  UNL1        0.0225
     34 C           0.8556    1.2559   20.5335 C.ar    1  UNL1        0.0564
     35 CL          0.7476    0.0199   19.6906 Cl      1  UNL1       -0.0825
@<TRIPOS>BOND
     1     1     2    1
     2     2     3   ar
     3     3     4   ar
     4     4    13    1
     5    13    14    2
     6    14    15    1
     7    15    16    2
     8    16    17    1
     9    17    18    2
    10    18    19    1
    11    19    20    2
    12    20    21    1
    13     4     5   ar
    14     5     6   ar
    15     6     7   ar
    16     7    22    1
    17    22    23   ar
    18    23    24   ar
    19    24    25   ar
    20    25    26   ar
    21    26    27    1
    22    27    28    1
    23    28    29   ar
    24    29    30   ar
    25    30    31   ar
    26    31    32    1
    27    31    33   ar
    28    33    34   ar
    29    34    35    1
    30     7     8   ar
    31     8     9   ar
    32     9    10   ar
    33    10     2   ar
    34    21    13    1
    35    10     5   ar
    36    20    16    1
    37    26    22   ar
    38    34    28   ar
    39     1    11    1
    40     1    12    1
@<TRIPOS>MOLECULE
*****
 35 40 0 0 0
SMALL
GASTEIGER

@<TRIPOS>ATOM
      1 N           4.7045   -1.1351   27.7066 N.pl3   1  UNL1       -0.3400
      2 C           4.0154   -0.8110   26.4142 C.ar    1  UNL1        0.1648
      3 N           2.9552    0.2317   26.2177 N.ar    1  UNL1       -0.1491
      4 N           2.5501    0.2143   24.7735 N.ar    1  UNL1       -0.2306
      5 C           3.3600   -0.8391   24.0775 C.ar    1  UNL1        0.1029
      6 C           3.3898   -1.3031   22.6515 C.ar    1  UNL1        0.0238
      7 C           4.3252   -2.4008   22.2394 C.ar    1  UNL1        0.0380
      8 C           5.2309   -3.0346   23.2534 C.ar    1  UNL1        0.1005
      9 N           5.2011   -2.5705   24.6795 N.ar    1  UNL1       -0.2394
     10 C           4.2656   -1.4728   25.0915 C.ar    1  UNL1        0.1316
     11 H           4.4703   -0.6427   28.5263 H       1  UNL1        0.1438
     12 H           5.3910   -1.8402   27.7350 H       1  UNL1        0.1438
     13 C           1.5165    1.0957   24.1371 C.2     1  UNL1        0.0666
     14 C           1.6431    1.4770   22.6920 C.2     1  UNL1        0.0152
     15 C           0.6095    2.3583   22.0555 C.2     1  UNL1        0.0041
     16 C          -0.5506    2.8583   22.8642 C.2     1  UNL1        0.0367
     17 C          -1.7160    3.7346   22.5123 C.2     1  UNL1        0.1233
     18 N          -2.5628    3.8950   23.7399 N.2     1  UNL1       -0.1467
     19 N          -1.9208    3.1177   24.8506 N.2     1  UNL1       -0.1519
     20 C          -0.6772    2.4771   24.3094 C.2     1  UNL1        0.0880
     21 C           0.3564    1.5957   24.9459 C.3     1  UNL1        0.0934
     22 C           4.3551   -2.8649   20.8133 C.ar    1  UNL1        0.0814
     23 C           4.2168   -4.2831   20.3445 C.ar    1  UNL1        0.0412
     24 C           4.3047   -4.2869   18.8471 C.ar    1  UNL1        0.1217
     25 N           4.4973   -2.8711   18.3904 N.ar    1  UNL1       -0.1674
     26 N           4.5284   -1.9923   19.6056 N.ar    1  UNL1       -0.2463
     27 C           4.7023   -0.5025   19.6119 C.3     1  UNL1        0.1546
     28 C           3.5566    0.3881   19.2324 C.ar    1  UNL1        0.0127
     29 C           2.1754   -0.1820   19.1001 C.ar    1  UNL1       -0.0006
     30 C           1.0297    0.7086   18.7205 C.ar    1  UNL1        0.0112
     31 C           1.2651    2.1693   18.4733 C.ar    1  UNL1        0.0585
     32 CL          0.1192    3.0598   18.0937 Cl      1  UNL1       -0.0822
     33 C           2.6462    2.7393   18.6056 C.ar    1  UNL1        0.0225
     34 C           3.7920    1.8487   18.9852 C.ar    1  UNL1        0.0564
     35 CL          5.1731    2.4187   19.1175 Cl      1  UNL1       -0.0825
@<TRIPOS>BOND
     1     1     2    1
     2     2     3   ar
     3     3     4   ar
     4     4    13    1
     5    13    14    2
     6    14    15    1
     7    15    16    2
     8    16    17    1
     9    17    18    2
    10    18    19    1
    11    19    20    2
    12    20    21    1
    13     4     5   ar
    14     5     6   ar
    15     6     7   ar
    16     7    22    1
    17    22    23   ar
    18    23    24   ar
    19    24    25   ar
    20    25    26   ar
    21    26    27    1
    22    27    28    1
    23    28    29   ar
    24    29    30   ar
    25    30    31   ar
    26    31    32    1
    27    31    33   ar
    28    33    34   ar
    29    34    35    1
    30     7     8   ar
    31     8     9   ar
    32     9    10   ar
    33    10     2   ar
    34    21    13    1
    35    10     5   ar
    36    20    16    1
    37    26    22   ar
    38    34    28   ar
    39     1    11    1
    40     1    12    1
@<TRIPOS>MOLECULE
*****
 35 40 0 0 0
SMALL
GASTEIGER

@<TRIPOS>ATOM
      1 N           1.6182    1.3979   27.6707 N.pl3   1  UNL1       -0.3400
      2 C           2.1728    0.7117   26.4576 C.ar    1  UNL1        0.1648
      3 N           3.2311   -0.3512   26.4525 N.ar    1  UNL1       -0.1491
      4 N           3.4788   -0.7518   25.0283 N.ar    1  UNL1       -0.2306
      5 C           2.5736    0.0637   24.1533 C.ar    1  UNL1        0.1029
      6 C           2.3800    0.0994   22.6663 C.ar    1  UNL1        0.0238
      7 C           1.3793    1.0397   22.0627 C.ar    1  UNL1        0.0380
      8 C           0.5721    1.9442   22.9460 C.ar    1  UNL1        0.1005
      9 N           0.7657    1.9084   24.4330 N.ar    1  UNL1       -0.2394
     10 C           1.7664    0.9682   25.0367 C.ar    1  UNL1        0.1316
     11 H           1.9507    1.1595   28.5662 H       1  UNL1        0.1438
     12 H           0.9216    2.0865   27.5715 H       1  UNL1        0.1438
     13 C           4.4596   -1.7861   24.5612 C.2     1  UNL1        0.0666
     14 C           4.2612   -2.4644   23.2382 C.2     1  UNL1        0.0152
     15 C           5.2419   -3.4987   22.7710 C.2     1  UNL1        0.0041
     16 C           6.4211   -3.8549   23.6269 C.2     1  UNL1        0.0367
     17 C           7.5458   -4.8279   23.4316 C.2     1  UNL1        0.1233
     18 N           8.4394   -4.7511   24.6339 N.2     1  UNL1       -0.1467
     19 N           7.8669   -3.7305   25.5724 N.2     1  UNL1       -0.1519
     20 C           6.6196   -3.1766   24.9500 C.2     1  UNL1        0.0880
     21 C           5.6388   -2.1422   25.4172 C.3     1  UNL1        0.0934
     22 C           1.1857    1.0755   20.5756 C.ar    1  UNL1        0.0814
     23 C           0.5879    2.2057   19.7912 C.ar    1  UNL1        0.0412
     24 C           0.5887    1.8160   18.3427 C.ar    1  UNL1        0.1217
     25 N           1.1870    0.4449   18.2319 N.ar    1  UNL1       -0.1674
     26 N           1.5560   -0.0127   19.6119 N.ar    1  UNL1       -0.2463
     27 C           2.1848   -1.3277   19.9659 C.3     1  UNL1        0.1546
     28 C           3.6320   -1.5742   19.6580 C.ar    1  UNL1        0.0127
     29 C           4.6248   -0.4560   19.7757 C.ar    1  UNL1       -0.0006
     30 C           6.0720   -0.7026   19.4678 C.ar    1  UNL1        0.0112
     31 C           6.5263   -2.0673   19.0422 C.ar    1  UNL1        0.0585
     32 CL          7.9736   -2.3137   18.7343 Cl      1  UNL1       -0.0822
     33 C           5.5335   -3.1855   18.9245 C.ar    1  UNL1        0.0225
     34 C           4.0863   -2.9389   19.2324 C.ar    1  UNL1        0.0564
     35 CL          3.0934   -4.0571   19.1148 Cl      1  UNL1       -0.0825
@<TRIPOS>BOND
     1     1     2    1
     2     2     3   ar
     3     3     4   ar
     4     4    13    1
     5    13    14    2
     6    14    15    1
     7    15    16    2
     8    16    17    1
     9    17    18    2
    10    18    19    1
    11    19    20    2
    12    20    21    1
    13     4     5   ar
    14     5     6   ar
    15     6     7   ar
    16     7    22    1
    17    22    23   ar
    18    23    24   ar
    19    24    25   ar
    20    25    26   ar
    21    26    27    1
    22    27    28    1
    23    28    29   ar
    24    29    30   ar
    25    30    31   ar
    26    31    32    1
    27    31    33   ar
    28    33    34   ar
    29    34    35    1
    30     7     8   ar
    31     8     9   ar
    32     9    10   ar
    33    10     2   ar
    34    21    13    1
    35    10     5   ar
    36    20    16    1
    37    26    22   ar
    38    34    28   ar
    39     1    11    1
    40     1    12    1
