@<TRIPOS>MOLECULE
*****
 40 43 0 0 0
SMALL
GASTEIGER

@<TRIPOS>ATOM
      1 C           3.2785    0.6394   26.9824 C.3     1  UNL1        0.0903
      2 C           2.0566    0.9009   27.8121 C.3     1  UNL1        0.0920
      3 N           0.7461    1.1963   27.1448 N.3     1  UNL1       -0.2692
      4 C           0.6576    1.2301   25.6478 C.3     1  UNL1        0.0723
      5 C           1.8795    0.9686   24.8181 C.3     1  UNL1        0.0204
      6 C           3.1900    0.6733   25.4854 C.3     1  UNL1        0.0368
      7 N           6.2925   -1.3705   28.6031 N.am    1  UNL1       -0.2485
      8 C           4.9820   -1.0751   27.9358 C.2     1  UNL1        0.3059
      9 O           4.0643   -2.1988   27.5547 O.2     1  UNL1       -0.2524
     10 N           4.5891    0.3440   27.6497 N.am    1  UNL1       -0.2889
     11 H           6.8948   -0.6330   28.8532 H       1  UNL1        0.1583
     12 H           5.1914    1.0815   27.8998 H       1  UNL1        0.1510
     13 C           7.2893   -4.8253   30.0648 C.ar    1  UNL1        0.0803
     14 S           6.9154   -3.3841   30.2470 S.2     1  UNL1       -0.0488
     15 C           6.6853   -2.7896   28.8892 C.ar    1  UNL1        0.1664
     16 N           6.9171   -3.8633   27.8678 N.ar    1  UNL1       -0.2282
     17 C           7.2904   -5.1214   28.5943 C.ar    1  UNL1        0.0701
     18 C           7.6089   -6.4436   27.9615 C.3     1  UNL1        0.0528
     19 C           9.0060   -6.3132   31.3253 C.3     1  UNL1        0.0779
     20 C           7.6065   -5.7992   31.1606 C.2     1  UNL1        0.1807
     21 O           6.5242   -6.2591   32.0917 O.2     1  UNL1       -0.2908
     22 C          -0.4759    1.4578   27.9745 C.3     1  UNL1        0.1043
     23 C          -0.6624    0.7442   29.2807 C.3     1  UNL1        0.1544
     24 O          -0.7233   -0.7541   29.3148 O.3     1  UNL1       -0.3805
     25 H          -1.5193   -1.0560   28.8498 H       1  UNL1        0.2105
     26 C           4.4120    0.4118   24.6557 C.3     1  UNL1        0.0738
     27 N           4.5229   -0.8568   23.8629 N.3     1  UNL1       -0.2726
     28 C           5.2518   -2.0369   24.4341 C.3     1  UNL1        0.0721
     29 C           5.3627   -3.3054   23.6413 C.3     1  UNL1        0.0174
     30 C           4.7446   -3.3939   22.2774 C.3     1  UNL1        0.0031
     31 C           4.0157   -2.2139   21.7063 C.3     1  UNL1        0.0204
     32 C           3.9049   -0.9453   22.4991 C.3     1  UNL1        0.0724
     33 C           3.3977   -2.3024   20.3424 C.3     1  UNL1        0.0277
     34 C           2.6773   -1.1190   19.7672 C.ar    1  UNL1       -0.0220
     35 C           1.2917   -0.7847   20.2344 C.ar    1  UNL1       -0.0020
     36 C           0.5713    0.3986   19.6592 C.ar    1  UNL1        0.0293
     37 C           1.2367    1.2477   18.6168 C.ar    1  UNL1        0.1401
     38 F           0.5164    2.4310   18.0417 F       1  UNL1       -0.2042
     39 C           2.6223    0.9133   18.1497 C.ar    1  UNL1        0.0293
     40 C           3.3426   -0.2700   18.7248 C.ar    1  UNL1       -0.0020
@<TRIPOS>BOND
     1    19    20    1
     2    20    21    2
     3    20    13    1
     4    13    14   ar
     5    14    15   ar
     6    15     7    1
     7     7     8   am
     8     8     9    2
     9     8    10   am
    10     1    10    1
    11     1     2    1
    12     2     3    1
    13     3    22    1
    14    22    23    1
    15    23    24    1
    16     3     4    1
    17     4     5    1
    18     5     6    1
    19     6    26    1
    20    26    27    1
    21    27    28    1
    22    28    29    1
    23    29    30    1
    24    30    31    1
    25    31    33    1
    26    33    34    1
    27    34    35   ar
    28    35    36   ar
    29    36    37   ar
    30    37    38    1
    31    37    39   ar
    32    39    40   ar
    33    31    32    1
    34    15    16   ar
    35    16    17   ar
    36    17    18    1
    37    17    13   ar
    38     6     1    1
    39    32    27    1
    40    40    34   ar
    41     7    11    1
    42    10    12    1
    43    24    25    1
@<TRIPOS>MOLECULE
*****
 40 43 0 0 0
SMALL
GASTEIGER

@<TRIPOS>ATOM
      1 C          -4.9961    5.0915   24.3743 C.3     1  UNL1        0.0903
      2 C          -5.6753    6.1831   25.1469 C.3     1  UNL1        0.0920
      3 N          -7.1662    6.3336   25.0794 N.3     1  UNL1       -0.2692
      4 C          -7.9778    5.3925   24.2394 C.3     1  UNL1        0.0723
      5 C          -7.2985    4.3009   23.4668 C.3     1  UNL1        0.0204
      6 C          -5.8076    4.1504   23.5342 C.3     1  UNL1        0.0368
      7 N          -1.3854    4.0606   25.6589 N.am    1  UNL1       -0.2485
      8 C          -2.8762    4.2111   25.5914 C.2     1  UNL1        0.3059
      9 O          -3.7383    3.6319   26.6738 O.2     1  UNL1       -0.2524
     10 N          -3.5051    4.9409   24.4417 N.am    1  UNL1       -0.2889
     11 H          -0.8196    4.4407   24.9486 H       1  UNL1        0.1583
     12 H          -2.9393    5.3211   23.7313 H       1  UNL1        0.1510
     13 C           0.0235    1.5526   28.2648 C.ar    1  UNL1        0.0803
     14 S          -0.6906    1.8418   26.9778 S.2     1  UNL1       -0.0488
     15 C          -0.7565    3.3308   26.8087 C.ar    1  UNL1        0.1664
     16 N          -0.0831    3.9618   27.9912 N.ar    1  UNL1       -0.2282
     17 C           0.3989    2.8628   28.8911 C.ar    1  UNL1        0.0701
     18 C           1.1284    3.0425   30.1894 C.3     1  UNL1        0.0528
     19 C           1.7012   -0.3686   28.7590 C.3     1  UNL1        0.0779
     20 C           0.3115    0.1920   28.8268 C.2     1  UNL1        0.1807
     21 O          -0.7900   -0.6079   29.4565 O.2     1  UNL1       -0.2908
     22 C          -7.8456    7.4252   25.8521 C.3     1  UNL1        0.1043
     23 C          -7.7375    7.4645   27.3477 C.3     1  UNL1        0.1544
     24 O          -8.2238    6.3050   28.1655 O.3     1  UNL1       -0.3805
     25 H          -9.1863    6.2262   28.0744 H       1  UNL1        0.2105
     26 C          -5.1283    3.0588   22.7616 C.3     1  UNL1        0.0738
     27 N          -4.4869    3.3627   21.4401 N.3     1  UNL1       -0.2726
     28 C          -5.3406    3.6433   20.2390 C.3     1  UNL1        0.0721
     29 C          -4.6993    3.9472   18.9175 C.3     1  UNL1        0.0174
     30 C          -3.2043    3.9705   18.7971 C.3     1  UNL1        0.0031
     31 C          -2.3507    3.6899   19.9981 C.3     1  UNL1        0.0204
     32 C          -2.9920    3.3860   21.3196 C.3     1  UNL1        0.0724
     33 C          -0.8556    3.7132   19.8777 C.3     1  UNL1        0.0277
     34 C          -0.0880    2.4259   19.8168 C.ar    1  UNL1       -0.0220
     35 C           0.0657    1.5853   21.0496 C.ar    1  UNL1       -0.0020
     36 C           0.8334    0.2981   20.9887 C.ar    1  UNL1        0.0293
     37 C           1.4473   -0.1486   19.6949 C.ar    1  UNL1        0.1401
     38 F           2.2149   -1.4358   19.6340 F       1  UNL1       -0.2042
     39 C           1.2935    0.6921   18.4622 C.ar    1  UNL1        0.0293
     40 C           0.5259    1.9793   18.5231 C.ar    1  UNL1       -0.0020
@<TRIPOS>BOND
     1    19    20    1
     2    20    21    2
     3    20    13    1
     4    13    14   ar
     5    14    15   ar
     6    15     7    1
     7     7     8   am
     8     8     9    2
     9     8    10   am
    10     1    10    1
    11     1     2    1
    12     2     3    1
    13     3    22    1
    14    22    23    1
    15    23    24    1
    16     3     4    1
    17     4     5    1
    18     5     6    1
    19     6    26    1
    20    26    27    1
    21    27    28    1
    22    28    29    1
    23    29    30    1
    24    30    31    1
    25    31    33    1
    26    33    34    1
    27    34    35   ar
    28    35    36   ar
    29    36    37   ar
    30    37    38    1
    31    37    39   ar
    32    39    40   ar
    33    31    32    1
    34    15    16   ar
    35    16    17   ar
    36    17    18    1
    37    17    13   ar
    38     6     1    1
    39    32    27    1
    40    40    34   ar
    41     7    11    1
    42    10    12    1
    43    24    25    1
@<TRIPOS>MOLECULE
*****
 40 43 0 0 0
SMALL
GASTEIGER

@<TRIPOS>ATOM
      1 C           6.5363   -2.2062   28.7355 C.3     1  UNL1        0.0903
      2 C           6.5699   -3.5092   29.4776 C.3     1  UNL1        0.0920
      3 N           7.3317   -4.6728   28.9158 N.3     1  UNL1       -0.2692
      4 C           8.0598   -4.5334   27.6119 C.3     1  UNL1        0.0723
      5 C           8.0262   -3.2304   26.8697 C.3     1  UNL1        0.0204
      6 C           7.2644   -2.0667   27.4315 C.3     1  UNL1        0.0368
      7 N           3.5974    0.3693   29.4283 N.am    1  UNL1       -0.2485
      8 C           4.3592   -0.7943   28.8666 C.2     1  UNL1        0.3059
      9 O           3.7057   -1.7098   27.8741 O.2     1  UNL1       -0.2524
     10 N           5.7745   -1.0425   29.2972 N.am    1  UNL1       -0.2889
     11 H           4.0263    0.9702   30.0797 H       1  UNL1        0.1583
     12 H           6.2033   -0.4416   29.9486 H       1  UNL1        0.1510
     13 C           0.2456    1.4971   27.8285 C.ar    1  UNL1        0.0803
     14 S           1.7408    1.5687   27.9251 S.2     1  UNL1       -0.0488
     15 C           2.1821    0.6175   28.9977 C.ar    1  UNL1        0.1664
     16 N           0.9597   -0.0420   29.5639 N.ar    1  UNL1       -0.2282
     17 C          -0.2371    0.5016   28.8413 C.ar    1  UNL1        0.0701
     18 C          -1.6658    0.1172   29.0883 C.3     1  UNL1        0.0528
     19 C          -1.1668    3.6137   27.3038 C.3     1  UNL1        0.0779
     20 C          -0.6155    2.2831   26.8847 C.2     1  UNL1        0.1807
     21 O          -0.9254    1.7385   25.5220 O.2     1  UNL1       -0.2908
     22 C           7.3653   -5.9760   29.6580 C.3     1  UNL1        0.1043
     23 C           7.6775   -5.9957   31.1251 C.3     1  UNL1        0.1544
     24 O           6.5676   -6.1189   32.1265 O.3     1  UNL1       -0.3805
     25 H           6.0097   -5.3262   32.0899 H       1  UNL1        0.2105
     26 C           7.2307   -0.7636   26.6893 C.3     1  UNL1        0.0738
     27 N           6.0507   -0.4208   25.8289 N.3     1  UNL1       -0.2726
     28 C           5.3646    0.9034   25.9900 C.3     1  UNL1        0.0721
     29 C           4.1847    1.2462   25.1296 C.3     1  UNL1        0.0174
     30 C           3.6908    0.2648   24.1083 C.3     1  UNL1        0.0031
     31 C           4.3769   -1.0593   23.9473 C.3     1  UNL1        0.0204
     32 C           5.5569   -1.4021   24.8077 C.3     1  UNL1        0.0724
     33 C           3.8830   -2.0407   22.9260 C.3     1  UNL1        0.0277
     34 C           3.7305   -1.6202   21.4942 C.ar    1  UNL1       -0.0220
     35 C           4.8543   -1.8378   20.5248 C.ar    1  UNL1       -0.0020
     36 C           4.7018   -1.4173   19.0931 C.ar    1  UNL1        0.0293
     37 C           3.4254   -0.7792   18.6307 C.ar    1  UNL1        0.1401
     38 F           3.2728   -0.3587   17.1990 F       1  UNL1       -0.2042
     39 C           2.3016   -0.5616   19.6001 C.ar    1  UNL1        0.0293
     40 C           2.4542   -0.9821   21.0319 C.ar    1  UNL1       -0.0020
@<TRIPOS>BOND
     1    19    20    1
     2    20    21    2
     3    20    13    1
     4    13    14   ar
     5    14    15   ar
     6    15     7    1
     7     7     8   am
     8     8     9    2
     9     8    10   am
    10     1    10    1
    11     1     2    1
    12     2     3    1
    13     3    22    1
    14    22    23    1
    15    23    24    1
    16     3     4    1
    17     4     5    1
    18     5     6    1
    19     6    26    1
    20    26    27    1
    21    27    28    1
    22    28    29    1
    23    29    30    1
    24    30    31    1
    25    31    33    1
    26    33    34    1
    27    34    35   ar
    28    35    36   ar
    29    36    37   ar
    30    37    38    1
    31    37    39   ar
    32    39    40   ar
    33    31    32    1
    34    15    16   ar
    35    16    17   ar
    36    17    18    1
    37    17    13   ar
    38     6     1    1
    39    32    27    1
    40    40    34   ar
    41     7    11    1
    42    10    12    1
    43    24    25    1
@<TRIPOS>MOLECULE
*****
 40 43 0 0 0
SMALL
GASTEIGER

@<TRIPOS>ATOM
      1 C           7.3173   -3.2365   23.9707 C.3     1  UNL1        0.0903
      2 C           7.3031   -3.9881   25.2687 C.3     1  UNL1        0.0920
      3 N           7.7035   -5.4332   25.3029 N.3     1  UNL1       -0.2692
      4 C           8.1182   -6.1267   24.0391 C.3     1  UNL1        0.0723
      5 C           8.1324   -5.3751   22.7411 C.3     1  UNL1        0.0204
      6 C           7.7320   -3.9300   22.7069 C.3     1  UNL1        0.0368
      7 N           5.0703    0.0283   23.7662 N.am    1  UNL1       -0.2485
      8 C           5.4708   -1.4168   23.8005 C.2     1  UNL1        0.3059
      9 O           4.4251   -2.4875   23.6987 O.2     1  UNL1       -0.2524
     10 N           6.9169   -1.7913   23.9364 N.am    1  UNL1       -0.2889
     11 H           5.7566    0.7311   23.8330 H       1  UNL1        0.1583
     12 H           7.6032   -1.0886   24.0032 H       1  UNL1        0.1510
     13 C           1.4715    0.9890   22.6746 C.ar    1  UNL1        0.0803
     14 S           2.8918    0.6389   22.3426 S.2     1  UNL1       -0.0488
     15 C           3.6242    0.4029   23.6302 C.ar    1  UNL1        0.1664
     16 N           2.6565    0.6071   24.7580 N.ar    1  UNL1       -0.2282
     17 C           1.3261    0.9693   24.1674 C.ar    1  UNL1        0.0701
     18 C           0.0707    1.2608   24.9349 C.3     1  UNL1        0.0528
     19 C          -0.1039    2.7128   21.5360 C.3     1  UNL1        0.0779
     20 C           0.3871    1.3035   21.6871 C.2     1  UNL1        0.1807
     21 O          -0.2063    0.2088   20.8508 O.2     1  UNL1       -0.2908
     22 C           7.6893   -6.1849   26.6009 C.3     1  UNL1        0.1043
     23 C           6.9210   -5.6462   27.7711 C.3     1  UNL1        0.1544
     24 O           5.4322   -5.8177   27.8339 O.3     1  UNL1       -0.3805
     25 H           5.0178   -5.3089   27.1196 H       1  UNL1        0.2105
     26 C           7.7462   -3.1782   21.4089 C.3     1  UNL1        0.0738
     27 N           6.4994   -3.0900   20.5796 N.3     1  UNL1       -0.2726
     28 C           5.3882   -4.0757   20.7888 C.3     1  UNL1        0.0721
     29 C           4.1414   -3.9875   19.9596 C.3     1  UNL1        0.0174
     30 C           4.0057   -2.9135   18.9211 C.3     1  UNL1        0.0031
     31 C           5.1169   -1.9278   18.7120 C.3     1  UNL1        0.0204
     32 C           6.3637   -2.0161   19.5413 C.3     1  UNL1        0.0724
     33 C           4.9812   -0.8538   17.6736 C.3     1  UNL1        0.0277
     34 C           4.1737    0.3757   17.9673 C.ar    1  UNL1       -0.0220
     35 C           4.8555    1.7040   18.1115 C.ar    1  UNL1       -0.0020
     36 C           4.0480    2.9335   18.4052 C.ar    1  UNL1        0.0293
     37 C           2.5587    2.8346   18.5548 C.ar    1  UNL1        0.1401
     38 F           1.7511    4.0641   18.8485 F       1  UNL1       -0.2042
     39 C           1.8770    1.5063   18.4106 C.ar    1  UNL1        0.0293
     40 C           2.6845    0.2768   18.1169 C.ar    1  UNL1       -0.0020
@<TRIPOS>BOND
     1    19    20    1
     2    20    21    2
     3    20    13    1
     4    13    14   ar
     5    14    15   ar
     6    15     7    1
     7     7     8   am
     8     8     9    2
     9     8    10   am
    10     1    10    1
    11     1     2    1
    12     2     3    1
    13     3    22    1
    14    22    23    1
    15    23    24    1
    16     3     4    1
    17     4     5    1
    18     5     6    1
    19     6    26    1
    20    26    27    1
    21    27    28    1
    22    28    29    1
    23    29    30    1
    24    30    31    1
    25    31    33    1
    26    33    34    1
    27    34    35   ar
    28    35    36   ar
    29    36    37   ar
    30    37    38    1
    31    37    39   ar
    32    39    40   ar
    33    31    32    1
    34    15    16   ar
    35    16    17   ar
    36    17    18    1
    37    17    13   ar
    38     6     1    1
    39    32    27    1
    40    40    34   ar
    41     7    11    1
    42    10    12    1
    43    24    25    1
@<TRIPOS>MOLECULE
*****
 40 43 0 0 0
SMALL
GASTEIGER

@<TRIPOS>ATOM
      1 C           6.7577   -2.5001   25.2072 C.3     1  UNL1        0.0903
      2 C           6.7773   -3.6456   26.1754 C.3     1  UNL1        0.0920
      3 N           7.2359   -5.0007   25.7246 N.3     1  UNL1       -0.2692
      4 C           7.6749   -5.2103   24.3057 C.3     1  UNL1        0.0723
      5 C           7.6552   -4.0648   23.3375 C.3     1  UNL1        0.0204
      6 C           7.1967   -2.7097   23.7883 C.3     1  UNL1        0.0368
      7 N           4.3977    0.4389   26.4494 N.am    1  UNL1       -0.2485
      8 C           4.8563   -0.9162   25.9987 C.2     1  UNL1        0.3059
      9 O           3.8721   -2.0429   25.8886 O.2     1  UNL1       -0.2524
     10 N           6.2991   -1.1448   25.6580 N.am    1  UNL1       -0.2889
     11 H           5.0436    1.1783   26.5216 H       1  UNL1        0.1583
     12 H           6.9451   -0.4054   25.7302 H       1  UNL1        0.1510
     13 C           0.8400    0.6913   27.9806 C.ar    1  UNL1        0.0803
     14 S           2.2773    0.2713   28.0683 S.2     1  UNL1       -0.0488
     15 C           2.9549    0.6675   26.7901 C.ar    1  UNL1        0.1664
     16 N           1.9363    1.3324   25.9123 N.ar    1  UNL1       -0.2282
     17 C           0.6292    1.3471   26.6481 C.ar    1  UNL1        0.0701
     18 C          -0.6619    1.9175   26.1404 C.3     1  UNL1        0.0528
     19 C          -1.3171   -0.4895   28.8187 C.3     1  UNL1        0.0779
     20 C          -0.2034    0.4908   29.0394 C.2     1  UNL1        0.1807
     21 O          -0.1330    1.2704   30.3189 O.2     1  UNL1       -0.2908
     22 C           7.2556   -6.1463   26.6928 C.3     1  UNL1        0.1043
     23 C           7.5155   -7.5394   26.2012 C.3     1  UNL1        0.1544
     24 O           6.4800   -8.6076   26.3923 O.3     1  UNL1       -0.3805
     25 H           6.3718   -8.7873   27.3394 H       1  UNL1        0.2105
     26 C           7.1770   -1.5641   22.8201 C.3     1  UNL1        0.0738
     27 N           6.6523   -1.7664   21.4295 N.3     1  UNL1       -0.2726
     28 C           7.6056   -1.8709   20.2760 C.3     1  UNL1        0.0721
     29 C           7.0809   -2.0732   18.8854 C.3     1  UNL1        0.0174
     30 C           5.6030   -2.1708   18.6483 C.3     1  UNL1        0.0031
     31 C           4.6498   -2.0662   19.8017 C.3     1  UNL1        0.0204
     32 C           5.1745   -1.8640   21.1923 C.3     1  UNL1        0.0724
     33 C           3.1718   -2.1639   19.5645 C.3     1  UNL1        0.0277
     34 C           2.3428   -0.9171   19.4740 C.ar    1  UNL1       -0.0220
     35 C           2.7221    0.1675   18.5096 C.ar    1  UNL1       -0.0020
     36 C           1.8931    1.4143   18.4191 C.ar    1  UNL1        0.0293
     37 C           0.6847    1.5765   19.2930 C.ar    1  UNL1        0.1401
     38 F          -0.1443    2.8233   19.2025 F       1  UNL1       -0.2042
     39 C           0.3054    0.4920   20.2573 C.ar    1  UNL1        0.0293
     40 C           1.1345   -0.7548   20.3478 C.ar    1  UNL1       -0.0020
@<TRIPOS>BOND
     1    19    20    1
     2    20    21    2
     3    20    13    1
     4    13    14   ar
     5    14    15   ar
     6    15     7    1
     7     7     8   am
     8     8     9    2
     9     8    10   am
    10     1    10    1
    11     1     2    1
    12     2     3    1
    13     3    22    1
    14    22    23    1
    15    23    24    1
    16     3     4    1
    17     4     5    1
    18     5     6    1
    19     6    26    1
    20    26    27    1
    21    27    28    1
    22    28    29    1
    23    29    30    1
    24    30    31    1
    25    31    33    1
    26    33    34    1
    27    34    35   ar
    28    35    36   ar
    29    36    37   ar
    30    37    38    1
    31    37    39   ar
    32    39    40   ar
    33    31    32    1
    34    15    16   ar
    35    16    17   ar
    36    17    18    1
    37    17    13   ar
    38     6     1    1
    39    32    27    1
    40    40    34   ar
    41     7    11    1
    42    10    12    1
    43    24    25    1
@<TRIPOS>MOLECULE
*****
 40 43 0 0 0
SMALL
GASTEIGER

@<TRIPOS>ATOM
      1 C           1.9539    1.7069   24.7248 C.3     1  UNL1        0.0903
      2 C           1.9443    1.1145   26.1027 C.3     1  UNL1        0.0920
      3 N           0.6791    1.1101   26.9085 N.3     1  UNL1       -0.2692
      4 C          -0.5765    1.6982   26.3362 C.3     1  UNL1        0.0723
      5 C          -0.5669    2.2907   24.9582 C.3     1  UNL1        0.0204
      6 C           0.6983    2.2950   24.1525 C.3     1  UNL1        0.0368
      7 N           4.8868    0.4933   22.3425 N.am    1  UNL1       -0.2485
      8 C           3.6216    0.4890   23.1482 C.2     1  UNL1        0.3059
      9 O           2.7589   -0.7376   23.1833 O.2     1  UNL1       -0.2524
     10 N           3.2191    1.7113   23.9190 N.am    1  UNL1       -0.2889
     11 H           5.4530    1.2984   22.3195 H       1  UNL1        0.1583
     12 H           3.7853    2.5163   23.8960 H       1  UNL1        0.1510
     13 C           6.5740   -2.6091   20.7319 C.ar    1  UNL1        0.0803
     14 S           6.6024   -1.4462   21.6789 S.2     1  UNL1       -0.0488
     15 C           5.2893   -0.7290   21.5717 C.ar    1  UNL1        0.1664
     16 N           4.4494   -1.4487   20.5585 N.ar    1  UNL1       -0.2282
     17 C           5.2434   -2.6106   20.0394 C.ar    1  UNL1        0.0701
     18 C           4.7869   -3.6004   19.0089 C.3     1  UNL1        0.0528
     19 C           8.9855   -3.1449   19.9273 C.3     1  UNL1        0.0779
     20 C           7.6818   -3.5970   20.5153 C.2     1  UNL1        0.1807
     21 O           7.4858   -5.0369   20.8868 O.2     1  UNL1       -0.2908
     22 C           0.6695    0.5176   28.2865 C.3     1  UNL1        0.1043
     23 C           1.7680   -0.4113   28.7111 C.3     1  UNL1        0.1544
     24 O           1.8197   -0.9160   30.1227 O.3     1  UNL1       -0.3805
     25 H           1.9918   -0.1752   30.7248 H       1  UNL1        0.2105
     26 C           0.7079    2.8875   22.7744 C.3     1  UNL1        0.0738
     27 N           0.9857    2.0162   21.5854 N.3     1  UNL1       -0.2726
     28 C           0.2696    0.7072   21.4311 C.3     1  UNL1        0.0721
     29 C           0.5474   -0.1640   20.2421 C.3     1  UNL1        0.0174
     30 C           1.5414    0.2737   19.2074 C.3     1  UNL1        0.0031
     31 C           2.2574    1.5827   19.3618 C.3     1  UNL1        0.0204
     32 C           1.9796    2.4539   20.5508 C.3     1  UNL1        0.0724
     33 C           3.2514    2.0205   18.3271 C.3     1  UNL1        0.0277
     34 C           4.6519    1.4843   18.3584 C.ar    1  UNL1       -0.0220
     35 C           5.6895    2.1464   19.2160 C.ar    1  UNL1       -0.0020
     36 C           7.0900    1.6102   19.2473 C.ar    1  UNL1        0.0293
     37 C           7.4531    0.4121   18.4210 C.ar    1  UNL1        0.1401
     38 F           8.8536   -0.1241   18.4523 F       1  UNL1       -0.2042
     39 C           6.4156   -0.2499   17.5635 C.ar    1  UNL1        0.0293
     40 C           5.0150    0.2862   17.5322 C.ar    1  UNL1       -0.0020
@<TRIPOS>BOND
     1    19    20    1
     2    20    21    2
     3    20    13    1
     4    13    14   ar
     5    14    15   ar
     6    15     7    1
     7     7     8   am
     8     8     9    2
     9     8    10   am
    10     1    10    1
    11     1     2    1
    12     2     3    1
    13     3    22    1
    14    22    23    1
    15    23    24    1
    16     3     4    1
    17     4     5    1
    18     5     6    1
    19     6    26    1
    20    26    27    1
    21    27    28    1
    22    28    29    1
    23    29    30    1
    24    30    31    1
    25    31    33    1
    26    33    34    1
    27    34    35   ar
    28    35    36   ar
    29    36    37   ar
    30    37    38    1
    31    37    39   ar
    32    39    40   ar
    33    31    32    1
    34    15    16   ar
    35    16    17   ar
    36    17    18    1
    37    17    13   ar
    38     6     1    1
    39    32    27    1
    40    40    34   ar
    41     7    11    1
    42    10    12    1
    43    24    25    1
@<TRIPOS>MOLECULE
*****
 40 43 0 0 0
SMALL
GASTEIGER

@<TRIPOS>ATOM
      1 C           8.8189   -7.5368   27.2386 C.3     1  UNL1        0.0903
      2 C           9.1173   -7.3460   25.7810 C.3     1  UNL1        0.0920
      3 N           9.1655   -5.9640   25.2001 N.3     1  UNL1       -0.2692
      4 C           8.9154   -4.7727   26.0766 C.3     1  UNL1        0.0723
      5 C           8.6171   -4.9635   27.5342 C.3     1  UNL1        0.0204
      6 C           8.5689   -6.3455   28.1152 C.3     1  UNL1        0.0368
      7 N           7.5153  -11.1643   28.1828 N.am    1  UNL1       -0.2485
      8 C           7.5636   -9.7823   27.6018 C.2     1  UNL1        0.3059
      9 O           6.4048   -9.2636   26.8028 O.2     1  UNL1       -0.2524
     10 N           8.7706   -8.9189   27.8197 N.am    1  UNL1       -0.2889
     11 H           8.2758  -11.5047   28.7071 H       1  UNL1        0.1583
     12 H           9.5312   -9.2593   28.3440 H       1  UNL1        0.1510
     13 C           4.1955  -13.1715   28.3102 C.ar    1  UNL1        0.0803
     14 S           5.1858  -12.2360   28.9380 S.2     1  UNL1       -0.0488
     15 C           6.3082  -12.0278   27.9649 C.ar    1  UNL1        0.1664
     16 N           6.0115  -12.8346   26.7357 N.ar    1  UNL1       -0.2282
     17 C           4.7058  -13.5414   26.9490 C.ar    1  UNL1        0.0701
     18 C           4.0293  -14.4574   25.9727 C.3     1  UNL1        0.0528
     19 C           1.9005  -12.6627   29.4165 C.3     1  UNL1        0.0779
     20 C           2.9190  -13.6525   28.9340 C.2     1  UNL1        0.1807
     21 O           2.6610  -15.1233   29.0753 O.2     1  UNL1       -0.2908
     22 C           9.4639   -5.7731   23.7424 C.3     1  UNL1        0.1043
     23 C           8.4154   -6.0830   22.7155 C.3     1  UNL1        0.1544
     24 O           8.8078   -6.2948   21.2833 O.3     1  UNL1       -0.3805
     25 H           9.1539   -5.4660   20.9169 H       1  UNL1        0.2105
     26 C           8.2705   -6.5364   29.5728 C.3     1  UNL1        0.0738
     27 N           8.2489   -5.3536   30.4951 N.3     1  UNL1       -0.2726
     28 C           9.5359   -4.7818   31.0117 C.3     1  UNL1        0.0721
     29 C           9.5143   -3.5990   31.9339 C.3     1  UNL1        0.0174
     30 C           8.2058   -2.9880   32.3396 C.3     1  UNL1        0.0031
     31 C           6.9189   -3.5598   31.8230 C.3     1  UNL1        0.0204
     32 C           6.9405   -4.7426   30.9007 C.3     1  UNL1        0.0724
     33 C           5.6103   -2.9489   32.2286 C.3     1  UNL1        0.0277
     34 C           5.5644   -1.5326   32.7207 C.ar    1  UNL1       -0.0220
     35 C           5.8454   -0.4012   31.7767 C.ar    1  UNL1       -0.0020
     36 C           5.7995    1.0151   32.2688 C.ar    1  UNL1        0.0293
     37 C           5.4725    1.2999   33.7048 C.ar    1  UNL1        0.1401
     38 F           5.4266    2.7162   34.1968 F       1  UNL1       -0.2042
     39 C           5.1915    0.1685   34.6486 C.ar    1  UNL1        0.0293
     40 C           5.2375   -1.2477   34.1566 C.ar    1  UNL1       -0.0020
@<TRIPOS>BOND
     1    19    20    1
     2    20    21    2
     3    20    13    1
     4    13    14   ar
     5    14    15   ar
     6    15     7    1
     7     7     8   am
     8     8     9    2
     9     8    10   am
    10     1    10    1
    11     1     2    1
    12     2     3    1
    13     3    22    1
    14    22    23    1
    15    23    24    1
    16     3     4    1
    17     4     5    1
    18     5     6    1
    19     6    26    1
    20    26    27    1
    21    27    28    1
    22    28    29    1
    23    29    30    1
    24    30    31    1
    25    31    33    1
    26    33    34    1
    27    34    35   ar
    28    35    36   ar
    29    36    37   ar
    30    37    38    1
    31    37    39   ar
    32    39    40   ar
    33    31    32    1
    34    15    16   ar
    35    16    17   ar
    36    17    18    1
    37    17    13   ar
    38     6     1    1
    39    32    27    1
    40    40    34   ar
    41     7    11    1
    42    10    12    1
    43    24    25    1
@<TRIPOS>MOLECULE
*****
 40 43 0 0 0
SMALL
GASTEIGER

@<TRIPOS>ATOM
      1 C           6.8157   -3.4373   26.6297 C.3     1  UNL1        0.0903
      2 C           7.2388   -4.8763   26.6432 C.3     1  UNL1        0.0920
      3 N           8.3507   -5.3227   27.5455 N.3     1  UNL1       -0.2692
      4 C           9.0397   -4.3300   28.4343 C.3     1  UNL1        0.0723
      5 C           8.6166   -2.8910   28.4209 C.3     1  UNL1        0.0204
      6 C           7.5046   -2.4447   27.5186 C.3     1  UNL1        0.0368
      7 N           4.6764   -2.7970   23.3489 N.am    1  UNL1       -0.2485
      8 C           5.7884   -3.2433   24.2512 C.2     1  UNL1        0.3059
      9 O           6.9852   -3.9422   23.6774 O.2     1  UNL1       -0.2524
     10 N           5.7036   -2.9909   25.7274 N.am    1  UNL1       -0.2889
     11 H           3.8910   -2.3383   23.7255 H       1  UNL1        0.1583
     12 H           4.9181   -2.5322   26.1040 H       1  UNL1        0.1510
     13 C           5.0612   -2.7162   19.4874 C.ar    1  UNL1        0.0803
     14 S           5.0854   -2.0301   20.8211 S.2     1  UNL1       -0.0488
     15 C           4.7612   -3.0494   21.8727 C.ar    1  UNL1        0.1664
     16 N           4.5367   -4.3655   21.1890 N.ar    1  UNL1       -0.2282
     17 C           4.7221   -4.1596   19.7148 C.ar    1  UNL1        0.0701
     18 C           4.5914   -5.2123   18.6542 C.3     1  UNL1        0.0528
     19 C           4.3102   -1.1540   17.5522 C.3     1  UNL1        0.0779
     20 C           5.3292   -2.0721   18.1596 C.2     1  UNL1        0.1807
     21 O           6.6159   -2.3460   17.4391 O.2     1  UNL1       -0.2908
     22 C           8.7739   -6.7618   27.5589 C.3     1  UNL1        0.1043
     23 C           8.2428   -7.7093   26.5245 C.3     1  UNL1        0.1544
     24 O           6.9191   -8.3831   26.7337 O.3     1  UNL1       -0.3805
     25 H           6.9795   -8.9865   27.4908 H       1  UNL1        0.2105
     26 C           7.0815   -1.0056   27.5051 C.3     1  UNL1        0.0738
     27 N           6.2118   -0.4693   28.6033 N.3     1  UNL1       -0.2726
     28 C           6.7979    0.4257   29.6548 C.3     1  UNL1        0.0721
     29 C           5.9283    0.9620   30.7529 C.3     1  UNL1        0.0174
     30 C           4.4724    0.6034   30.7996 C.3     1  UNL1        0.0031
     31 C           3.8864   -0.2915   29.7482 C.3     1  UNL1        0.0204
     32 C           4.7561   -0.8278   28.6500 C.3     1  UNL1        0.0724
     33 C           2.4306   -0.6501   29.7948 C.3     1  UNL1        0.0277
     34 C           1.4253    0.2005   29.0767 C.ar    1  UNL1       -0.0220
     35 C           1.8345    1.5271   28.5086 C.ar    1  UNL1       -0.0020
     36 C           0.8292    2.3777   27.7904 C.ar    1  UNL1        0.0293
     37 C          -0.5854    1.9017   27.6404 C.ar    1  UNL1        0.1401
     38 F          -1.5908    2.7523   26.9222 F       1  UNL1       -0.2042
     39 C          -0.9946    0.5751   28.2085 C.ar    1  UNL1        0.0293
     40 C           0.0107   -0.2755   28.9266 C.ar    1  UNL1       -0.0020
@<TRIPOS>BOND
     1    19    20    1
     2    20    21    2
     3    20    13    1
     4    13    14   ar
     5    14    15   ar
     6    15     7    1
     7     7     8   am
     8     8     9    2
     9     8    10   am
    10     1    10    1
    11     1     2    1
    12     2     3    1
    13     3    22    1
    14    22    23    1
    15    23    24    1
    16     3     4    1
    17     4     5    1
    18     5     6    1
    19     6    26    1
    20    26    27    1
    21    27    28    1
    22    28    29    1
    23    29    30    1
    24    30    31    1
    25    31    33    1
    26    33    34    1
    27    34    35   ar
    28    35    36   ar
    29    36    37   ar
    30    37    38    1
    31    37    39   ar
    32    39    40   ar
    33    31    32    1
    34    15    16   ar
    35    16    17   ar
    36    17    18    1
    37    17    13   ar
    38     6     1    1
    39    32    27    1
    40    40    34   ar
    41     7    11    1
    42    10    12    1
    43    24    25    1
@<TRIPOS>MOLECULE
*****
 40 43 0 0 0
SMALL
GASTEIGER

@<TRIPOS>ATOM
      1 C           0.4982    1.8403   23.0656 C.3     1  UNL1        0.0903
      2 C           0.5809    1.1888   24.4142 C.3     1  UNL1        0.0920
      3 N           0.6383    2.0331   25.6527 N.3     1  UNL1       -0.2692
      4 C           0.6131    3.5288   25.5426 C.3     1  UNL1        0.0723
      5 C           0.5305    4.1803   24.1940 C.3     1  UNL1        0.0204
      6 C           0.4731    3.3361   22.9555 C.3     1  UNL1        0.0368
      7 N           1.6093   -0.5730   20.1175 N.am    1  UNL1       -0.2485
      8 C           1.6666    0.2712   21.3560 C.2     1  UNL1        0.3059
      9 O           2.9499    0.3907   22.1235 O.2     1  UNL1       -0.2524
     10 N           0.4408    0.9960   21.8270 N.am    1  UNL1       -0.2889
     11 H           0.7670   -0.6514   19.6138 H       1  UNL1        0.1583
     12 H          -0.4015    0.9177   21.3234 H       1  UNL1        0.1510
     13 C           5.0621   -1.7567   18.7976 C.ar    1  UNL1        0.0803
     14 S           4.1068   -0.6615   19.1690 S.2     1  UNL1       -0.0488
     15 C           2.8351   -1.2979   19.6464 C.ar    1  UNL1        0.1664
     16 N           3.0045   -2.7863   19.5700 N.ar    1  UNL1       -0.2282
     17 C           4.3809   -3.0699   19.0454 C.ar    1  UNL1        0.0701
     18 C           4.9722   -4.4282   18.8099 C.3     1  UNL1        0.0528
     19 C           7.6261   -2.0927   19.0485 C.3     1  UNL1        0.0779
     20 C           6.4543   -1.5712   18.2708 C.2     1  UNL1        0.1807
     21 O           6.6746   -0.8641   16.9664 O.2     1  UNL1       -0.2908
     22 C           0.7210    1.3816   27.0013 C.3     1  UNL1        0.1043
     23 C          -0.5334    0.9707   27.7138 C.3     1  UNL1        0.1544
     24 O          -0.7416   -0.4641   28.0987 O.3     1  UNL1       -0.3805
     25 H          -0.8253   -1.0048   27.2977 H       1  UNL1        0.2105
     26 C           0.3904    3.9875   21.6068 C.3     1  UNL1        0.0738
     27 N          -0.8943    3.9504   20.8335 N.3     1  UNL1       -0.2726
     28 C          -0.9289    4.4319   19.4132 C.3     1  UNL1        0.0721
     29 C          -2.2137    4.3947   18.6398 C.3     1  UNL1        0.0174
     30 C          -3.4638    3.8761   19.2868 C.3     1  UNL1        0.0031
     31 C          -3.4291    3.3947   20.7069 C.3     1  UNL1        0.0204
     32 C          -2.1444    3.4318   21.4803 C.3     1  UNL1        0.0724
     33 C          -4.6792    2.8761   21.3538 C.3     1  UNL1        0.0277
     34 C          -5.2272    3.5519   22.5757 C.ar    1  UNL1       -0.0220
     35 C          -6.3178    4.5731   22.4425 C.ar    1  UNL1       -0.0020
     36 C          -6.8658    5.2489   23.6644 C.ar    1  UNL1        0.0293
     37 C          -6.3231    4.9035   25.0195 C.ar    1  UNL1        0.1401
     38 F          -6.8710    5.5793   26.2414 F       1  UNL1       -0.2042
     39 C          -5.2325    3.8824   25.1527 C.ar    1  UNL1        0.0293
     40 C          -4.6845    3.2066   23.9308 C.ar    1  UNL1       -0.0020
@<TRIPOS>BOND
     1    19    20    1
     2    20    21    2
     3    20    13    1
     4    13    14   ar
     5    14    15   ar
     6    15     7    1
     7     7     8   am
     8     8     9    2
     9     8    10   am
    10     1    10    1
    11     1     2    1
    12     2     3    1
    13     3    22    1
    14    22    23    1
    15    23    24    1
    16     3     4    1
    17     4     5    1
    18     5     6    1
    19     6    26    1
    20    26    27    1
    21    27    28    1
    22    28    29    1
    23    29    30    1
    24    30    31    1
    25    31    33    1
    26    33    34    1
    27    34    35   ar
    28    35    36   ar
    29    36    37   ar
    30    37    38    1
    31    37    39   ar
    32    39    40   ar
    33    31    32    1
    34    15    16   ar
    35    16    17   ar
    36    17    18    1
    37    17    13   ar
    38     6     1    1
    39    32    27    1
    40    40    34   ar
    41     7    11    1
    42    10    12    1
    43    24    25    1
