@<TRIPOS>MOLECULE
*****
 30 33 0 0 0
SMALL
GASTEIGER

@<TRIPOS>ATOM
      1 C           6.9949   -4.2821   24.3140 C.2     1  UNL1        0.2651
      2 O           8.4802   -4.2050   24.1200 O.2     1  UNL1       -0.2684
      3 N           6.4329   -4.8342   25.5905 N.am    1  UNL1       -0.2996
      4 H           5.4580   -4.8848   25.7179 H       1  UNL1        0.1498
      5 C           4.9477   -3.5761   21.0929 C.ar    1  UNL1        0.1239
      6 N           6.0097   -4.3371   21.8298 N.ar    1  UNL1       -0.2260
      7 C           6.0714   -3.8070   23.2316 C.ar    1  UNL1        0.1517
      8 C           5.0476   -2.7184   23.3611 C.ar    1  UNL1        0.0872
      9 C           4.6580   -1.8387   24.5119 C.ar    1  UNL1        0.0193
     10 C           3.5739   -0.8163   24.3408 C.ar    1  UNL1        0.0031
     11 C           2.8794   -0.6735   23.0190 C.ar    1  UNL1        0.0191
     12 C           3.2689   -1.5532   21.8682 C.ar    1  UNL1        0.0811
     13 N           4.3530   -2.5757   22.0393 N.ar    1  UNL1       -0.2921
     14 C           5.3095   -3.0903   18.5663 C.3     1  UNL1        0.0079
     15 C           4.5500   -3.7797   19.6610 C.3     1  UNL1        0.0573
     16 C           3.3930   -4.6726   19.3235 C.3     1  UNL1        0.0079
     17 C           7.3563   -5.3093   26.6729 C.3     1  UNL1        0.0898
     18 C           7.1132   -4.9054   28.0969 C.3     1  UNL1        0.0224
     19 C           7.2145   -5.9241   29.1932 C.3     1  UNL1        0.0191
     20 C           6.9714   -5.5200   30.6172 C.3     1  UNL1        0.0721
     21 N           6.6270   -4.0973   30.9448 N.3     1  UNL1       -0.2727
     22 C           6.5257   -3.0786   29.8485 C.3     1  UNL1        0.0721
     23 C           6.7689   -3.4827   28.4244 C.3     1  UNL1        0.0191
     24 C           6.3839   -3.6934   32.3688 C.3     1  UNL1        0.0722
     25 C           5.8859   -2.3137   32.6825 C.3     1  UNL1        0.0210
     26 C           6.8612   -1.2152   32.9859 C.3     1  UNL1        0.0335
     27 C           6.3633    0.1645   33.2996 C.3     1  UNL1        0.1422
     28 O           4.8899    0.4457   33.3099 O.3     1  UNL1       -0.3538
     29 C           3.9145   -0.6528   33.0064 C.3     1  UNL1        0.1422
     30 C           4.4125   -2.0325   32.6927 C.3     1  UNL1        0.0335
@<TRIPOS>BOND
     1    14    15    1
     2    15    16    1
     3    15     5    1
     4     5     6   ar
     5     6     7   ar
     6     7     1    1
     7     1     2    2
     8     1     3   am
     9     3    17    1
    10    17    18    1
    11    18    19    1
    12    19    20    1
    13    20    21    1
    14    21    24    1
    15    24    25    1
    16    25    26    1
    17    26    27    1
    18    27    28    1
    19    28    29    1
    20    29    30    1
    21    21    22    1
    22    22    23    1
    23     7     8   ar
    24     8     9   ar
    25     9    10   ar
    26    10    11   ar
    27    11    12   ar
    28    12    13   ar
    29    13     5   ar
    30    23    18    1
    31    13     8   ar
    32    30    25    1
    33     3     4    1
@<TRIPOS>MOLECULE
*****
 30 33 0 0 0
SMALL
GASTEIGER

@<TRIPOS>ATOM
      1 C         -13.7487   -3.2615   19.8234 C.2     1  UNL1        0.2651
      2 O         -13.6941   -3.1412   21.3175 O.2     1  UNL1       -0.2684
      3 N         -14.8867   -2.6478   19.0627 N.am    1  UNL1       -0.2996
      4 H         -14.9226   -2.7268   18.0820 H       1  UNL1        0.1498
      5 C         -11.2060   -5.7637   18.2942 C.ar    1  UNL1        0.1239
      6 N         -12.3644   -5.4608   19.1977 N.ar    1  UNL1       -0.2260
      7 C         -12.6654   -3.9953   19.0899 C.ar    1  UNL1        0.1517
      8 C         -11.6930   -3.3924   18.1199 C.ar    1  UNL1        0.0872
      9 C         -11.5124   -1.9895   17.6209 C.ar    1  UNL1        0.0193
     10 C         -10.4298   -1.6795   16.6301 C.ar    1  UNL1        0.0031
     11 C          -9.5277   -2.7724   16.1383 C.ar    1  UNL1        0.0191
     12 C          -9.7084   -4.1753   16.6373 C.ar    1  UNL1        0.0811
     13 N         -10.7910   -4.4854   17.6281 N.ar    1  UNL1       -0.2921
     14 C          -9.4295   -7.5379   18.9625 C.3     1  UNL1        0.0079
     15 C         -10.5735   -7.1088   18.0923 C.3     1  UNL1        0.0573
     16 C         -11.0849   -8.0247   17.0202 C.3     1  UNL1        0.0079
     17 C         -15.9699   -1.9140   19.7962 C.3     1  UNL1        0.0898
     18 C         -16.0163   -0.4151   19.7618 C.3     1  UNL1        0.0224
     19 C         -14.9967    0.3488   18.9701 C.3     1  UNL1        0.0191
     20 C         -15.0430    1.8477   18.9358 C.3     1  UNL1        0.0721
     21 N         -16.1090    2.5827   19.6931 N.3     1  UNL1       -0.2727
     22 C         -17.1286    1.8188   20.4848 C.3     1  UNL1        0.0721
     23 C         -17.0822    0.3198   20.5192 C.3     1  UNL1        0.0191
     24 C         -16.1553    4.0816   19.6587 C.3     1  UNL1        0.0722
     25 C         -15.2293    4.8807   20.5268 C.3     1  UNL1        0.0210
     26 C         -14.5448    6.0957   19.9741 C.3     1  UNL1        0.0335
     27 C         -13.6187    6.8949   20.8422 C.3     1  UNL1        0.1422
     28 O         -13.3771    6.4791   22.2631 O.3     1  UNL1       -0.3538
     29 C         -14.0616    5.2641   22.8158 C.3     1  UNL1        0.1422
     30 C         -14.9876    4.4650   21.9476 C.3     1  UNL1        0.0335
@<TRIPOS>BOND
     1    14    15    1
     2    15    16    1
     3    15     5    1
     4     5     6   ar
     5     6     7   ar
     6     7     1    1
     7     1     2    2
     8     1     3   am
     9     3    17    1
    10    17    18    1
    11    18    19    1
    12    19    20    1
    13    20    21    1
    14    21    24    1
    15    24    25    1
    16    25    26    1
    17    26    27    1
    18    27    28    1
    19    28    29    1
    20    29    30    1
    21    21    22    1
    22    22    23    1
    23     7     8   ar
    24     8     9   ar
    25     9    10   ar
    26    10    11   ar
    27    11    12   ar
    28    12    13   ar
    29    13     5   ar
    30    23    18    1
    31    13     8   ar
    32    30    25    1
    33     3     4    1
@<TRIPOS>MOLECULE
*****
 30 33 0 0 0
SMALL
GASTEIGER

@<TRIPOS>ATOM
      1 C          -2.3256    3.7904   21.0131 C.2     1  UNL1        0.2651
      2 O          -2.6135    4.7803   19.9236 O.2     1  UNL1       -0.2684
      3 N          -1.3060    2.7117   20.7962 N.am    1  UNL1       -0.2996
      4 H          -1.1170    2.0619   21.5112 H       1  UNL1        0.1498
      5 C          -3.5387    3.9093   24.6981 C.ar    1  UNL1        0.1239
      6 N          -2.4443    3.7597   23.6833 N.ar    1  UNL1       -0.2260
      7 C          -3.0574    3.8789   22.3195 C.ar    1  UNL1        0.1517
      8 C          -4.5307    4.1022   22.4915 C.ar    1  UNL1        0.0872
      9 C          -5.6398    4.2908   21.4994 C.ar    1  UNL1        0.0193
     10 C          -7.0463    4.4982   21.9774 C.ar    1  UNL1        0.0031
     11 C          -7.3438    4.5170   23.4475 C.ar    1  UNL1        0.0191
     12 C          -6.2347    4.3284   24.4396 C.ar    1  UNL1        0.0811
     13 N          -4.8281    4.1210   23.9616 N.ar    1  UNL1       -0.2921
     14 C          -4.4116    4.4687   27.0805 C.3     1  UNL1        0.0079
     15 C          -3.3728    3.8566   26.1880 C.3     1  UNL1        0.0573
     16 C          -2.1683    3.1918   26.7855 C.3     1  UNL1        0.0079
     17 C          -0.5743    2.6232   19.4897 C.3     1  UNL1        0.0898
     18 C           0.5774    1.6742   19.3380 C.3     1  UNL1        0.0224
     19 C           1.7654    2.0628   18.5088 C.3     1  UNL1        0.0191
     20 C           2.9170    1.1137   18.3572 C.3     1  UNL1        0.0721
     21 N           2.8807   -0.2241   19.0348 N.3     1  UNL1       -0.2727
     22 C           1.6927   -0.6127   19.8640 C.3     1  UNL1        0.0721
     23 C           0.5410    0.3364   20.0156 C.3     1  UNL1        0.0191
     24 C           4.0323   -1.1731   18.8831 C.3     1  UNL1        0.0722
     25 C           4.0393   -2.4705   19.6359 C.3     1  UNL1        0.0210
     26 C           3.5745   -3.7292   18.9654 C.3     1  UNL1        0.0335
     27 C           3.5814   -5.0265   19.7181 C.3     1  UNL1        0.1422
     28 O           4.0532   -5.0652   21.1416 O.3     1  UNL1       -0.3538
     29 C           4.5180   -3.8065   21.8121 C.3     1  UNL1        0.1422
     30 C           4.5110   -2.5091   21.0593 C.3     1  UNL1        0.0335
@<TRIPOS>BOND
     1    14    15    1
     2    15    16    1
     3    15     5    1
     4     5     6   ar
     5     6     7   ar
     6     7     1    1
     7     1     2    2
     8     1     3   am
     9     3    17    1
    10    17    18    1
    11    18    19    1
    12    19    20    1
    13    20    21    1
    14    21    24    1
    15    24    25    1
    16    25    26    1
    17    26    27    1
    18    27    28    1
    19    28    29    1
    20    29    30    1
    21    21    22    1
    22    22    23    1
    23     7     8   ar
    24     8     9   ar
    25     9    10   ar
    26    10    11   ar
    27    11    12   ar
    28    12    13   ar
    29    13     5   ar
    30    23    18    1
    31    13     8   ar
    32    30    25    1
    33     3     4    1
@<TRIPOS>MOLECULE
*****
 30 33 0 0 0
SMALL
GASTEIGER

@<TRIPOS>ATOM
      1 C           5.8066   -2.0452   26.8074 C.2     1  UNL1        0.2651
      2 O           6.7014   -1.0516   26.1277 O.2     1  UNL1       -0.2684
      3 N           4.3205   -1.9692   26.6171 N.am    1  UNL1       -0.2996
      4 H           3.7332   -2.6213   27.0632 H       1  UNL1        0.1498
      5 C           7.2236   -4.3184   29.6162 C.ar    1  UNL1        0.1239
      6 N           6.6099   -3.0280   29.1597 N.ar    1  UNL1       -0.2260
      7 C           6.3975   -3.1147   27.6774 C.ar    1  UNL1        0.1517
      8 C           6.8799   -4.4586   27.2177 C.ar    1  UNL1        0.0872
      9 C           6.9202   -5.1010   25.8629 C.ar    1  UNL1        0.0193
     10 C           7.4710   -6.4873   25.7063 C.ar    1  UNL1        0.0031
     11 C           7.9815   -7.2313   26.9046 C.ar    1  UNL1        0.0191
     12 C           7.9412   -6.5889   28.2594 C.ar    1  UNL1        0.0811
     13 N           7.3904   -5.2025   28.4160 N.ar    1  UNL1       -0.2921
     14 C           8.6766   -3.8839   31.7258 C.3     1  UNL1        0.0079
     15 C           7.6036   -4.6640   31.0255 C.3     1  UNL1        0.0573
     16 C           6.9109   -5.7897   31.7346 C.3     1  UNL1        0.0079
     17 C           3.7295   -0.8997   25.7471 C.3     1  UNL1        0.0898
     18 C           3.5852   -1.1279   24.2716 C.3     1  UNL1        0.0224
     19 C           4.2972   -2.2742   23.6168 C.3     1  UNL1        0.0191
     20 C           4.1528   -2.5024   22.1413 C.3     1  UNL1        0.0721
     21 N           3.2964   -1.5842   21.3206 N.3     1  UNL1       -0.2727
     22 C           2.5843   -0.4379   21.9754 C.3     1  UNL1        0.0721
     23 C           2.7287   -0.2097   23.4510 C.3     1  UNL1        0.0191
     24 C           3.1520   -1.8125   19.8451 C.3     1  UNL1        0.0722
     25 C           4.3194   -1.5796   18.9324 C.3     1  UNL1        0.0210
     26 C           4.4371   -0.2872   18.1801 C.3     1  UNL1        0.0335
     27 C           5.6044   -0.0543   17.2674 C.3     1  UNL1        0.1422
     28 O           6.6540   -1.1139   17.1069 O.3     1  UNL1       -0.3538
     29 C           6.5363   -2.4063   17.8592 C.3     1  UNL1        0.1422
     30 C           5.3689   -2.6391   18.7719 C.3     1  UNL1        0.0335
@<TRIPOS>BOND
     1    14    15    1
     2    15    16    1
     3    15     5    1
     4     5     6   ar
     5     6     7   ar
     6     7     1    1
     7     1     2    2
     8     1     3   am
     9     3    17    1
    10    17    18    1
    11    18    19    1
    12    19    20    1
    13    20    21    1
    14    21    24    1
    15    24    25    1
    16    25    26    1
    17    26    27    1
    18    27    28    1
    19    28    29    1
    20    29    30    1
    21    21    22    1
    22    22    23    1
    23     7     8   ar
    24     8     9   ar
    25     9    10   ar
    26    10    11   ar
    27    11    12   ar
    28    12    13   ar
    29    13     5   ar
    30    23    18    1
    31    13     8   ar
    32    30    25    1
    33     3     4    1
@<TRIPOS>MOLECULE
*****
 30 33 0 0 0
SMALL
GASTEIGER

@<TRIPOS>ATOM
      1 C          -0.7202    3.4569   22.1127 C.2     1  UNL1        0.2651
      2 O           0.5966    4.1458   21.9093 O.2     1  UNL1       -0.2684
      3 N          -1.3545    2.7026   20.9818 N.am    1  UNL1       -0.2996
      4 H          -2.2188    2.2504   21.1153 H       1  UNL1        0.1498
      5 C          -2.9611    4.0960   25.2167 C.ar    1  UNL1        0.1239
      6 N          -2.6261    4.3265   23.7729 N.ar    1  UNL1       -0.2260
      7 C          -1.4027    3.5222   23.4468 C.ar    1  UNL1        0.1517
      8 C          -0.9815    2.7946   24.6891 C.ar    1  UNL1        0.0872
      9 C           0.1545    1.8550   24.9656 C.ar    1  UNL1        0.0193
     10 C           0.3274    1.2700   26.3359 C.ar    1  UNL1        0.0031
     11 C          -0.6358    1.6247   27.4298 C.ar    1  UNL1        0.0191
     12 C          -1.7718    2.5643   27.1533 C.ar    1  UNL1        0.0811
     13 N          -1.9447    3.1493   25.7830 N.ar    1  UNL1       -0.2921
     14 C          -5.5168    4.4701   25.4969 C.3     1  UNL1        0.0079
     15 C          -4.1106    4.7053   25.9632 C.3     1  UNL1        0.0573
     16 C          -3.8541    5.5498   27.1760 C.3     1  UNL1        0.0079
     17 C          -0.6720    2.6372   19.6477 C.3     1  UNL1        0.0898
     18 C           0.4768    1.6958   19.4383 C.3     1  UNL1        0.0224
     19 C           0.4750    0.3508   20.1023 C.3     1  UNL1        0.0191
     20 C           1.6238   -0.5905   19.8929 C.3     1  UNL1        0.0721
     21 N           2.7747   -0.1870   19.0195 N.3     1  UNL1       -0.2727
     22 C           2.7765    1.1581   18.3555 C.3     1  UNL1        0.0721
     23 C           1.6276    2.0995   18.5649 C.3     1  UNL1        0.0191
     24 C           3.9235   -1.1284   18.8102 C.3     1  UNL1        0.0722
     25 C           3.9837   -2.4193   19.5716 C.3     1  UNL1        0.0210
     26 C           3.4947   -3.6877   18.9374 C.3     1  UNL1        0.0335
     27 C           3.5548   -4.9786   19.6988 C.3     1  UNL1        0.1422
     28 O           4.1041   -5.0012   21.0945 O.3     1  UNL1       -0.3538
     29 C           4.5931   -3.7329   21.7287 C.3     1  UNL1        0.1422
     30 C           4.5329   -2.4419   20.9673 C.3     1  UNL1        0.0335
@<TRIPOS>BOND
     1    14    15    1
     2    15    16    1
     3    15     5    1
     4     5     6   ar
     5     6     7   ar
     6     7     1    1
     7     1     2    2
     8     1     3   am
     9     3    17    1
    10    17    18    1
    11    18    19    1
    12    19    20    1
    13    20    21    1
    14    21    24    1
    15    24    25    1
    16    25    26    1
    17    26    27    1
    18    27    28    1
    19    28    29    1
    20    29    30    1
    21    21    22    1
    22    22    23    1
    23     7     8   ar
    24     8     9   ar
    25     9    10   ar
    26    10    11   ar
    27    11    12   ar
    28    12    13   ar
    29    13     5   ar
    30    23    18    1
    31    13     8   ar
    32    30    25    1
    33     3     4    1
@<TRIPOS>MOLECULE
*****
 30 33 0 0 0
SMALL
GASTEIGER

@<TRIPOS>ATOM
      1 C           3.9384   -0.5853   31.2315 C.2     1  UNL1        0.2651
      2 O           3.5845   -1.6721   32.2028 O.2     1  UNL1       -0.2684
      3 N           5.1865    0.2223   31.4317 N.am    1  UNL1       -0.2996
      4 H           5.4188    0.9356   30.7941 H       1  UNL1        0.1498
      5 C           1.0735    0.1357   28.7140 C.ar    1  UNL1        0.1239
      6 N           1.5563   -0.1224   30.1105 N.ar    1  UNL1       -0.2260
      7 C           3.0442   -0.3060   30.0600 C.ar    1  UNL1        0.1517
      8 C           3.4809   -0.1614   28.6323 C.ar    1  UNL1        0.0872
      9 C           4.8303   -0.2430   27.9823 C.ar    1  UNL1        0.0193
     10 C           4.9617   -0.0516   26.5004 C.ar    1  UNL1        0.0031
     11 C           3.7437    0.2215   25.6685 C.ar    1  UNL1        0.0191
     12 C           2.3944    0.3031   26.3185 C.ar    1  UNL1        0.0811
     13 N           2.2630    0.1117   27.8004 N.ar    1  UNL1       -0.2921
     14 C          -0.7029    1.5935   27.5017 C.3     1  UNL1        0.0079
     15 C          -0.3490    0.3758   28.3031 C.3     1  UNL1        0.0573
     16 C          -1.4176   -0.6016   28.6936 C.3     1  UNL1        0.0079
     17 C           6.0807   -0.0570   32.6032 C.3     1  UNL1        0.0898
     18 C           5.6628    0.3607   33.9819 C.3     1  UNL1        0.0224
     19 C           5.5848    1.8169   34.3331 C.3     1  UNL1        0.0191
     20 C           5.1669    2.2345   35.7118 C.3     1  UNL1        0.0721
     21 N           4.8270    1.1960   36.7395 N.3     1  UNL1       -0.2727
     22 C           4.9051   -0.2602   36.3883 C.3     1  UNL1        0.0721
     23 C           5.3230   -0.6779   35.0094 C.3     1  UNL1        0.0191
     24 C           4.4091    1.6137   38.1181 C.3     1  UNL1        0.0722
     25 C           2.9533    1.7610   38.4483 C.3     1  UNL1        0.0210
     26 C           2.1947    0.6036   39.0271 C.3     1  UNL1        0.0335
     27 C           0.7390    0.7509   39.3573 C.3     1  UNL1        0.1422
     28 O           0.0418    2.0556   39.1086 O.3     1  UNL1       -0.3538
     29 C           0.8005    3.2130   38.5298 C.3     1  UNL1        0.1422
     30 C           2.2562    3.0657   38.1997 C.3     1  UNL1        0.0335
@<TRIPOS>BOND
     1    14    15    1
     2    15    16    1
     3    15     5    1
     4     5     6   ar
     5     6     7   ar
     6     7     1    1
     7     1     2    2
     8     1     3   am
     9     3    17    1
    10    17    18    1
    11    18    19    1
    12    19    20    1
    13    20    21    1
    14    21    24    1
    15    24    25    1
    16    25    26    1
    17    26    27    1
    18    27    28    1
    19    28    29    1
    20    29    30    1
    21    21    22    1
    22    22    23    1
    23     7     8   ar
    24     8     9   ar
    25     9    10   ar
    26    10    11   ar
    27    11    12   ar
    28    12    13   ar
    29    13     5   ar
    30    23    18    1
    31    13     8   ar
    32    30    25    1
    33     3     4    1
@<TRIPOS>MOLECULE
*****
 30 33 0 0 0
SMALL
GASTEIGER

@<TRIPOS>ATOM
      1 C           1.8149    0.4141   20.0794 C.2     1  UNL1        0.2651
      2 O           0.4133   -0.0836   19.8852 O.2     1  UNL1       -0.2684
      3 N           2.0534    1.7753   20.6627 N.am    1  UNL1       -0.2996
      4 H           2.9733    2.1020   20.7902 H       1  UNL1        0.1498
      5 C           4.4711   -2.3506   19.4740 C.ar    1  UNL1        0.1239
      6 N           3.1812   -1.8834   20.0807 N.ar    1  UNL1       -0.2260
      7 C           2.9781   -0.4494   19.6902 C.ar    1  UNL1        0.1517
      8 C           4.1424   -0.0304   18.8423 C.ar    1  UNL1        0.0872
      9 C           4.4816    1.2692   18.1747 C.ar    1  UNL1        0.0193
     10 C           5.7435    1.3939   17.3734 C.ar    1  UNL1        0.0031
     11 C           6.6662    0.2188   17.2398 C.ar    1  UNL1        0.0191
     12 C           6.3270   -1.0809   17.9075 C.ar    1  UNL1        0.0811
     13 N           5.0651   -1.2055   18.7087 N.ar    1  UNL1       -0.2921
     14 C           6.1922   -3.9609   20.5673 C.3     1  UNL1        0.0079
     15 C           5.0630   -3.7223   19.6090 C.3     1  UNL1        0.0573
     16 C           4.5259   -4.8553   18.7859 C.3     1  UNL1        0.0079
     17 C           0.8902    2.6388   21.0519 C.3     1  UNL1        0.0898
     18 C           0.4041    2.6473   22.4709 C.3     1  UNL1        0.0224
     19 C          -0.3856    3.8138   22.9862 C.3     1  UNL1        0.0191
     20 C          -0.8716    3.8222   24.4053 C.3     1  UNL1        0.0721
     21 N          -0.5679    2.6641   25.3091 N.3     1  UNL1       -0.2727
     22 C           0.2219    1.4977   24.7937 C.3     1  UNL1        0.0721
     23 C           0.7079    1.4892   23.3745 C.3     1  UNL1        0.0191
     24 C          -1.0539    2.6726   26.7281 C.3     1  UNL1        0.0722
     25 C          -0.4126    1.7766   27.7459 C.3     1  UNL1        0.0210
     26 C          -1.0934    0.5064   28.1620 C.3     1  UNL1        0.0335
     27 C          -0.4522   -0.3896   29.1798 C.3     1  UNL1        0.1422
     28 O           0.8699   -0.0153   29.7816 O.3     1  UNL1       -0.3538
     29 C           1.5506    1.2549   29.3656 C.3     1  UNL1        0.1422
     30 C           0.9094    2.1509   28.3477 C.3     1  UNL1        0.0335
@<TRIPOS>BOND
     1    14    15    1
     2    15    16    1
     3    15     5    1
     4     5     6   ar
     5     6     7   ar
     6     7     1    1
     7     1     2    2
     8     1     3   am
     9     3    17    1
    10    17    18    1
    11    18    19    1
    12    19    20    1
    13    20    21    1
    14    21    24    1
    15    24    25    1
    16    25    26    1
    17    26    27    1
    18    27    28    1
    19    28    29    1
    20    29    30    1
    21    21    22    1
    22    22    23    1
    23     7     8   ar
    24     8     9   ar
    25     9    10   ar
    26    10    11   ar
    27    11    12   ar
    28    12    13   ar
    29    13     5   ar
    30    23    18    1
    31    13     8   ar
    32    30    25    1
    33     3     4    1
@<TRIPOS>MOLECULE
*****
 30 33 0 0 0
SMALL
GASTEIGER

@<TRIPOS>ATOM
      1 C          -1.0230    3.3035   22.0067 C.2     1  UNL1        0.2651
      2 O          -2.0392    2.8169   21.0166 O.2     1  UNL1       -0.2684
      3 N           0.2842    3.8615   21.5270 N.am    1  UNL1       -0.2996
      4 H           0.9512    4.1809   22.1769 H       1  UNL1        0.1498
      5 C          -1.0806    2.8322   25.8590 C.ar    1  UNL1        0.1239
      6 N          -0.3832    2.7204   24.5357 N.ar    1  UNL1       -0.2260
      7 C          -1.3139    3.2323   23.4766 C.ar    1  UNL1        0.1517
      8 C          -2.5865    3.6604   24.1452 C.ar    1  UNL1        0.0872
      9 C          -3.8580    4.2435   23.6036 C.ar    1  UNL1        0.0193
     10 C          -4.9853    4.5792   24.5344 C.ar    1  UNL1        0.0031
     11 C          -4.8411    4.3319   26.0068 C.ar    1  UNL1        0.0191
     12 C          -3.5696    3.7489   26.5485 C.ar    1  UNL1        0.0811
     13 N          -2.4424    3.4131   25.6177 N.ar    1  UNL1       -0.2921
     14 C           0.3383    3.3955   27.9613 C.3     1  UNL1        0.0079
     15 C          -0.5156    2.4331   27.1899 C.3     1  UNL1        0.0573
     16 C          -0.8043    1.0718   27.7496 C.3     1  UNL1        0.0079
     17 C           0.5750    3.9327   20.0572 C.3     1  UNL1        0.0898
     18 C           1.3253    2.8205   19.3864 C.3     1  UNL1        0.0224
     19 C           0.6235    1.5379   19.0510 C.3     1  UNL1        0.0191
     20 C           1.3739    0.4257   18.3802 C.3     1  UNL1        0.0721
     21 N           2.8260    0.5960   18.0448 N.3     1  UNL1       -0.2727
     22 C           3.5277    1.8786   18.3802 C.3     1  UNL1        0.0721
     23 C           2.7773    2.9909   19.0511 C.3     1  UNL1        0.0191
     24 C           3.5762   -0.5163   17.3741 C.3     1  UNL1        0.0722
     25 C           4.3765   -1.4832   18.1953 C.3     1  UNL1        0.0210
     26 C           3.6851   -2.3954   19.1649 C.3     1  UNL1        0.0335
     27 C           4.4853   -3.3624   19.9861 C.3     1  UNL1        0.1422
     28 O           5.9770   -3.4172   19.8378 O.3     1  UNL1       -0.3538
     29 C           6.6684   -2.5051   18.8682 C.3     1  UNL1        0.1422
     30 C           5.8681   -1.5381   18.0470 C.3     1  UNL1        0.0335
@<TRIPOS>BOND
     1    14    15    1
     2    15    16    1
     3    15     5    1
     4     5     6   ar
     5     6     7   ar
     6     7     1    1
     7     1     2    2
     8     1     3   am
     9     3    17    1
    10    17    18    1
    11    18    19    1
    12    19    20    1
    13    20    21    1
    14    21    24    1
    15    24    25    1
    16    25    26    1
    17    26    27    1
    18    27    28    1
    19    28    29    1
    20    29    30    1
    21    21    22    1
    22    22    23    1
    23     7     8   ar
    24     8     9   ar
    25     9    10   ar
    26    10    11   ar
    27    11    12   ar
    28    12    13   ar
    29    13     5   ar
    30    23    18    1
    31    13     8   ar
    32    30    25    1
    33     3     4    1
@<TRIPOS>MOLECULE
*****
 30 33 0 0 0
SMALL
GASTEIGER

@<TRIPOS>ATOM
      1 C           1.8966    0.8316   19.4882 C.2     1  UNL1        0.2651
      2 O           0.6577    0.1976   18.9289 O.2     1  UNL1       -0.2684
      3 N           1.7839    1.9615   20.4684 N.am    1  UNL1       -0.2996
      4 H           2.5971    2.3777   20.8356 H       1  UNL1        0.1498
      5 C           5.5204    0.2689   18.2166 C.ar    1  UNL1        0.1239
      6 N           4.3535    1.1706   18.4913 N.ar    1  UNL1       -0.2260
      7 C           3.2484    0.3359   19.0674 C.ar    1  UNL1        0.1517
      8 C           3.7322   -1.0816   19.1487 C.ar    1  UNL1        0.0872
      9 C           3.0755   -2.3400   19.6337 C.ar    1  UNL1        0.0193
     10 C           3.8231   -3.6398   19.5928 C.ar    1  UNL1        0.0031
     11 C           5.2273   -3.6812   19.0670 C.ar    1  UNL1        0.0191
     12 C           5.8840   -2.4228   18.5821 C.ar    1  UNL1        0.0811
     13 N           5.1364   -1.1230   18.6230 N.ar    1  UNL1       -0.2921
     14 C           6.9278    1.1100   16.2012 C.3     1  UNL1        0.0079
     15 C           6.8397    0.6860   17.6374 C.3     1  UNL1        0.0573
     16 C           8.0708    0.6790   18.4941 C.3     1  UNL1        0.0079
     17 C           0.4322    2.4572   20.8893 C.3     1  UNL1        0.0898
     18 C           0.0823    2.5360   22.3457 C.3     1  UNL1        0.0224
     19 C          -0.8886    3.5722   22.8289 C.3     1  UNL1        0.0191
     20 C          -1.2384    3.6509   24.2854 C.3     1  UNL1        0.0721
     21 N          -0.6173    2.6934   25.2588 N.3     1  UNL1       -0.2727
     22 C           0.3536    1.6572   24.7756 C.3     1  UNL1        0.0721
     23 C           0.7035    1.5784   23.3190 C.3     1  UNL1        0.0191
     24 C          -0.9671    2.7721   26.7153 C.3     1  UNL1        0.0722
     25 C          -0.3835    1.7842   27.6814 C.3     1  UNL1        0.0210
     26 C          -1.1643    0.5636   28.0694 C.3     1  UNL1        0.0335
     27 C          -0.5807   -0.4243   29.0354 C.3     1  UNL1        0.1422
     28 O           0.7838   -0.1917   29.6135 O.3     1  UNL1       -0.3538
     29 C           1.5646    1.0289   29.2255 C.3     1  UNL1        0.1422
     30 C           0.9809    2.0169   28.2594 C.3     1  UNL1        0.0335
@<TRIPOS>BOND
     1    14    15    1
     2    15    16    1
     3    15     5    1
     4     5     6   ar
     5     6     7   ar
     6     7     1    1
     7     1     2    2
     8     1     3   am
     9     3    17    1
    10    17    18    1
    11    18    19    1
    12    19    20    1
    13    20    21    1
    14    21    24    1
    15    24    25    1
    16    25    26    1
    17    26    27    1
    18    27    28    1
    19    28    29    1
    20    29    30    1
    21    21    22    1
    22    22    23    1
    23     7     8   ar
    24     8     9   ar
    25     9    10   ar
    26    10    11   ar
    27    11    12   ar
    28    12    13   ar
    29    13     5   ar
    30    23    18    1
    31    13     8   ar
    32    30    25    1
    33     3     4    1
