@<TRIPOS>MOLECULE
*****
 17 19 0 0 0
SMALL
GASTEIGER

@<TRIPOS>ATOM
      1 C          -6.5979  -19.2609   21.9161 C.3     1  UNL1        0.0379
      2 C          -7.9862  -18.6930   21.9200 C.ar    1  UNL1        0.0055
      3 S          -9.1614  -19.2320   21.1595 S.2     1  UNL1       -0.0915
      4 C         -10.3447  -18.3585   21.4545 C.ar    1  UNL1        0.0289
      5 C         -11.7689  -18.4062   20.9865 C.ar    1  UNL1        0.0065
      6 C         -12.7493  -17.3750   21.4613 C.ar    1  UNL1        0.0005
      7 C         -12.3054  -16.2962   22.4042 C.ar    1  UNL1        0.0000
      8 C         -10.8811  -16.2485   22.8723 C.ar    1  UNL1        0.0003
      9 C          -9.9007  -17.2797   22.3974 C.ar    1  UNL1        0.0040
     10 C          -8.4432  -17.4865   22.6851 C.ar    1  UNL1        0.0022
     11 C          -7.5920  -16.6359   23.5807 C.3     1  UNL1        0.1175
     12 C          -8.0901  -16.2469   24.9410 C.2     1  UNL1        0.0182
     13 C          -7.2389  -15.3964   25.8365 C.2     1  UNL1        0.0978
     14 N          -5.8895  -14.9348   25.3718 N.2     1  UNL1       -0.2268
     15 C          -5.3913  -15.3237   24.0114 C.2     1  UNL1        0.1606
     16 N          -6.2425  -16.1743   23.1159 N.pl3   1  UNL1       -0.3104
     17 H          -5.9155  -16.4295   22.2230 H       1  UNL1        0.1488
@<TRIPOS>BOND
     1     1     2    1
     2     2     3   ar
     3     3     4   ar
     4     4     5   ar
     5     5     6   ar
     6     6     7   ar
     7     7     8   ar
     8     8     9   ar
     9     9    10   ar
    10    11    10    1
    11    11    12    1
    12    12    13    2
    13    13    14    1
    14    14    15    2
    15    15    16    1
    16    10     2   ar
    17    16    11    1
    18     9     4   ar
    19    16    17    1
@<TRIPOS>MOLECULE
*****
 17 19 0 0 0
SMALL
GASTEIGER

@<TRIPOS>ATOM
      1 C         -12.2584  -15.9656   22.6860 C.3     1  UNL1        0.0379
      2 C         -11.3320  -16.8766   21.9365 C.ar    1  UNL1        0.0055
      3 S         -11.6829  -17.6887   20.7252 S.2     1  UNL1       -0.0915
      4 C         -10.4598  -18.4495   20.3068 C.ar    1  UNL1        0.0289
      5 C         -10.2109  -19.4093   19.1813 C.ar    1  UNL1        0.0065
      6 C          -8.8551  -20.0273   19.0086 C.ar    1  UNL1        0.0005
      7 C          -7.7482  -19.6855   19.9614 C.ar    1  UNL1        0.0000
      8 C          -7.9970  -18.7256   21.0869 C.ar    1  UNL1        0.0003
      9 C          -9.3528  -18.1076   21.2595 C.ar    1  UNL1        0.0040
     10 C          -9.8919  -17.1355   22.2668 C.ar    1  UNL1        0.0022
     11 C          -9.1254  -16.5289   23.4045 C.3     1  UNL1        0.1175
     12 C          -9.3221  -17.0428   24.7999 C.2     1  UNL1        0.0182
     13 C          -8.5556  -16.4362   25.9376 C.2     1  UNL1        0.0978
     14 N          -7.5923  -15.3156   25.6800 N.2     1  UNL1       -0.2268
     15 C          -7.3955  -14.8017   24.2846 C.2     1  UNL1        0.1606
     16 N          -8.1620  -15.4083   23.1469 N.pl3   1  UNL1       -0.3104
     17 H          -8.0329  -15.0710   22.2310 H       1  UNL1        0.1488
@<TRIPOS>BOND
     1     1     2    1
     2     2     3   ar
     3     3     4   ar
     4     4     5   ar
     5     5     6   ar
     6     6     7   ar
     7     7     8   ar
     8     8     9   ar
     9     9    10   ar
    10    11    10    1
    11    11    12    1
    12    12    13    2
    13    13    14    1
    14    14    15    2
    15    15    16    1
    16    10     2   ar
    17    16    11    1
    18     9     4   ar
    19    16    17    1
@<TRIPOS>MOLECULE
*****
 17 19 0 0 0
SMALL
GASTEIGER

@<TRIPOS>ATOM
      1 C          -7.7844  -17.5620   21.5463 C.3     1  UNL1        0.0379
      2 C          -7.6477  -16.9634   22.9148 C.ar    1  UNL1        0.0055
      3 S          -6.3656  -16.5385   23.5673 S.2     1  UNL1       -0.0915
      4 C          -6.6945  -15.9970   24.9269 C.ar    1  UNL1        0.0289
      5 C          -5.8334  -15.4335   26.0181 C.ar    1  UNL1        0.0065
      6 C          -6.4577  -14.9602   27.2972 C.ar    1  UNL1        0.0005
      7 C          -7.9431  -15.0504   27.4851 C.ar    1  UNL1        0.0000
      8 C          -8.8043  -15.6139   26.3939 C.ar    1  UNL1        0.0003
      9 C          -8.1800  -16.0872   25.1148 C.ar    1  UNL1        0.0040
     10 C          -8.7690  -16.6844   23.8713 C.ar    1  UNL1        0.0022
     11 C         -10.2240  -16.9552   23.6271 C.3     1  UNL1        0.1175
     12 C         -10.8685  -18.1761   24.2134 C.2     1  UNL1        0.0182
     13 C         -12.3235  -18.4469   23.9692 C.2     1  UNL1        0.0978
     14 N         -13.1341  -17.4967   23.1386 N.2     1  UNL1       -0.2268
     15 C         -12.4897  -16.2757   22.5522 C.2     1  UNL1        0.1606
     16 N         -11.0347  -16.0049   22.7964 N.pl3   1  UNL1       -0.3104
     17 H         -10.6117  -15.2035   22.4115 H       1  UNL1        0.1488
@<TRIPOS>BOND
     1     1     2    1
     2     2     3   ar
     3     3     4   ar
     4     4     5   ar
     5     5     6   ar
     6     6     7   ar
     7     7     8   ar
     8     8     9   ar
     9     9    10   ar
    10    11    10    1
    11    11    12    1
    12    12    13    2
    13    13    14    1
    14    14    15    2
    15    15    16    1
    16    10     2   ar
    17    16    11    1
    18     9     4   ar
    19    16    17    1
@<TRIPOS>MOLECULE
*****
 17 19 0 0 0
SMALL
GASTEIGER

@<TRIPOS>ATOM
      1 C          -8.8818  -20.5159   18.4933 C.3     1  UNL1        0.0379
      2 C          -9.3844  -19.5837   19.5555 C.ar    1  UNL1        0.0055
      3 S         -10.8094  -19.1595   19.7539 S.2     1  UNL1       -0.0915
      4 C         -10.8560  -18.2256   20.9268 C.ar    1  UNL1        0.0289
      5 C         -11.9895  -17.4948   21.5835 C.ar    1  UNL1        0.0065
      6 C         -11.7266  -16.6110   22.7666 C.ar    1  UNL1        0.0005
      7 C         -10.3304  -16.4579   23.2930 C.ar    1  UNL1        0.0000
      8 C          -9.1970  -17.1887   22.6363 C.ar    1  UNL1        0.0003
      9 C          -9.4598  -18.0726   21.4533 C.ar    1  UNL1        0.0040
     10 C          -8.5503  -18.9119   20.6057 C.ar    1  UNL1        0.0022
     11 C          -7.0671  -19.0544   20.7782 C.3     1  UNL1        0.1175
     12 C          -6.5088  -19.5773   22.0684 C.2     1  UNL1        0.0182
     13 C          -5.0256  -19.7198   22.2408 C.2     1  UNL1        0.0978
     14 N          -4.1006  -19.3394   21.1230 N.2     1  UNL1       -0.2268
     15 C          -4.6588  -18.8165   19.8326 C.2     1  UNL1        0.1606
     16 N          -6.1420  -18.6740   19.6602 N.pl3   1  UNL1       -0.3104
     17 H          -6.5084  -18.3308   18.8133 H       1  UNL1        0.1488
@<TRIPOS>BOND
     1     1     2    1
     2     2     3   ar
     3     3     4   ar
     4     4     5   ar
     5     5     6   ar
     6     6     7   ar
     7     7     8   ar
     8     8     9   ar
     9     9    10   ar
    10    11    10    1
    11    11    12    1
    12    12    13    2
    13    13    14    1
    14    14    15    2
    15    15    16    1
    16    10     2   ar
    17    16    11    1
    18     9     4   ar
    19    16    17    1
@<TRIPOS>MOLECULE
*****
 17 19 0 0 0
SMALL
GASTEIGER

@<TRIPOS>ATOM
      1 C          -9.3667  -19.0338   20.4350 C.3     1  UNL1        0.0379
      2 C          -7.8943  -19.1616   20.6914 C.ar    1  UNL1        0.0055
      3 S          -6.9338  -20.0093   19.9112 S.2     1  UNL1       -0.0915
      4 C          -5.5698  -19.8358   20.5106 C.ar    1  UNL1        0.0289
      5 C          -4.2359  -20.4240   20.1573 C.ar    1  UNL1        0.0065
      6 C          -3.0196  -20.0571   20.9547 C.ar    1  UNL1        0.0005
      7 C          -3.1371  -19.1020   22.1054 C.ar    1  UNL1        0.0000
      8 C          -4.4709  -18.5139   22.4587 C.ar    1  UNL1        0.0003
      9 C          -5.6873  -18.8807   21.6613 C.ar    1  UNL1        0.0040
     10 C          -7.1239  -18.4641   21.7730 C.ar    1  UNL1        0.0022
     11 C          -7.6906  -17.5163   22.7882 C.3     1  UNL1        0.1175
     12 C          -8.8349  -17.9450   23.6579 C.2     1  UNL1        0.0182
     13 C          -9.4017  -16.9972   24.6731 C.2     1  UNL1        0.0978
     14 N          -8.8240  -15.6206   24.8185 N.2     1  UNL1       -0.2268
     15 C          -7.6796  -15.1917   23.9487 C.2     1  UNL1        0.1606
     16 N          -7.1129  -16.1395   22.9336 N.pl3   1  UNL1       -0.3104
     17 H          -6.3618  -15.8581   22.3627 H       1  UNL1        0.1488
@<TRIPOS>BOND
     1     1     2    1
     2     2     3   ar
     3     3     4   ar
     4     4     5   ar
     5     5     6   ar
     6     6     7   ar
     7     7     8   ar
     8     8     9   ar
     9     9    10   ar
    10    11    10    1
    11    11    12    1
    12    12    13    2
    13    13    14    1
    14    14    15    2
    15    15    16    1
    16    10     2   ar
    17    16    11    1
    18     9     4   ar
    19    16    17    1
@<TRIPOS>MOLECULE
*****
 17 19 0 0 0
SMALL
GASTEIGER

@<TRIPOS>ATOM
      1 C          -8.5663  -15.6103   24.1406 C.3     1  UNL1        0.0379
      2 C          -7.9375  -16.6763   23.2931 C.ar    1  UNL1        0.0055
      3 S          -6.5383  -17.1996   23.4289 S.2     1  UNL1       -0.0915
      4 C          -6.3335  -18.2529   22.3808 C.ar    1  UNL1        0.0289
      5 C          -5.1527  -19.1122   22.0387 C.ar    1  UNL1        0.0065
      6 C          -5.2444  -20.0992   20.9129 C.ar    1  UNL1        0.0005
      7 C          -6.5171  -20.2269   20.1293 C.ar    1  UNL1        0.0000
      8 C          -7.6980  -19.3676   20.4714 C.ar    1  UNL1        0.0003
      9 C          -7.6062  -18.3806   21.5971 C.ar    1  UNL1        0.0040
     10 C          -8.5975  -17.4062   22.1610 C.ar    1  UNL1        0.0022
     11 C         -10.0021  -17.1983   21.6776 C.3     1  UNL1        0.1175
     12 C         -11.1417  -17.8917   22.3633 C.2     1  UNL1        0.0182
     13 C         -12.5464  -17.6838   21.8799 C.2     1  UNL1        0.0978
     14 N         -12.8115  -16.7823   20.7107 N.2     1  UNL1       -0.2268
     15 C         -11.6719  -16.0888   20.0249 C.2     1  UNL1        0.1606
     16 N         -10.2672  -16.2967   20.5083 N.pl3   1  UNL1       -0.3104
     17 H          -9.5192  -15.8415   20.0582 H       1  UNL1        0.1488
@<TRIPOS>BOND
     1     1     2    1
     2     2     3   ar
     3     3     4   ar
     4     4     5   ar
     5     5     6   ar
     6     6     7   ar
     7     7     8   ar
     8     8     9   ar
     9     9    10   ar
    10    11    10    1
    11    11    12    1
    12    12    13    2
    13    13    14    1
    14    14    15    2
    15    15    16    1
    16    10     2   ar
    17    16    11    1
    18     9     4   ar
    19    16    17    1
@<TRIPOS>MOLECULE
*****
 17 19 0 0 0
SMALL
GASTEIGER

@<TRIPOS>ATOM
      1 C          -5.4335  -15.8332   24.5313 C.3     1  UNL1        0.0379
      2 C          -5.2304  -16.9516   23.5525 C.ar    1  UNL1        0.0055
      3 S          -3.9253  -17.6193   23.2350 S.2     1  UNL1       -0.0915
      4 C          -4.1851  -18.6790   22.2057 C.ar    1  UNL1        0.0289
      5 C          -3.2764  -19.6539   21.5174 C.ar    1  UNL1        0.0065
      6 C          -3.8333  -20.6160   20.5104 C.ar    1  UNL1        0.0005
      7 C          -5.2990  -20.6032   20.1916 C.ar    1  UNL1        0.0000
      8 C          -6.2077  -19.6283   20.8799 C.ar    1  UNL1        0.0003
      9 C          -5.6508  -18.6662   21.8869 C.ar    1  UNL1        0.0040
     10 C          -6.2968  -17.5986   22.7193 C.ar    1  UNL1        0.0022
     11 C          -7.7535  -17.2408   22.7186 C.3     1  UNL1        0.1175
     12 C          -8.6540  -17.7604   23.7997 C.2     1  UNL1        0.0182
     13 C         -10.1107  -17.4027   23.7990 C.2     1  UNL1        0.0978
     14 N         -10.6670  -16.5253   22.7171 N.2     1  UNL1       -0.2268
     15 C          -9.7665  -16.0056   21.6358 C.2     1  UNL1        0.1606
     16 N          -8.3098  -16.3633   21.6365 N.pl3   1  UNL1       -0.3104
     17 H          -7.7188  -16.0222   20.9269 H       1  UNL1        0.1488
@<TRIPOS>BOND
     1     1     2    1
     2     2     3   ar
     3     3     4   ar
     4     4     5   ar
     5     5     6   ar
     6     6     7   ar
     7     7     8   ar
     8     8     9   ar
     9     9    10   ar
    10    11    10    1
    11    11    12    1
    12    12    13    2
    13    13    14    1
    14    14    15    2
    15    15    16    1
    16    10     2   ar
    17    16    11    1
    18     9     4   ar
    19    16    17    1
@<TRIPOS>MOLECULE
*****
 17 19 0 0 0
SMALL
GASTEIGER

@<TRIPOS>ATOM
      1 C          -9.8718  -18.9140   25.4404 C.3     1  UNL1        0.0379
      2 C         -10.2543  -18.2215   24.1659 C.ar    1  UNL1        0.0055
      3 S         -11.4350  -18.5533   23.3023 S.2     1  UNL1       -0.0915
      4 C         -11.4337  -17.6125   22.1340 C.ar    1  UNL1        0.0289
      5 C         -12.3557  -17.4694   20.9596 C.ar    1  UNL1        0.0065
      6 C         -12.0962  -16.4131   19.9267 C.ar    1  UNL1        0.0005
      7 C         -10.9147  -15.4999   20.0683 C.ar    1  UNL1        0.0000
      8 C          -9.9927  -15.6430   21.2427 C.ar    1  UNL1        0.0003
      9 C         -10.2522  -16.6993   22.2756 C.ar    1  UNL1        0.0040
     10 C          -9.5233  -17.0757   23.5314 C.ar    1  UNL1        0.0022
     11 C          -8.2814  -16.4212   24.0598 C.3     1  UNL1        0.1175
     12 C          -8.2828  -15.8030   25.4265 C.2     1  UNL1        0.0182
     13 C          -7.0408  -15.1485   25.9549 C.2     1  UNL1        0.0978
     14 N          -5.7975  -15.1121   25.1166 N.2     1  UNL1       -0.2268
     15 C          -5.7960  -15.7302   23.7499 C.2     1  UNL1        0.1606
     16 N          -7.0379  -16.3847   23.2215 N.pl3   1  UNL1       -0.3104
     17 H          -7.0370  -16.7904   22.3245 H       1  UNL1        0.1488
@<TRIPOS>BOND
     1     1     2    1
     2     2     3   ar
     3     3     4   ar
     4     4     5   ar
     5     5     6   ar
     6     6     7   ar
     7     7     8   ar
     8     8     9   ar
     9     9    10   ar
    10    11    10    1
    11    11    12    1
    12    12    13    2
    13    13    14    1
    14    14    15    2
    15    15    16    1
    16    10     2   ar
    17    16    11    1
    18     9     4   ar
    19    16    17    1
@<TRIPOS>MOLECULE
*****
 17 19 0 0 0
SMALL
GASTEIGER

@<TRIPOS>ATOM
      1 C          -8.5750  -19.7971   20.6218 C.3     1  UNL1        0.0379
      2 C          -8.2935  -18.7310   21.6387 C.ar    1  UNL1        0.0055
      3 S          -9.3171  -17.9970   22.4532 S.2     1  UNL1       -0.0915
      4 C          -8.5951  -17.0240   23.3375 C.ar    1  UNL1        0.0289
      5 C          -9.0862  -16.0344   24.3521 C.ar    1  UNL1        0.0065
      6 C          -8.1074  -15.1775   25.0988 C.ar    1  UNL1        0.0005
      7 C          -6.6375  -15.3101   24.8309 C.ar    1  UNL1        0.0000
      8 C          -6.1464  -16.2997   23.8163 C.ar    1  UNL1        0.0003
      9 C          -7.1252  -17.1567   23.0696 C.ar    1  UNL1        0.0040
     10 C          -6.9388  -18.2116   22.0197 C.ar    1  UNL1        0.0022
     11 C          -5.6278  -18.6672   21.4507 C.3     1  UNL1        0.1175
     12 C          -4.5899  -19.2719   22.3489 C.2     1  UNL1        0.0182
     13 C          -3.2789  -19.7276   21.7799 C.2     1  UNL1        0.0978
     14 N          -3.0059  -19.5785   20.3125 N.2     1  UNL1       -0.2268
     15 C          -4.0438  -18.9737   19.4142 C.2     1  UNL1        0.1606
     16 N          -5.3548  -18.5181   19.9832 N.pl3   1  UNL1       -0.3104
     17 H          -6.0360  -18.1212   19.3936 H       1  UNL1        0.1488
@<TRIPOS>BOND
     1     1     2    1
     2     2     3   ar
     3     3     4   ar
     4     4     5   ar
     5     5     6   ar
     6     6     7   ar
     7     7     8   ar
     8     8     9   ar
     9     9    10   ar
    10    11    10    1
    11    11    12    1
    12    12    13    2
    13    13    14    1
    14    14    15    2
    15    15    16    1
    16    10     2   ar
    17    16    11    1
    18     9     4   ar
    19    16    17    1
