@<TRIPOS>MOLECULE
*****
 36 40 0 0 0
SMALL
GASTEIGER

@<TRIPOS>ATOM
      1 N         -10.6576  -16.8105   21.0851 N.3     1  UNL1       -0.2679
      2 C         -11.3477  -17.4738   22.2400 C.3     1  UNL1        0.0978
      3 C         -12.7112  -17.0139   22.6634 C.3     1  UNL1        0.0224
      4 C         -13.4013  -17.6771   23.8184 C.3     1  UNL1        0.0065
      5 C         -12.7279  -18.8003   24.5499 C.3     1  UNL1        0.0277
      6 C         -11.3644  -19.2602   24.1264 C.ar    1  UNL1       -0.0073
      7 C         -10.6910  -20.3833   24.8578 C.ar    1  UNL1       -0.0015
      8 C          -9.3275  -20.8432   24.4344 C.ar    1  UNL1        0.0203
      9 C          -8.6374  -20.1800   23.2795 C.ar    1  UNL1        0.0985
     10 N          -9.3108  -19.0568   22.5480 N.ar    1  UNL1       -0.2471
     11 C         -10.6743  -18.5969   22.9715 C.ar    1  UNL1        0.0695
     12 C          -9.8092  -15.5952   21.3158 C.3     1  UNL1        0.0886
     13 C          -6.3847  -15.5396   27.2757 C.ar    1  UNL1       -0.0003
     14 C          -7.8564  -15.6160   27.5557 C.ar    1  UNL1       -0.0003
     15 C          -8.8356  -15.6424   26.4197 C.ar    1  UNL1       -0.0045
     16 C          -8.3432  -15.5924   25.0037 C.ar    1  UNL1       -0.0234
     17 C          -6.8716  -15.5160   24.7238 C.ar    1  UNL1       -0.0103
     18 C          -5.8923  -15.4896   25.8597 C.ar    1  UNL1       -0.0032
     19 C          -6.3791  -15.4660   23.3077 C.3     1  UNL1        0.0953
     20 N          -7.3583  -15.4924   22.1718 N.3     1  UNL1       -0.2934
     21 C          -8.8300  -15.5688   22.4518 C.3     1  UNL1        0.0748
     22 C          -9.3224  -15.6188   23.8678 C.3     1  UNL1        0.0432
     23 H          -7.1247  -16.3044   21.6005 H       1  UNL1        0.1236
     24 C         -10.8159  -17.3626   19.6994 C.3     1  UNL1        0.0725
     25 C         -11.1478  -18.8121   19.5029 C.3     1  UNL1        0.0188
     26 C         -10.0493  -19.8317   19.4430 C.3     1  UNL1        0.0185
     27 C          -8.6875  -19.4389   18.9518 C.3     1  UNL1        0.0686
     28 N          -7.6002  -19.1167   19.9336 N.3     1  UNL1       -0.2975
     29 H          -8.0595  -18.8272   20.7971 H       1  UNL1        0.1232
     30 C          -6.5937  -20.1638   20.3086 C.3     1  UNL1        0.0685
     31 C          -5.2796  -19.7603   20.9086 C.3     1  UNL1        0.0158
     32 C          -5.2486  -18.9460   22.1680 C.3     1  UNL1        0.0014
     33 C          -3.9345  -18.5424   22.7680 C.3     1  UNL1        0.0000
     34 C          -2.6512  -18.9531   22.1088 C.3     1  UNL1        0.0000
     35 C          -2.6822  -19.7674   20.8495 C.3     1  UNL1        0.0000
     36 C          -3.9964  -20.1710   20.2494 C.3     1  UNL1        0.0014
@<TRIPOS>BOND
     1    13    14   ar
     2    14    15   ar
     3    15    16   ar
     4    16    17   ar
     5    17    18   ar
     6    17    19    1
     7    19    20    1
     8    20    21    1
     9    21    12    1
    10    12     1    1
    11     1    24    1
    12    24    25    1
    13    25    26    1
    14    26    27    1
    15    27    28    1
    16    28    30    1
    17    30    31    1
    18    31    32    1
    19    32    33    1
    20    33    34    1
    21    34    35    1
    22    35    36    1
    23     2     1    1
    24     2     3    1
    25     3     4    1
    26     4     5    1
    27     5     6    1
    28     6     7   ar
    29     7     8   ar
    30     8     9   ar
    31     9    10   ar
    32    10    11   ar
    33    21    22    1
    34    18    13   ar
    35    36    31    1
    36    11     2    1
    37    22    16    1
    38    11     6   ar
    39    20    23    1
    40    28    29    1
@<TRIPOS>MOLECULE
*****
 36 40 0 0 0
SMALL
GASTEIGER

@<TRIPOS>ATOM
      1 N          -8.9701  -18.2292   21.2285 N.3     1  UNL1       -0.2679
      2 C          -9.5650  -18.9270   22.4156 C.3     1  UNL1        0.0978
      3 C          -8.8099  -20.0328   23.0916 C.3     1  UNL1        0.0224
      4 C          -9.4049  -20.7306   24.2788 C.3     1  UNL1        0.0065
      5 C         -10.7548  -20.3226   24.7897 C.3     1  UNL1        0.0277
      6 C         -11.5099  -19.2168   24.1136 C.ar    1  UNL1       -0.0073
      7 C         -12.8598  -18.8089   24.6246 C.ar    1  UNL1       -0.0015
      8 C         -13.6149  -17.7031   23.9485 C.ar    1  UNL1        0.0203
      9 C         -13.0200  -17.0053   22.7615 C.ar    1  UNL1        0.0985
     10 N         -11.6701  -17.4132   22.2505 N.ar    1  UNL1       -0.2471
     11 C         -10.9150  -18.5190   22.9266 C.ar    1  UNL1        0.0695
     12 C          -8.3908  -16.8538   21.3796 C.3     1  UNL1        0.0886
     13 C          -6.7333  -14.8900   27.7551 C.ar    1  UNL1       -0.0003
     14 C          -8.2264  -14.9760   27.6403 C.ar    1  UNL1       -0.0003
     15 C          -8.8565  -15.3859   26.3423 C.ar    1  UNL1       -0.0045
     16 C          -7.9935  -15.7099   25.1590 C.ar    1  UNL1       -0.0234
     17 C          -6.5004  -15.6240   25.2737 C.ar    1  UNL1       -0.0103
     18 C          -5.8703  -15.2141   26.5718 C.ar    1  UNL1       -0.0032
     19 C          -5.6373  -15.9480   24.0904 C.3     1  UNL1        0.0953
     20 N          -6.2675  -16.3580   22.7924 N.3     1  UNL1       -0.2934
     21 C          -7.7607  -16.4439   22.6777 C.3     1  UNL1        0.0748
     22 C          -8.6236  -16.1198   23.8609 C.3     1  UNL1        0.0432
     23 H          -5.9011  -17.2827   22.5663 H       1  UNL1        0.1236
     24 C          -8.9545  -18.9067   19.8903 C.3     1  UNL1        0.0725
     25 C          -7.7231  -19.6285   19.4294 C.3     1  UNL1        0.0188
     26 C          -6.3753  -19.2148   19.9416 C.3     1  UNL1        0.0185
     27 C          -5.7282  -19.9831   21.0557 C.3     1  UNL1        0.0686
     28 N          -5.3340  -19.2805   22.3210 N.3     1  UNL1       -0.2975
     29 H          -5.8468  -19.7301   23.0795 H       1  UNL1        0.1232
     30 C          -3.8937  -19.2378   22.7378 C.3     1  UNL1        0.0685
     31 C          -2.8934  -18.4939   21.9036 C.3     1  UNL1        0.0158
     32 C          -2.1872  -19.1918   20.7793 C.3     1  UNL1        0.0014
     33 C          -1.1868  -18.4479   19.9452 C.3     1  UNL1        0.0000
     34 C          -0.8926  -17.0059   20.2354 C.3     1  UNL1        0.0000
     35 C          -1.5988  -16.3080   21.3597 C.3     1  UNL1        0.0000
     36 C          -2.5991  -17.0519   22.1938 C.3     1  UNL1        0.0014
@<TRIPOS>BOND
     1    13    14   ar
     2    14    15   ar
     3    15    16   ar
     4    16    17   ar
     5    17    18   ar
     6    17    19    1
     7    19    20    1
     8    20    21    1
     9    21    12    1
    10    12     1    1
    11     1    24    1
    12    24    25    1
    13    25    26    1
    14    26    27    1
    15    27    28    1
    16    28    30    1
    17    30    31    1
    18    31    32    1
    19    32    33    1
    20    33    34    1
    21    34    35    1
    22    35    36    1
    23     2     1    1
    24     2     3    1
    25     3     4    1
    26     4     5    1
    27     5     6    1
    28     6     7   ar
    29     7     8   ar
    30     8     9   ar
    31     9    10   ar
    32    10    11   ar
    33    21    22    1
    34    18    13   ar
    35    36    31    1
    36    11     2    1
    37    22    16    1
    38    11     6   ar
    39    20    23    1
    40    28    29    1
@<TRIPOS>MOLECULE
*****
 36 40 0 0 0
SMALL
GASTEIGER

@<TRIPOS>ATOM
      1 N          -7.4197  -19.5853   21.6347 N.3     1  UNL1       -0.2679
      2 C          -8.3552  -19.1752   22.7332 C.3     1  UNL1        0.0978
      3 C          -9.3842  -20.1410   23.2416 C.3     1  UNL1        0.0224
      4 C         -10.3196  -19.7309   24.3402 C.3     1  UNL1        0.0065
      5 C         -10.2261  -18.3551   24.9303 C.3     1  UNL1        0.0277
      6 C          -9.1971  -17.3893   24.4219 C.ar    1  UNL1       -0.0073
      7 C          -9.1036  -16.0135   25.0120 C.ar    1  UNL1       -0.0015
      8 C          -8.0746  -15.0477   24.5037 C.ar    1  UNL1        0.0203
      9 C          -7.1392  -15.4577   23.4052 C.ar    1  UNL1        0.0985
     10 N          -7.2327  -16.8335   22.8150 N.ar    1  UNL1       -0.2471
     11 C          -8.2617  -17.7993   23.3234 C.ar    1  UNL1        0.0695
     12 C          -6.0685  -20.1438   21.9697 C.3     1  UNL1        0.0886
     13 C          -0.3585  -16.8006   20.1072 C.ar    1  UNL1       -0.0003
     14 C          -0.7655  -17.7303   19.0027 C.ar    1  UNL1       -0.0003
     15 C          -1.9889  -18.5849   19.1543 C.ar    1  UNL1       -0.0045
     16 C          -2.8053  -18.5098   20.4104 C.ar    1  UNL1       -0.0234
     17 C          -2.3983  -17.5801   21.5149 C.ar    1  UNL1       -0.0103
     18 C          -1.1749  -16.7255   21.3633 C.ar    1  UNL1       -0.0032
     19 C          -3.2147  -17.5049   22.7711 C.3     1  UNL1        0.0953
     20 N          -4.4381  -18.3595   22.9227 N.3     1  UNL1       -0.2934
     21 C          -4.8451  -19.2892   21.8181 C.3     1  UNL1        0.0748
     22 C          -4.0287  -19.3644   20.5620 C.3     1  UNL1        0.0432
     23 H          -5.2223  -17.7261   23.0783 H       1  UNL1        0.1236
     24 C          -7.8355  -19.4368   20.2011 C.3     1  UNL1        0.0725
     25 C          -7.6833  -20.5890   19.2529 C.3     1  UNL1        0.0188
     26 C          -8.8211  -20.9774   18.3559 C.3     1  UNL1        0.0185
     27 C         -10.0258  -20.0905   18.2458 C.3     1  UNL1        0.0686
     28 N         -10.6962  -19.5786   19.4862 N.3     1  UNL1       -0.2975
     29 H         -10.1637  -19.9382   20.2784 H       1  UNL1        0.1232
     30 C         -10.8487  -18.1020   19.7014 C.3     1  UNL1        0.0685
     31 C         -11.5482  -17.5908   20.9259 C.3     1  UNL1        0.0158
     32 C         -12.5228  -18.4682   21.6541 C.3     1  UNL1        0.0014
     33 C         -13.2223  -17.9570   22.8786 C.3     1  UNL1        0.0000
     34 C         -12.9472  -16.5685   23.3749 C.3     1  UNL1        0.0000
     35 C         -11.9726  -15.6911   22.6466 C.3     1  UNL1        0.0000
     36 C         -11.2731  -16.2023   21.4221 C.3     1  UNL1        0.0014
@<TRIPOS>BOND
     1    13    14   ar
     2    14    15   ar
     3    15    16   ar
     4    16    17   ar
     5    17    18   ar
     6    17    19    1
     7    19    20    1
     8    20    21    1
     9    21    12    1
    10    12     1    1
    11     1    24    1
    12    24    25    1
    13    25    26    1
    14    26    27    1
    15    27    28    1
    16    28    30    1
    17    30    31    1
    18    31    32    1
    19    32    33    1
    20    33    34    1
    21    34    35    1
    22    35    36    1
    23     2     1    1
    24     2     3    1
    25     3     4    1
    26     4     5    1
    27     5     6    1
    28     6     7   ar
    29     7     8   ar
    30     8     9   ar
    31     9    10   ar
    32    10    11   ar
    33    21    22    1
    34    18    13   ar
    35    36    31    1
    36    11     2    1
    37    22    16    1
    38    11     6   ar
    39    20    23    1
    40    28    29    1
@<TRIPOS>MOLECULE
*****
 36 40 0 0 0
SMALL
GASTEIGER

@<TRIPOS>ATOM
      1 N          -8.9020  -17.9853   21.2750 N.3     1  UNL1       -0.2679
      2 C         -10.3317  -17.5326   21.3067 C.3     1  UNL1        0.0978
      3 C         -10.8828  -16.7089   20.1808 C.3     1  UNL1        0.0224
      4 C         -12.3126  -16.2562   20.2125 C.3     1  UNL1        0.0065
      5 C         -13.1912  -16.6273   21.3701 C.3     1  UNL1        0.0277
      6 C         -12.6402  -17.4511   22.4961 C.ar    1  UNL1       -0.0073
      7 C         -13.5188  -17.8222   23.6538 C.ar    1  UNL1       -0.0015
      8 C         -12.9678  -18.6459   24.7797 C.ar    1  UNL1        0.0203
      9 C         -11.5381  -19.0986   24.7480 C.ar    1  UNL1        0.0985
     10 N         -10.6594  -18.7275   23.5904 N.ar    1  UNL1       -0.2471
     11 C         -11.2105  -17.9037   22.4644 C.ar    1  UNL1        0.0695
     12 C          -7.7947  -16.9827   21.4124 C.3     1  UNL1        0.0886
     13 C          -6.9393  -14.9599   27.9259 C.ar    1  UNL1       -0.0003
     14 C          -8.4067  -15.0492   27.6282 C.ar    1  UNL1       -0.0003
     15 C          -8.8712  -15.4716   26.2659 C.ar    1  UNL1       -0.0045
     16 C          -7.8684  -15.8047   25.2014 C.ar    1  UNL1       -0.0234
     17 C          -6.4010  -15.7154   25.4991 C.ar    1  UNL1       -0.0103
     18 C          -5.9364  -15.2930   26.8614 C.ar    1  UNL1       -0.0032
     19 C          -5.3981  -16.0486   24.4345 C.3     1  UNL1        0.0953
     20 N          -5.8626  -16.4710   23.0723 N.3     1  UNL1       -0.2934
     21 C          -7.3301  -16.5603   22.7746 C.3     1  UNL1        0.0748
     22 C          -8.3330  -16.2272   23.8391 C.3     1  UNL1        0.0432
     23 H          -5.4707  -17.3971   22.9016 H       1  UNL1        0.1236
     24 C          -8.5796  -19.4404   21.1060 C.3     1  UNL1        0.0725
     25 C          -7.7734  -19.8979   19.9268 C.3     1  UNL1        0.0188
     26 C          -6.4134  -20.4957   20.1345 C.3     1  UNL1        0.0185
     27 C          -5.2959  -19.6497   20.6689 C.3     1  UNL1        0.0686
     28 N          -5.0995  -19.5149   22.1498 N.3     1  UNL1       -0.2975
     29 H          -5.4165  -20.3887   22.5696 H       1  UNL1        0.1232
     30 C          -3.7327  -19.2395   22.7031 C.3     1  UNL1        0.0685
     31 C          -2.7341  -18.4726   21.8878 C.3     1  UNL1        0.0158
     32 C          -1.9601  -19.1646   20.8052 C.3     1  UNL1        0.0014
     33 C          -0.9614  -18.3977   19.9899 C.3     1  UNL1        0.0000
     34 C          -0.7368  -16.9390   20.2573 C.3     1  UNL1        0.0000
     35 C          -1.5108  -16.2471   21.3399 C.3     1  UNL1        0.0000
     36 C          -2.5095  -17.0139   22.1551 C.3     1  UNL1        0.0014
@<TRIPOS>BOND
     1    13    14   ar
     2    14    15   ar
     3    15    16   ar
     4    16    17   ar
     5    17    18   ar
     6    17    19    1
     7    19    20    1
     8    20    21    1
     9    21    12    1
    10    12     1    1
    11     1    24    1
    12    24    25    1
    13    25    26    1
    14    26    27    1
    15    27    28    1
    16    28    30    1
    17    30    31    1
    18    31    32    1
    19    32    33    1
    20    33    34    1
    21    34    35    1
    22    35    36    1
    23     2     1    1
    24     2     3    1
    25     3     4    1
    26     4     5    1
    27     5     6    1
    28     6     7   ar
    29     7     8   ar
    30     8     9   ar
    31     9    10   ar
    32    10    11   ar
    33    21    22    1
    34    18    13   ar
    35    36    31    1
    36    11     2    1
    37    22    16    1
    38    11     6   ar
    39    20    23    1
    40    28    29    1
@<TRIPOS>MOLECULE
*****
 36 40 0 0 0
SMALL
GASTEIGER

@<TRIPOS>ATOM
      1 N          -7.3151  -19.1665   22.0681 N.3     1  UNL1       -0.2679
      2 C          -6.1793  -19.7524   21.2829 C.3     1  UNL1        0.0978
      3 C          -6.4568  -20.7195   20.1703 C.3     1  UNL1        0.0224
      4 C          -5.3209  -21.3054   19.3851 C.3     1  UNL1        0.0065
      5 C          -3.9076  -20.9243   19.7125 C.3     1  UNL1        0.0277
      6 C          -3.6301  -19.9573   20.8251 C.ar    1  UNL1       -0.0073
      7 C          -2.2167  -19.5762   21.1525 C.ar    1  UNL1       -0.0015
      8 C          -1.9392  -18.6091   22.2651 C.ar    1  UNL1        0.0203
      9 C          -3.0750  -18.0232   23.0503 C.ar    1  UNL1        0.0985
     10 N          -4.4884  -18.4043   22.7229 N.ar    1  UNL1       -0.2471
     11 C          -4.7659  -19.3714   21.6103 C.ar    1  UNL1        0.0695
     12 C          -7.5493  -17.6849   22.0566 C.3     1  UNL1        0.0886
     13 C          -7.1082  -14.2872   28.0157 C.ar    1  UNL1       -0.0003
     14 C          -8.4213  -15.0100   27.9586 C.ar    1  UNL1       -0.0003
     15 C          -8.7721  -15.8341   26.7554 C.ar    1  UNL1       -0.0045
     16 C          -7.8099  -15.9354   25.6092 C.ar    1  UNL1       -0.0234
     17 C          -6.4968  -15.2126   25.6663 C.ar    1  UNL1       -0.0103
     18 C          -6.1459  -14.3885   26.8695 C.ar    1  UNL1       -0.0032
     19 C          -5.5344  -15.3139   24.5201 C.3     1  UNL1        0.0953
     20 N          -5.8853  -16.1380   23.3168 N.3     1  UNL1       -0.2934
     21 C          -7.1984  -16.8608   23.2598 C.3     1  UNL1        0.0748
     22 C          -8.1607  -16.7595   24.4060 C.3     1  UNL1        0.0432
     23 H          -5.1558  -16.8445   23.2210 H       1  UNL1        0.1236
     24 C          -8.2168  -20.0621   22.8649 C.3     1  UNL1        0.0725
     25 C          -9.7057  -19.9288   22.7416 C.3     1  UNL1        0.0188
     26 C         -10.5822  -20.1777   23.9332 C.3     1  UNL1        0.0185
     27 C         -11.0776  -19.0240   24.7539 C.3     1  UNL1        0.0686
     28 N         -12.5467  -18.7298   24.8243 N.3     1  UNL1       -0.2975
     29 H         -12.7045  -18.2252   25.6966 H       1  UNL1        0.1232
     30 C         -13.2048  -17.9323   23.7377 C.3     1  UNL1        0.0685
     31 C         -12.4031  -17.4669   22.5584 C.3     1  UNL1        0.0158
     32 C         -12.4233  -18.2523   21.2807 C.3     1  UNL1        0.0014
     33 C         -11.6216  -17.7868   20.1015 C.3     1  UNL1        0.0000
     34 C         -10.7997  -16.5359   20.2000 C.3     1  UNL1        0.0000
     35 C         -10.7795  -15.7505   21.4777 C.3     1  UNL1        0.0000
     36 C         -11.5812  -16.2160   22.6570 C.3     1  UNL1        0.0014
@<TRIPOS>BOND
     1    13    14   ar
     2    14    15   ar
     3    15    16   ar
     4    16    17   ar
     5    17    18   ar
     6    17    19    1
     7    19    20    1
     8    20    21    1
     9    21    12    1
    10    12     1    1
    11     1    24    1
    12    24    25    1
    13    25    26    1
    14    26    27    1
    15    27    28    1
    16    28    30    1
    17    30    31    1
    18    31    32    1
    19    32    33    1
    20    33    34    1
    21    34    35    1
    22    35    36    1
    23     2     1    1
    24     2     3    1
    25     3     4    1
    26     4     5    1
    27     5     6    1
    28     6     7   ar
    29     7     8   ar
    30     8     9   ar
    31     9    10   ar
    32    10    11   ar
    33    21    22    1
    34    18    13   ar
    35    36    31    1
    36    11     2    1
    37    22    16    1
    38    11     6   ar
    39    20    23    1
    40    28    29    1
@<TRIPOS>MOLECULE
*****
 36 40 0 0 0
SMALL
GASTEIGER

@<TRIPOS>ATOM
      1 N          -8.9857  -18.4306   23.2873 N.3     1  UNL1       -0.2679
      2 C         -10.4654  -18.2064   23.1874 C.3     1  UNL1        0.0978
      3 C         -11.3794  -18.7501   24.2453 C.3     1  UNL1        0.0224
      4 C         -12.8593  -18.5258   24.1455 C.3     1  UNL1        0.0065
      5 C         -13.4250  -17.7580   22.9878 C.3     1  UNL1        0.0277
      6 C         -12.5110  -17.2143   21.9299 C.ar    1  UNL1       -0.0073
      7 C         -13.0768  -16.4465   20.7722 C.ar    1  UNL1       -0.0015
      8 C         -12.1628  -15.9029   19.7144 C.ar    1  UNL1        0.0203
      9 C         -10.6831  -16.1271   19.8142 C.ar    1  UNL1        0.0985
     10 N         -10.1173  -16.8949   20.9718 N.ar    1  UNL1       -0.2471
     11 C         -11.0313  -17.4386   22.0297 C.ar    1  UNL1        0.0695
     12 C          -8.3622  -19.6261   22.6297 C.3     1  UNL1        0.0886
     13 C          -2.1159  -19.1588   19.7986 C.ar    1  UNL1       -0.0003
     14 C          -1.9727  -19.5230   21.2467 C.ar    1  UNL1       -0.0003
     15 C          -3.1933  -19.6893   22.1025 C.ar    1  UNL1       -0.0045
     16 C          -4.5571  -19.4914   21.5103 C.ar    1  UNL1       -0.0234
     17 C          -4.7003  -19.1272   20.0623 C.ar    1  UNL1       -0.0103
     18 C          -3.4797  -18.9609   19.2064 C.ar    1  UNL1       -0.0032
     19 C          -6.0642  -18.9293   19.4700 C.3     1  UNL1        0.0953
     20 N          -7.2848  -19.0956   20.3258 N.3     1  UNL1       -0.2934
     21 C          -7.1416  -19.4598   21.7739 C.3     1  UNL1        0.0748
     22 C          -5.7777  -19.6577   22.3661 C.3     1  UNL1        0.0432
     23 H          -7.8506  -19.8258   19.8931 H       1  UNL1        0.1236
     24 C          -8.1294  -17.4595   24.0446 C.3     1  UNL1        0.0725
     25 C          -8.7451  -16.5649   25.0792 C.3     1  UNL1        0.0188
     26 C          -8.9028  -17.0481   26.4905 C.3     1  UNL1        0.0185
     27 C          -8.3691  -16.2285   27.6279 C.3     1  UNL1        0.0686
     28 N          -7.6778  -14.9258   27.3539 N.3     1  UNL1       -0.2975
     29 H          -7.9195  -14.2974   28.1201 H       1  UNL1        0.1232
     30 C          -6.1849  -14.8838   27.2140 C.3     1  UNL1        0.0685
     31 C          -5.5295  -15.4598   25.9939 C.3     1  UNL1        0.0158
     32 C          -4.7287  -16.7238   26.0988 C.3     1  UNL1        0.0014
     33 C          -4.0732  -17.2998   24.8787 C.3     1  UNL1        0.0000
     34 C          -4.2185  -16.6118   23.5538 C.3     1  UNL1        0.0000
     35 C          -5.0193  -15.3478   23.4489 C.3     1  UNL1        0.0000
     36 C          -5.6747  -14.7718   24.6690 C.3     1  UNL1        0.0014
@<TRIPOS>BOND
     1    13    14   ar
     2    14    15   ar
     3    15    16   ar
     4    16    17   ar
     5    17    18   ar
     6    17    19    1
     7    19    20    1
     8    20    21    1
     9    21    12    1
    10    12     1    1
    11     1    24    1
    12    24    25    1
    13    25    26    1
    14    26    27    1
    15    27    28    1
    16    28    30    1
    17    30    31    1
    18    31    32    1
    19    32    33    1
    20    33    34    1
    21    34    35    1
    22    35    36    1
    23     2     1    1
    24     2     3    1
    25     3     4    1
    26     4     5    1
    27     5     6    1
    28     6     7   ar
    29     7     8   ar
    30     8     9   ar
    31     9    10   ar
    32    10    11   ar
    33    21    22    1
    34    18    13   ar
    35    36    31    1
    36    11     2    1
    37    22    16    1
    38    11     6   ar
    39    20    23    1
    40    28    29    1
@<TRIPOS>MOLECULE
*****
 36 40 0 0 0
SMALL
GASTEIGER

@<TRIPOS>ATOM
      1 N          -8.6425  -18.0349   21.9941 N.3     1  UNL1       -0.2679
      2 C         -10.0694  -17.6761   21.7019 C.3     1  UNL1        0.0978
      3 C         -10.4258  -17.0157   20.4032 C.3     1  UNL1        0.0224
      4 C         -11.8528  -16.6570   20.1110 C.3     1  UNL1        0.0065
      5 C         -12.9231  -16.9587   21.1176 C.3     1  UNL1        0.0277
      6 C         -12.5666  -17.6191   22.4164 C.ar    1  UNL1       -0.0073
      7 C         -13.6370  -17.9208   23.4229 C.ar    1  UNL1       -0.0015
      8 C         -13.2805  -18.5812   24.7217 C.ar    1  UNL1        0.0203
      9 C         -11.8537  -18.9399   25.0139 C.ar    1  UNL1        0.0985
     10 N         -10.7833  -18.6382   24.0073 N.ar    1  UNL1       -0.2471
     11 C         -11.1398  -17.9778   22.7085 C.ar    1  UNL1        0.0695
     12 C          -7.9897  -19.1703   21.2628 C.3     1  UNL1        0.0886
     13 C          -1.2373  -18.9341   19.9984 C.ar    1  UNL1       -0.0003
     14 C          -1.9637  -18.1707   18.9310 C.ar    1  UNL1       -0.0003
     15 C          -3.4595  -18.0652   18.9704 C.ar    1  UNL1       -0.0045
     16 C          -4.2288  -18.7232   20.0772 C.ar    1  UNL1       -0.0234
     17 C          -3.5024  -19.4867   21.1446 C.ar    1  UNL1       -0.0103
     18 C          -2.0067  -19.5921   21.1052 C.ar    1  UNL1       -0.0032
     19 C          -4.2718  -20.1447   22.2515 C.3     1  UNL1        0.0953
     20 N          -5.7676  -20.0393   22.2909 N.3     1  UNL1       -0.2934
     21 C          -6.4940  -19.2757   21.2234 C.3     1  UNL1        0.0748
     22 C          -5.7246  -18.6177   20.1166 C.3     1  UNL1        0.0432
     23 H          -6.0086  -19.6030   23.1807 H       1  UNL1        0.1236
     24 C          -7.8684  -17.2582   23.0176 C.3     1  UNL1        0.0725
     25 C          -8.3248  -15.8878   23.4221 C.3     1  UNL1        0.0188
     26 C          -9.0346  -15.6889   24.7285 C.3     1  UNL1        0.0185
     27 C          -8.3966  -16.1477   26.0062 C.3     1  UNL1        0.0686
     28 N          -7.6583  -15.1684   26.8698 N.3     1  UNL1       -0.2975
     29 H          -7.9721  -15.3254   27.8275 H       1  UNL1        0.1232
     30 C          -6.1586  -15.1757   26.8987 C.3     1  UNL1        0.0685
     31 C          -5.3881  -15.6852   25.7169 C.3     1  UNL1        0.0158
     32 C          -5.3672  -14.8989   24.4397 C.3     1  UNL1        0.0014
     33 C          -4.5967  -15.4083   23.2578 C.3     1  UNL1        0.0000
     34 C          -3.8471  -16.7041   23.3532 C.3     1  UNL1        0.0000
     35 C          -3.8681  -17.4904   24.6303 C.3     1  UNL1        0.0000
     36 C          -4.6386  -16.9810   25.8122 C.3     1  UNL1        0.0014
@<TRIPOS>BOND
     1    13    14   ar
     2    14    15   ar
     3    15    16   ar
     4    16    17   ar
     5    17    18   ar
     6    17    19    1
     7    19    20    1
     8    20    21    1
     9    21    12    1
    10    12     1    1
    11     1    24    1
    12    24    25    1
    13    25    26    1
    14    26    27    1
    15    27    28    1
    16    28    30    1
    17    30    31    1
    18    31    32    1
    19    32    33    1
    20    33    34    1
    21    34    35    1
    22    35    36    1
    23     2     1    1
    24     2     3    1
    25     3     4    1
    26     4     5    1
    27     5     6    1
    28     6     7   ar
    29     7     8   ar
    30     8     9   ar
    31     9    10   ar
    32    10    11   ar
    33    21    22    1
    34    18    13   ar
    35    36    31    1
    36    11     2    1
    37    22    16    1
    38    11     6   ar
    39    20    23    1
    40    28    29    1
@<TRIPOS>MOLECULE
*****
 36 40 0 0 0
SMALL
GASTEIGER

@<TRIPOS>ATOM
      1 N          -7.4550  -18.4278   21.8001 N.3     1  UNL1       -0.2679
      2 C          -8.8260  -18.8602   22.2280 C.3     1  UNL1        0.0978
      3 C          -8.9897  -20.0390   23.1411 C.3     1  UNL1        0.0224
      4 C         -10.3608  -20.4715   23.5691 C.3     1  UNL1        0.0065
      5 C         -11.5681  -19.7252   23.0839 C.3     1  UNL1        0.0277
      6 C         -11.4044  -18.5465   22.1708 C.ar    1  UNL1       -0.0073
      7 C         -12.6118  -17.8002   21.6857 C.ar    1  UNL1       -0.0015
      8 C         -12.4481  -16.6215   20.7726 C.ar    1  UNL1        0.0203
      9 C         -11.0770  -16.1890   20.3447 C.ar    1  UNL1        0.0985
     10 N          -9.8697  -16.9352   20.8298 N.ar    1  UNL1       -0.2471
     11 C         -10.0334  -18.1140   21.7429 C.ar    1  UNL1        0.0695
     12 C          -6.6396  -19.3049   20.8968 C.3     1  UNL1        0.0886
     13 C           0.0055  -18.1224   19.5950 C.ar    1  UNL1       -0.0003
     14 C          -0.8168  -17.6233   18.4440 C.ar    1  UNL1       -0.0003
     15 C          -2.3102  -17.7600   18.4742 C.ar    1  UNL1       -0.0045
     16 C          -2.9815  -18.3958   19.6553 C.ar    1  UNL1       -0.0234
     17 C          -2.1593  -18.8949   20.8063 C.ar    1  UNL1       -0.0103
     18 C          -0.6658  -18.7582   20.7762 C.ar    1  UNL1       -0.0032
     19 C          -2.8305  -19.5307   21.9876 C.3     1  UNL1        0.0953
     20 N          -4.3240  -19.6674   22.0177 N.3     1  UNL1       -0.2934
     21 C          -5.1462  -19.1682   20.8666 C.3     1  UNL1        0.0748
     22 C          -4.4749  -18.5325   19.6855 C.3     1  UNL1        0.0432
     23 H          -4.6483  -19.1717   22.8481 H       1  UNL1        0.1236
     24 C          -6.8992  -17.1181   22.2754 C.3     1  UNL1        0.0725
     25 C          -6.0518  -17.0675   23.5120 C.3     1  UNL1        0.0188
     26 C          -5.3155  -15.8094   23.8657 C.3     1  UNL1        0.0185
     27 C          -4.8423  -15.5874   25.2718 C.3     1  UNL1        0.0686
     28 N          -5.4435  -14.4917   26.1012 N.3     1  UNL1       -0.2975
     29 H          -5.6883  -13.7374   25.4598 H       1  UNL1        0.1232
     30 C          -6.6607  -14.7637   26.9345 C.3     1  UNL1        0.0685
     31 C          -7.7674  -15.6171   26.3896 C.3     1  UNL1        0.0158
     32 C          -8.4606  -15.2248   25.1186 C.3     1  UNL1        0.0014
     33 C          -9.5672  -16.0782   24.5736 C.3     1  UNL1        0.0000
     34 C          -9.9807  -17.3239   25.2997 C.3     1  UNL1        0.0000
     35 C          -9.2875  -17.7162   26.5707 C.3     1  UNL1        0.0000
     36 C          -8.1809  -16.8628   27.1156 C.3     1  UNL1        0.0014
@<TRIPOS>BOND
     1    13    14   ar
     2    14    15   ar
     3    15    16   ar
     4    16    17   ar
     5    17    18   ar
     6    17    19    1
     7    19    20    1
     8    20    21    1
     9    21    12    1
    10    12     1    1
    11     1    24    1
    12    24    25    1
    13    25    26    1
    14    26    27    1
    15    27    28    1
    16    28    30    1
    17    30    31    1
    18    31    32    1
    19    32    33    1
    20    33    34    1
    21    34    35    1
    22    35    36    1
    23     2     1    1
    24     2     3    1
    25     3     4    1
    26     4     5    1
    27     5     6    1
    28     6     7   ar
    29     7     8   ar
    30     8     9   ar
    31     9    10   ar
    32    10    11   ar
    33    21    22    1
    34    18    13   ar
    35    36    31    1
    36    11     2    1
    37    22    16    1
    38    11     6   ar
    39    20    23    1
    40    28    29    1
@<TRIPOS>MOLECULE
*****
 36 40 0 0 0
SMALL
GASTEIGER

@<TRIPOS>ATOM
      1 N          -6.8942  -18.2790   22.8717 N.3     1  UNL1       -0.2679
      2 C          -8.2702  -18.8758   22.8914 C.3     1  UNL1        0.0978
      3 C          -8.9394  -19.1748   24.2001 C.3     1  UNL1        0.0224
      4 C         -10.3154  -19.7716   24.2198 C.3     1  UNL1        0.0065
      5 C         -11.0223  -20.0695   22.9308 C.3     1  UNL1        0.0277
      6 C         -10.3531  -19.7705   21.6220 C.ar    1  UNL1       -0.0073
      7 C         -11.0599  -20.0684   20.3330 C.ar    1  UNL1       -0.0015
      8 C         -10.3907  -19.7694   19.0242 C.ar    1  UNL1        0.0203
      9 C          -9.0147  -19.1726   19.0045 C.ar    1  UNL1        0.0985
     10 N          -8.3079  -18.8748   20.2936 N.ar    1  UNL1       -0.2471
     11 C          -8.9771  -19.1737   21.6023 C.ar    1  UNL1        0.0695
     12 C          -5.6952  -19.1640   22.7004 C.3     1  UNL1        0.0886
     13 C          -0.2987  -17.6139   18.7349 C.ar    1  UNL1       -0.0003
     14 C           0.1066  -17.5163   20.1757 C.ar    1  UNL1       -0.0003
     15 C          -0.8916  -17.8068   21.2570 C.ar    1  UNL1       -0.0045
     16 C          -2.2952  -18.1949   20.8974 C.ar    1  UNL1       -0.0234
     17 C          -2.7005  -18.2925   19.4566 C.ar    1  UNL1       -0.0103
     18 C          -1.7023  -18.0020   18.3753 C.ar    1  UNL1       -0.0032
     19 C          -4.1042  -18.6806   19.0969 C.3     1  UNL1        0.0953
     20 N          -5.1024  -18.9711   20.1782 N.3     1  UNL1       -0.2934
     21 C          -4.6970  -18.8735   21.6191 C.3     1  UNL1        0.0748
     22 C          -3.2934  -18.4854   21.9787 C.3     1  UNL1        0.0432
     23 H          -5.4294  -19.9256   20.0283 H       1  UNL1        0.1236
     24 C          -6.7172  -16.7972   23.0232 C.3     1  UNL1        0.0725
     25 C          -5.9095  -16.2511   24.1631 C.3     1  UNL1        0.0188
     26 C          -6.5369  -15.3002   25.1389 C.3     1  UNL1        0.0185
     27 C          -7.9983  -15.4097   25.4590 C.3     1  UNL1        0.0686
     28 N          -9.0214  -15.1301   24.3983 N.3     1  UNL1       -0.2975
     29 H          -8.5188  -15.0713   23.5127 H       1  UNL1        0.1232
     30 C         -10.1616  -16.0814   24.1868 C.3     1  UNL1        0.0685
     31 C         -10.7892  -16.2101   22.8305 C.3     1  UNL1        0.0158
     32 C         -10.0224  -15.8025   21.6075 C.3     1  UNL1        0.0014
     33 C         -10.6501  -15.9312   20.2512 C.3     1  UNL1        0.0000
     34 C         -12.0445  -16.4675   20.1179 C.3     1  UNL1        0.0000
     35 C         -12.8113  -16.8751   21.3409 C.3     1  UNL1        0.0000
     36 C         -12.1837  -16.7464   22.6972 C.3     1  UNL1        0.0014
@<TRIPOS>BOND
     1    13    14   ar
     2    14    15   ar
     3    15    16   ar
     4    16    17   ar
     5    17    18   ar
     6    17    19    1
     7    19    20    1
     8    20    21    1
     9    21    12    1
    10    12     1    1
    11     1    24    1
    12    24    25    1
    13    25    26    1
    14    26    27    1
    15    27    28    1
    16    28    30    1
    17    30    31    1
    18    31    32    1
    19    32    33    1
    20    33    34    1
    21    34    35    1
    22    35    36    1
    23     2     1    1
    24     2     3    1
    25     3     4    1
    26     4     5    1
    27     5     6    1
    28     6     7   ar
    29     7     8   ar
    30     8     9   ar
    31     9    10   ar
    32    10    11   ar
    33    21    22    1
    34    18    13   ar
    35    36    31    1
    36    11     2    1
    37    22    16    1
    38    11     6   ar
    39    20    23    1
    40    28    29    1
