@<TRIPOS>MOLECULE
*****
 28 30 0 0 0
SMALL
GASTEIGER

@<TRIPOS>ATOM
      1 N          -8.1647  -17.1998   22.6373 N.pl3   1  UNL1       -0.3034
      2 C          -4.2269  -20.1934   20.7901 C.2     1  UNL1        0.4050
      3 O          -4.0211  -21.2353   19.7308 O.2     1  UNL1       -0.2262
      4 N          -5.5796  -19.5739   20.9800 N.am    1  UNL1       -0.2443
      5 C          -6.8145  -19.8938   20.1908 C.3     1  UNL1        0.0986
      6 C          -7.9332  -19.0433   20.7156 C.3     1  UNL1        0.0431
      7 C          -7.3896  -18.1979   21.8291 C.3     1  UNL1        0.0947
      8 C          -5.9351  -18.5259   21.9925 C.3     1  UNL1        0.1164
      9 C          -2.0817  -18.7731   21.1517 C.3     1  UNL1        0.2573
     10 O          -3.0797  -19.7711   21.6594 O.3     1  UNL1       -0.4304
     11 C          -9.5783  -17.4973   23.0411 C.ar    1  UNL1        0.0490
     12 C          -9.8606  -18.5767   24.0437 C.ar    1  UNL1        0.0153
     13 C         -11.2742  -18.8742   24.4475 C.ar    1  UNL1        0.0124
     14 C         -12.4056  -18.0924   23.8487 C.ar    1  UNL1        0.0791
     15 C         -12.1234  -17.0130   22.8460 C.ar    1  UNL1        0.0685
     16 CL        -13.2548  -16.2312   22.2472 Cl      1  UNL1       -0.0815
     17 C         -10.7098  -16.7155   22.4422 C.ar    1  UNL1        0.0266
     18 C         -13.8193  -18.3900   24.2525 C.1     1  UNL1        0.1013
     19 N         -15.2329  -18.6875   24.6563 N.1     1  UNL1       -0.1908
     20 C          -7.5261  -15.9042   23.0417 C.3     1  UNL1        0.1200
     21 C          -7.1355  -15.6747   24.4716 C.ar    1  UNL1        0.0273
     22 C          -5.6966  -15.7793   24.8822 C.ar    1  UNL1       -0.0002
     23 C          -5.3060  -15.5498   26.3121 C.ar    1  UNL1        0.0022
     24 C          -6.3544  -15.2157   27.3316 C.ar    1  UNL1        0.0319
     25 C          -7.7934  -15.1111   26.9211 C.ar    1  UNL1        0.1671
     26 F          -8.8417  -14.7770   27.9405 F       1  UNL1       -0.2018
     27 C          -8.1839  -15.3406   25.4911 C.ar    1  UNL1        0.1650
     28 F          -9.6228  -15.2360   25.0806 F       1  UNL1       -0.2021
@<TRIPOS>BOND
     1     9    10    1
     2    10     2    1
     3     2     3    2
     4     2     4   am
     5     4     5    1
     6     5     6    1
     7     6     7    1
     8     7     1    1
     9     1    20    1
    10    20    21    1
    11    21    22   ar
    12    22    23   ar
    13    23    24   ar
    14    24    25   ar
    15    25    26    1
    16    25    27   ar
    17    27    28    1
    18     1    11    1
    19    11    12   ar
    20    12    13   ar
    21    13    14   ar
    22    14    18    1
    23    18    19    3
    24    14    15   ar
    25    15    16    1
    26    15    17   ar
    27     7     8    1
    28     8     4    1
    29    27    21   ar
    30    17    11   ar
@<TRIPOS>MOLECULE
*****
 28 30 0 0 0
SMALL
GASTEIGER

@<TRIPOS>ATOM
      1 N          -8.0454  -18.9171   21.7504 N.pl3   1  UNL1       -0.3034
      2 C          -2.8178  -19.6136   21.4901 C.2     1  UNL1        0.4050
      3 O          -1.8440  -20.4769   20.7442 O.2     1  UNL1       -0.2262
      4 N          -4.2901  -19.7562   21.2413 N.am    1  UNL1       -0.2443
      5 C          -4.9335  -20.7132   20.2819 C.3     1  UNL1        0.0986
      6 C          -6.4187  -20.5153   20.3559 C.3     1  UNL1        0.0431
      7 C          -6.6929  -19.4361   21.3610 C.3     1  UNL1        0.0947
      8 C          -5.3775  -18.9670   21.9082 C.3     1  UNL1        0.1164
      9 C          -2.2334  -17.1586   22.1076 C.3     1  UNL1        0.2573
     10 O          -2.3192  -18.6077   22.4849 O.3     1  UNL1       -0.4304
     11 C          -8.1980  -18.0679   22.9774 C.ar    1  UNL1        0.0490
     12 C          -8.9931  -18.5729   24.1448 C.ar    1  UNL1        0.0153
     13 C          -9.1457  -17.7237   25.3719 C.ar    1  UNL1        0.0124
     14 C          -8.5033  -16.3696   25.4315 C.ar    1  UNL1        0.0791
     15 C          -7.7083  -15.8646   24.2640 C.ar    1  UNL1        0.0685
     16 CL         -7.0659  -14.5104   24.3237 Cl      1  UNL1       -0.0815
     17 C          -7.5556  -16.7137   23.0370 C.ar    1  UNL1        0.0266
     18 C          -8.6560  -15.5204   26.6585 C.1     1  UNL1        0.1013
     19 N          -8.8086  -14.6713   27.8856 N.1     1  UNL1       -0.1908
     20 C          -9.2451  -19.2473   20.9128 C.3     1  UNL1        0.1200
     21 C         -10.4474  -18.3507   20.9383 C.ar    1  UNL1        0.0273
     22 C         -10.5100  -17.1543   20.0357 C.ar    1  UNL1       -0.0002
     23 C         -11.7123  -16.2577   20.0612 C.ar    1  UNL1        0.0022
     24 C         -12.8519  -16.5575   20.9892 C.ar    1  UNL1        0.0319
     25 C         -12.7894  -17.7540   21.8918 C.ar    1  UNL1        0.1671
     26 F         -13.9290  -18.0538   22.8198 F       1  UNL1       -0.2018
     27 C         -11.5871  -18.6506   21.8664 C.ar    1  UNL1        0.1650
     28 F         -11.5245  -19.8470   22.7689 F       1  UNL1       -0.2021
@<TRIPOS>BOND
     1     9    10    1
     2    10     2    1
     3     2     3    2
     4     2     4   am
     5     4     5    1
     6     5     6    1
     7     6     7    1
     8     7     1    1
     9     1    20    1
    10    20    21    1
    11    21    22   ar
    12    22    23   ar
    13    23    24   ar
    14    24    25   ar
    15    25    26    1
    16    25    27   ar
    17    27    28    1
    18     1    11    1
    19    11    12   ar
    20    12    13   ar
    21    13    14   ar
    22    14    18    1
    23    18    19    3
    24    14    15   ar
    25    15    16    1
    26    15    17   ar
    27     7     8    1
    28     8     4    1
    29    27    21   ar
    30    17    11   ar
@<TRIPOS>MOLECULE
*****
 28 30 0 0 0
SMALL
GASTEIGER

@<TRIPOS>ATOM
      1 N          -8.4737  -16.9842   22.4811 N.pl3   1  UNL1       -0.3034
      2 C          -4.4540  -19.9995   20.8592 C.2     1  UNL1        0.4050
      3 O          -4.1800  -21.0069   19.7822 O.2     1  UNL1       -0.2262
      4 N          -5.8054  -19.3561   20.9581 N.am    1  UNL1       -0.2443
      5 C          -6.9750  -19.6186   20.0563 C.3     1  UNL1        0.0986
      6 C          -8.1169  -18.7619   20.5171 C.3     1  UNL1        0.0431
      7 C          -7.6530  -17.9702   21.7036 C.3     1  UNL1        0.0947
      8 C          -6.2244  -18.3374   21.9762 C.3     1  UNL1        0.1164
      9 C          -2.1274  -18.9568   21.3590 C.3     1  UNL1        0.2573
     10 O          -3.3766  -19.6355   21.8373 O.3     1  UNL1       -0.4304
     11 C          -9.8979  -17.3024   22.8282 C.ar    1  UNL1        0.0490
     12 C         -11.0177  -16.6468   22.0758 C.ar    1  UNL1        0.0153
     13 C         -12.4418  -16.9650   22.4229 C.ar    1  UNL1        0.0124
     14 C         -12.7462  -17.9387   23.5225 C.ar    1  UNL1        0.0791
     15 C         -11.6264  -18.5943   24.2750 C.ar    1  UNL1        0.0685
     16 CL        -11.9308  -19.5681   25.3746 Cl      1  UNL1       -0.0815
     17 C         -10.2022  -18.2762   23.9279 C.ar    1  UNL1        0.0266
     18 C         -14.1704  -18.2569   23.8696 C.1     1  UNL1        0.1013
     19 N         -15.5946  -18.5751   24.2167 N.1     1  UNL1       -0.1908
     20 C          -7.8702  -15.6801   22.9114 C.3     1  UNL1        0.1200
     21 C          -7.4513  -15.4821   24.3381 C.ar    1  UNL1        0.0273
     22 C          -8.4795  -15.4932   25.4301 C.ar    1  UNL1       -0.0002
     23 C          -8.0606  -15.2952   26.8567 C.ar    1  UNL1        0.0022
     24 C          -6.6134  -15.0860   27.1913 C.ar    1  UNL1        0.0319
     25 C          -5.5851  -15.0748   26.0992 C.ar    1  UNL1        0.1671
     26 F          -4.1380  -14.8656   26.4338 F       1  UNL1       -0.2018
     27 C          -6.0041  -15.2729   24.6726 C.ar    1  UNL1        0.1650
     28 F          -4.9759  -15.2618   23.5806 F       1  UNL1       -0.2021
@<TRIPOS>BOND
     1     9    10    1
     2    10     2    1
     3     2     3    2
     4     2     4   am
     5     4     5    1
     6     5     6    1
     7     6     7    1
     8     7     1    1
     9     1    20    1
    10    20    21    1
    11    21    22   ar
    12    22    23   ar
    13    23    24   ar
    14    24    25   ar
    15    25    26    1
    16    25    27   ar
    17    27    28    1
    18     1    11    1
    19    11    12   ar
    20    12    13   ar
    21    13    14   ar
    22    14    18    1
    23    18    19    3
    24    14    15   ar
    25    15    16    1
    26    15    17   ar
    27     7     8    1
    28     8     4    1
    29    27    21   ar
    30    17    11   ar
@<TRIPOS>MOLECULE
*****
 28 30 0 0 0
SMALL
GASTEIGER

@<TRIPOS>ATOM
      1 N          -7.8983  -18.4752   21.9444 N.pl3   1  UNL1       -0.3034
      2 C          -7.7990  -15.3794   26.2207 C.2     1  UNL1        0.4050
      3 O          -8.5739  -15.2123   27.4941 O.2     1  UNL1       -0.2262
      4 N          -8.1934  -16.4404   25.2366 N.am    1  UNL1       -0.2443
      5 C          -9.3333  -17.4037   25.3880 C.3     1  UNL1        0.0986
      6 C          -9.3614  -18.2832   24.1732 C.3     1  UNL1        0.0431
      7 C          -8.2390  -17.8634   23.2710 C.3     1  UNL1        0.0947
      8 C          -7.5171  -16.7246   23.9282 C.3     1  UNL1        0.1164
      9 C          -5.2328  -15.0231   26.0267 C.3     1  UNL1        0.2573
     10 O          -6.6298  -14.4853   25.9315 O.3     1  UNL1       -0.4304
     11 C          -6.4640  -18.6074   21.5257 C.ar    1  UNL1        0.0490
     12 C          -6.1270  -19.0378   20.1289 C.ar    1  UNL1        0.0153
     13 C          -4.6927  -19.1700   19.7102 C.ar    1  UNL1        0.0124
     14 C          -3.5954  -18.8717   20.6883 C.ar    1  UNL1        0.0791
     15 C          -3.9323  -18.4412   22.0852 C.ar    1  UNL1        0.0685
     16 CL         -2.8349  -18.1430   23.0633 Cl      1  UNL1       -0.0815
     17 C          -5.3666  -18.3091   22.5039 C.ar    1  UNL1        0.0266
     18 C          -2.1611  -19.0039   20.2696 C.1     1  UNL1        0.1013
     19 N          -0.7268  -19.1361   19.8508 N.1     1  UNL1       -0.1908
     20 C          -8.9918  -18.9548   21.0366 C.3     1  UNL1        0.1200
     21 C         -10.2491  -18.1506   20.8871 C.ar    1  UNL1        0.0273
     22 C         -10.2494  -16.9084   20.0463 C.ar    1  UNL1       -0.0002
     23 C         -11.5068  -16.1042   19.8968 C.ar    1  UNL1        0.0022
     24 C         -12.7638  -16.5422   20.5881 C.ar    1  UNL1        0.0319
     25 C         -12.7636  -17.7844   21.4290 C.ar    1  UNL1        0.1671
     26 F         -14.0206  -18.2223   22.1203 F       1  UNL1       -0.2018
     27 C         -11.5063  -18.5886   21.5785 C.ar    1  UNL1        0.1650
     28 F         -11.5060  -19.8307   22.4194 F       1  UNL1       -0.2021
@<TRIPOS>BOND
     1     9    10    1
     2    10     2    1
     3     2     3    2
     4     2     4   am
     5     4     5    1
     6     5     6    1
     7     6     7    1
     8     7     1    1
     9     1    20    1
    10    20    21    1
    11    21    22   ar
    12    22    23   ar
    13    23    24   ar
    14    24    25   ar
    15    25    26    1
    16    25    27   ar
    17    27    28    1
    18     1    11    1
    19    11    12   ar
    20    12    13   ar
    21    13    14   ar
    22    14    18    1
    23    18    19    3
    24    14    15   ar
    25    15    16    1
    26    15    17   ar
    27     7     8    1
    28     8     4    1
    29    27    21   ar
    30    17    11   ar
@<TRIPOS>MOLECULE
*****
 28 30 0 0 0
SMALL
GASTEIGER

@<TRIPOS>ATOM
      1 N          -8.1236  -17.2098   22.8524 N.pl3   1  UNL1       -0.3034
      2 C          -6.6042  -21.1820   19.7229 C.2     1  UNL1        0.4050
      3 O          -5.3545  -21.9612   19.4378 O.2     1  UNL1       -0.2262
      4 N          -6.5857  -20.0814   20.7418 N.am    1  UNL1       -0.2443
      5 C          -5.3988  -19.6483   21.5504 C.3     1  UNL1        0.0986
      6 C          -5.8304  -18.5198   22.4395 C.3     1  UNL1        0.0431
      7 C          -7.2841  -18.2556   22.1803 C.3     1  UNL1        0.0947
      8 C          -7.7508  -19.2207   21.1312 C.3     1  UNL1        0.1164
      9 C          -8.7228  -20.3965   18.4405 C.3     1  UNL1        0.2573
     10 O          -7.8722  -21.5035   18.9890 O.3     1  UNL1       -0.4304
     11 C          -9.5604  -17.4949   23.1752 C.ar    1  UNL1        0.0490
     12 C          -9.9064  -18.5106   24.2233 C.ar    1  UNL1        0.0153
     13 C         -11.3432  -18.7957   24.5461 C.ar    1  UNL1        0.0124
     14 C         -12.4341  -18.0651   23.8207 C.ar    1  UNL1        0.0791
     15 C         -12.0881  -17.0494   22.7725 C.ar    1  UNL1        0.0685
     16 CL        -13.1790  -16.3189   22.0471 Cl      1  UNL1       -0.0815
     17 C         -10.6513  -16.7643   22.4497 C.ar    1  UNL1        0.0266
     18 C         -13.8709  -18.3502   24.1435 C.1     1  UNL1        0.1013
     19 N         -15.3078  -18.6354   24.4663 N.1     1  UNL1       -0.1908
     20 C          -7.5262  -15.8790   23.2017 C.3     1  UNL1        0.1200
     21 C          -7.1409  -15.5789   24.6200 C.ar    1  UNL1        0.0273
     22 C          -5.6956  -15.5815   25.0212 C.ar    1  UNL1       -0.0002
     23 C          -5.3103  -15.2814   26.4394 C.ar    1  UNL1        0.0022
     24 C          -6.3704  -14.9786   27.4565 C.ar    1  UNL1        0.0319
     25 C          -7.8158  -14.9759   27.0554 C.ar    1  UNL1        0.1671
     26 F          -8.8759  -14.6731   28.0725 F       1  UNL1       -0.2018
     27 C          -8.2011  -15.2761   25.6371 C.ar    1  UNL1        0.1650
     28 F          -9.6464  -15.2734   25.2359 F       1  UNL1       -0.2021
@<TRIPOS>BOND
     1     9    10    1
     2    10     2    1
     3     2     3    2
     4     2     4   am
     5     4     5    1
     6     5     6    1
     7     6     7    1
     8     7     1    1
     9     1    20    1
    10    20    21    1
    11    21    22   ar
    12    22    23   ar
    13    23    24   ar
    14    24    25   ar
    15    25    26    1
    16    25    27   ar
    17    27    28    1
    18     1    11    1
    19    11    12   ar
    20    12    13   ar
    21    13    14   ar
    22    14    18    1
    23    18    19    3
    24    14    15   ar
    25    15    16    1
    26    15    17   ar
    27     7     8    1
    28     8     4    1
    29    27    21   ar
    30    17    11   ar
@<TRIPOS>MOLECULE
*****
 28 30 0 0 0
SMALL
GASTEIGER

@<TRIPOS>ATOM
      1 N         -12.8453   -3.5284   17.7282 N.pl3   1  UNL1       -0.3034
      2 C         -14.9847    1.1588   18.8825 C.2     1  UNL1        0.4050
      3 O         -14.5507    2.5923   18.9653 O.2     1  UNL1       -0.2262
      4 N         -13.9977    0.0975   18.4963 N.am    1  UNL1       -0.2443
      5 C         -12.5510    0.3170   18.1663 C.3     1  UNL1        0.0986
      6 C         -11.9432   -1.0147   17.8383 C.3     1  UNL1        0.0431
      7 C         -13.0143   -2.0570   17.9657 C.3     1  UNL1        0.0947
      8 C         -14.2840   -1.3697   18.3724 C.3     1  UNL1        0.1164
      9 C         -16.7690    0.2547   20.5404 C.3     1  UNL1        0.2573
     10 O         -16.4059    0.7869   19.1860 O.3     1  UNL1       -0.4304
     11 C         -13.9085   -4.4873   18.1755 C.ar    1  UNL1        0.0490
     12 C         -13.9961   -4.8908   19.6175 C.ar    1  UNL1        0.0153
     13 C         -15.0593   -5.8497   20.0648 C.ar    1  UNL1        0.0124
     14 C         -16.0349   -6.4052   19.0701 C.ar    1  UNL1        0.0791
     15 C         -15.9474   -6.0017   17.6279 C.ar    1  UNL1        0.0685
     16 CL        -16.9230   -6.5572   16.6332 Cl      1  UNL1       -0.0815
     17 C         -14.8842   -5.0428   17.1806 C.ar    1  UNL1        0.0266
     18 C         -17.0981   -7.3641   19.5174 C.1     1  UNL1        0.1013
     19 N         -18.1613   -8.3230   19.9647 N.1     1  UNL1       -0.1908
     20 C         -11.6131   -4.0409   17.0433 C.3     1  UNL1        0.1200
     21 C         -11.0045   -5.3436   17.4705 C.ar    1  UNL1        0.0273
     22 C         -11.3584   -6.6095   16.7478 C.ar    1  UNL1       -0.0002
     23 C         -10.7497   -7.9122   17.1750 C.ar    1  UNL1        0.0022
     24 C          -9.7872   -7.9491   18.3248 C.ar    1  UNL1        0.0319
     25 C          -9.4333   -6.6831   19.0475 C.ar    1  UNL1        0.1671
     26 F          -8.4707   -6.7200   20.1973 F       1  UNL1       -0.2018
     27 C         -10.0419   -5.3804   18.6204 C.ar    1  UNL1        0.1650
     28 F          -9.6880   -4.1145   19.3430 F       1  UNL1       -0.2021
@<TRIPOS>BOND
     1     9    10    1
     2    10     2    1
     3     2     3    2
     4     2     4   am
     5     4     5    1
     6     5     6    1
     7     6     7    1
     8     7     1    1
     9     1    20    1
    10    20    21    1
    11    21    22   ar
    12    22    23   ar
    13    23    24   ar
    14    24    25   ar
    15    25    26    1
    16    25    27   ar
    17    27    28    1
    18     1    11    1
    19    11    12   ar
    20    12    13   ar
    21    13    14   ar
    22    14    18    1
    23    18    19    3
    24    14    15   ar
    25    15    16    1
    26    15    17   ar
    27     7     8    1
    28     8     4    1
    29    27    21   ar
    30    17    11   ar
@<TRIPOS>MOLECULE
*****
 28 30 0 0 0
SMALL
GASTEIGER

@<TRIPOS>ATOM
      1 N         -14.4336   -4.6615   17.8428 N.pl3   1  UNL1       -0.3034
      2 C         -17.5207   -0.9968   20.0609 C.2     1  UNL1        0.4050
      3 O         -17.3599    0.2434   20.8891 O.2     1  UNL1       -0.2262
      4 N         -16.3114   -1.7714   19.6279 N.am    1  UNL1       -0.2443
      5 C         -14.8856   -1.4299   19.9447 C.3     1  UNL1        0.0986
      6 C         -14.0085   -2.4710   19.3146 C.3     1  UNL1        0.0431
      7 C         -14.8924   -3.4559   18.6083 C.3     1  UNL1        0.0947
      8 C         -16.3156   -3.0235   18.8019 C.3     1  UNL1        0.1164
      9 C         -19.5806   -2.5275   20.4654 C.3     1  UNL1        0.2573
     10 O         -18.8908   -1.4624   19.6658 O.3     1  UNL1       -0.4304
     11 C         -15.2748   -5.9033   17.8246 C.ar    1  UNL1        0.0490
     12 C         -15.8907   -6.3732   16.5403 C.ar    1  UNL1        0.0153
     13 C         -16.7319   -7.6150   16.5222 C.ar    1  UNL1        0.0124
     14 C         -16.9572   -8.3869   17.7884 C.ar    1  UNL1        0.0791
     15 C         -16.3412   -7.9170   19.0729 C.ar    1  UNL1        0.0685
     16 CL        -16.5664   -8.6888   20.3391 Cl      1  UNL1       -0.0815
     17 C         -15.5000   -6.6752   19.0910 C.ar    1  UNL1        0.0266
     18 C         -17.7984   -9.6287   17.7703 C.1     1  UNL1        0.1013
     19 N         -18.6396  -10.8705   17.7522 N.1     1  UNL1       -0.1908
     20 C         -13.1335   -4.6253   17.0954 C.3     1  UNL1        0.1200
     21 C         -11.9108   -5.2624   17.6862 C.ar    1  UNL1        0.0273
     22 C         -11.0124   -4.4682   18.5874 C.ar    1  UNL1       -0.0002
     23 C          -9.7896   -5.1053   19.1782 C.ar    1  UNL1        0.0022
     24 C          -9.4653   -6.5365   18.8678 C.ar    1  UNL1        0.0319
     25 C         -10.3637   -7.3307   17.9665 C.ar    1  UNL1        0.1671
     26 F         -10.0394   -8.7620   17.6561 F       1  UNL1       -0.2018
     27 C         -11.5865   -6.6937   17.3757 C.ar    1  UNL1        0.1650
     28 F         -12.4849   -7.4878   16.4746 F       1  UNL1       -0.2021
@<TRIPOS>BOND
     1     9    10    1
     2    10     2    1
     3     2     3    2
     4     2     4   am
     5     4     5    1
     6     5     6    1
     7     6     7    1
     8     7     1    1
     9     1    20    1
    10    20    21    1
    11    21    22   ar
    12    22    23   ar
    13    23    24   ar
    14    24    25   ar
    15    25    26    1
    16    25    27   ar
    17    27    28    1
    18     1    11    1
    19    11    12   ar
    20    12    13   ar
    21    13    14   ar
    22    14    18    1
    23    18    19    3
    24    14    15   ar
    25    15    16    1
    26    15    17   ar
    27     7     8    1
    28     8     4    1
    29    27    21   ar
    30    17    11   ar
