@<TRIPOS>MOLECULE
*****
 18 18 0 0 0
SMALL
GASTEIGER

@<TRIPOS>ATOM
      1 O          -9.4211  -16.9035   22.7238 O.3     1  UNL1       -0.4784
      2 C          -9.1214  -17.8755   21.6213 C.ar    1  UNL1        0.1487
      3 C          -7.7780  -18.5389   21.5509 C.ar    1  UNL1        0.0490
      4 C          -7.4783  -19.5108   20.4484 C.ar    1  UNL1        0.0607
      5 CL         -6.1347  -20.1742   20.3780 Cl      1  UNL1       -0.0821
      6 C          -8.5221  -19.8195   19.4163 C.ar    1  UNL1        0.0123
      7 C          -9.8656  -19.1561   19.4868 C.ar    1  UNL1        0.0142
      8 C         -10.1652  -18.1841   20.5892 C.ar    1  UNL1        0.1023
      9 C         -11.5088  -17.5207   20.6596 C.1     1  UNL1        0.1035
     10 N         -12.8523  -16.8574   20.7300 N.1     1  UNL1       -0.1907
     11 C          -9.5339  -17.3865   24.1394 C.3     1  UNL1        0.1673
     12 C         -11.8772  -18.5076   24.1907 C.3     1  UNL1        0.0038
     13 C         -10.4031  -18.5656   24.4625 C.3     1  UNL1        0.0436
     14 C          -8.7776  -16.6905   25.2319 C.3     1  UNL1        0.0606
     15 C          -8.6409  -15.1968   25.2154 C.3     1  UNL1        0.0723
     16 N          -7.7035  -14.5401   24.2458 N.3     1  UNL1       -0.2962
     17 C          -6.4702  -15.2614   23.7892 C.3     1  UNL1        0.0859
     18 H          -7.3926  -13.6708   24.6796 H       1  UNL1        0.1233
@<TRIPOS>BOND
     1    12    13    1
     2    13    11    1
     3    11    14    1
     4    14    15    1
     5    15    16    1
     6    16    17    1
     7    11     1    1
     8     1     2    1
     9     2     3   ar
    10     3     4   ar
    11     4     5    1
    12     4     6   ar
    13     6     7   ar
    14     7     8   ar
    15     8     9    1
    16     9    10    3
    17     8     2   ar
    18    16    18    1
@<TRIPOS>MOLECULE
*****
 18 18 0 0 0
SMALL
GASTEIGER

@<TRIPOS>ATOM
      1 O          -6.3783  -18.1076   21.2459 O.3     1  UNL1       -0.4784
      2 C          -7.5941  -18.0737   22.1238 C.ar    1  UNL1        0.1487
      3 C          -8.7016  -19.0625   21.9097 C.ar    1  UNL1        0.0490
      4 C          -9.9174  -19.0287   22.7876 C.ar    1  UNL1        0.0607
      5 CL        -11.0248  -20.0175   22.5735 Cl      1  UNL1       -0.0821
      6 C         -10.0257  -18.0060   23.8795 C.ar    1  UNL1        0.0123
      7 C          -8.9183  -17.0172   24.0936 C.ar    1  UNL1        0.0142
      8 C          -7.7025  -17.0511   23.2157 C.ar    1  UNL1        0.1023
      9 C          -6.5950  -16.0622   23.4298 C.1     1  UNL1        0.1035
     10 N          -5.4876  -15.0735   23.6439 N.1     1  UNL1       -0.1907
     11 C          -5.3344  -19.1649   21.4510 C.3     1  UNL1        0.1673
     12 C          -3.8566  -20.5314   19.8081 C.3     1  UNL1        0.0038
     13 C          -5.1860  -20.2759   20.4541 C.3     1  UNL1        0.0436
     14 C          -4.4386  -19.1113   22.6530 C.3     1  UNL1        0.0606
     15 C          -3.1767  -18.3014   22.6125 C.3     1  UNL1        0.0723
     16 N          -3.2364  -16.8348   22.3033 N.3     1  UNL1       -0.2962
     17 C          -2.0581  -16.1524   21.6742 C.3     1  UNL1        0.0859
     18 H          -3.4183  -16.3552   23.1849 H       1  UNL1        0.1233
@<TRIPOS>BOND
     1    12    13    1
     2    13    11    1
     3    11    14    1
     4    14    15    1
     5    15    16    1
     6    16    17    1
     7    11     1    1
     8     1     2    1
     9     2     3   ar
    10     3     4   ar
    11     4     5    1
    12     4     6   ar
    13     6     7   ar
    14     7     8   ar
    15     8     9    1
    16     9    10    3
    17     8     2   ar
    18    16    18    1
@<TRIPOS>MOLECULE
*****
 18 18 0 0 0
SMALL
GASTEIGER

@<TRIPOS>ATOM
      1 O          -8.7622  -16.6278   21.6358 O.3     1  UNL1       -0.4784
      2 C         -10.1621  -16.9935   22.0316 C.ar    1  UNL1        0.1487
      3 C         -10.4036  -17.8052   23.2697 C.ar    1  UNL1        0.0490
      4 C         -11.8034  -18.1710   23.6655 C.ar    1  UNL1        0.0607
      5 CL        -12.0448  -18.9827   24.9036 Cl      1  UNL1       -0.0821
      6 C         -12.9617  -17.7250   22.8233 C.ar    1  UNL1        0.0123
      7 C         -12.7202  -16.9133   21.5853 C.ar    1  UNL1        0.0142
      8 C         -11.3204  -16.5476   21.1894 C.ar    1  UNL1        0.1023
      9 C         -11.0790  -15.7358   19.9513 C.1     1  UNL1        0.1035
     10 N         -10.8375  -14.9241   18.7133 N.1     1  UNL1       -0.1907
     11 C          -7.5964  -17.3217   22.2754 C.3     1  UNL1        0.1673
     12 C          -7.7996  -19.2563   20.5531 C.3     1  UNL1        0.0038
     13 C          -7.1433  -18.6559   21.7610 C.3     1  UNL1        0.0436
     14 C          -6.8835  -16.6814   23.4295 C.3     1  UNL1        0.0606
     15 C          -7.3981  -15.3976   24.0099 C.3     1  UNL1        0.0723
     16 N          -6.4893  -14.5251   24.8242 N.3     1  UNL1       -0.2962
     17 C          -5.6537  -15.1249   25.9159 C.3     1  UNL1        0.0859
     18 H          -7.0765  -13.8139   25.2599 H       1  UNL1        0.1233
@<TRIPOS>BOND
     1    12    13    1
     2    13    11    1
     3    11    14    1
     4    14    15    1
     5    15    16    1
     6    16    17    1
     7    11     1    1
     8     1     2    1
     9     2     3   ar
    10     3     4   ar
    11     4     5    1
    12     4     6   ar
    13     6     7   ar
    14     7     8   ar
    15     8     9    1
    16     9    10    3
    17     8     2   ar
    18    16    18    1
@<TRIPOS>MOLECULE
*****
 18 18 0 0 0
SMALL
GASTEIGER

@<TRIPOS>ATOM
      1 O          -7.9521  -17.1390   21.5521 O.3     1  UNL1       -0.4784
      2 C          -7.8897  -16.5504   22.9304 C.ar    1  UNL1        0.1487
      3 C          -6.5607  -16.2832   23.5724 C.ar    1  UNL1        0.0490
      4 C          -6.4983  -15.6945   24.9506 C.ar    1  UNL1        0.0607
      5 CL         -5.1692  -15.4274   25.5926 Cl      1  UNL1       -0.0821
      6 C          -7.7650  -15.3731   25.6869 C.ar    1  UNL1        0.0123
      7 C          -9.0940  -15.6403   25.0449 C.ar    1  UNL1        0.0142
      8 C          -9.1564  -16.2289   23.6667 C.ar    1  UNL1        0.1023
      9 C         -10.4856  -16.4961   23.0247 C.1     1  UNL1        0.1035
     10 N         -11.8147  -16.7632   22.3828 N.1     1  UNL1       -0.1907
     11 C          -8.2421  -18.5997   21.3729 C.3     1  UNL1        0.1673
     12 C         -10.5567  -19.7273   21.0240 C.3     1  UNL1        0.0038
     13 C          -9.3492  -19.0381   20.4606 C.3     1  UNL1        0.0436
     14 C          -7.4250  -19.6221   22.1058 C.3     1  UNL1        0.0606
     15 C          -5.9311  -19.6253   21.9709 C.3     1  UNL1        0.0723
     16 N          -5.2602  -18.6604   21.0387 N.3     1  UNL1       -0.2962
     17 C          -4.4125  -19.1724   19.9121 C.3     1  UNL1        0.0859
     18 H          -4.6610  -18.0660   21.6114 H       1  UNL1        0.1233
@<TRIPOS>BOND
     1    12    13    1
     2    13    11    1
     3    11    14    1
     4    14    15    1
     5    15    16    1
     6    16    17    1
     7    11     1    1
     8     1     2    1
     9     2     3   ar
    10     3     4   ar
    11     4     5    1
    12     4     6   ar
    13     6     7   ar
    14     7     8   ar
    15     8     9    1
    16     9    10    3
    17     8     2   ar
    18    16    18    1
@<TRIPOS>MOLECULE
*****
 18 18 0 0 0
SMALL
GASTEIGER

@<TRIPOS>ATOM
      1 O          -9.5644  -18.9061   23.8035 O.3     1  UNL1       -0.4784
      2 C          -8.8249  -17.6542   24.1721 C.ar    1  UNL1        0.1487
      3 C          -9.0528  -17.0146   25.5096 C.ar    1  UNL1        0.0490
      4 C          -8.3133  -15.7627   25.8781 C.ar    1  UNL1        0.0607
      5 CL         -8.5414  -15.1232   27.2157 Cl      1  UNL1       -0.0821
      6 C          -7.3459  -15.1503   24.9091 C.ar    1  UNL1        0.0123
      7 C          -7.1179  -15.7899   23.5716 C.ar    1  UNL1        0.0142
      8 C          -7.8574  -17.0418   23.2031 C.ar    1  UNL1        0.1023
      9 C          -7.6294  -17.6814   21.8655 C.1     1  UNL1        0.1035
     10 N          -7.4014  -18.3209   20.5280 N.1     1  UNL1       -0.1907
     11 C         -10.7837  -18.8283   22.9335 C.3     1  UNL1        0.1673
     12 C         -10.7560  -19.5901   20.4497 C.3     1  UNL1        0.0038
     13 C         -11.0325  -19.8817   21.8949 C.3     1  UNL1        0.0436
     14 C         -11.7544  -17.6972   23.1020 C.3     1  UNL1        0.0606
     15 C         -11.6081  -16.4539   22.2757 C.3     1  UNL1        0.0723
     16 N         -12.3471  -16.3254   20.9767 N.3     1  UNL1       -0.2962
     17 C         -11.5995  -16.0014   19.7173 C.3     1  UNL1        0.0859
     18 H         -13.0415  -15.5893   21.1045 H       1  UNL1        0.1233
@<TRIPOS>BOND
     1    12    13    1
     2    13    11    1
     3    11    14    1
     4    14    15    1
     5    15    16    1
     6    16    17    1
     7    11     1    1
     8     1     2    1
     9     2     3   ar
    10     3     4   ar
    11     4     5    1
    12     4     6   ar
    13     6     7   ar
    14     7     8   ar
    15     8     9    1
    16     9    10    3
    17     8     2   ar
    18    16    18    1
@<TRIPOS>MOLECULE
*****
 18 18 0 0 0
SMALL
GASTEIGER

@<TRIPOS>ATOM
      1 O          -9.8967  -18.1624   23.3444 O.3     1  UNL1       -0.4784
      2 C          -8.8443  -17.2756   23.9410 C.ar    1  UNL1        0.1487
      3 C          -9.0696  -16.6416   25.2816 C.ar    1  UNL1        0.0490
      4 C          -8.0172  -15.7547   25.8782 C.ar    1  UNL1        0.0607
      5 CL         -8.2425  -15.1207   27.2189 Cl      1  UNL1       -0.0821
      6 C          -6.7395  -15.5018   25.1342 C.ar    1  UNL1        0.0123
      7 C          -6.5143  -16.1358   23.7936 C.ar    1  UNL1        0.0142
      8 C          -7.5667  -17.0227   23.1970 C.ar    1  UNL1        0.1023
      9 C          -7.3414  -17.6567   21.8563 C.1     1  UNL1        0.1035
     10 N          -7.1161  -18.2907   20.5157 N.1     1  UNL1       -0.1907
     11 C         -11.2687  -17.6203   23.0730 C.3     1  UNL1        0.1673
     12 C         -11.1341  -16.0909   20.9771 C.3     1  UNL1        0.0038
     13 C         -11.4299  -16.2717   22.4366 C.3     1  UNL1        0.0436
     14 C         -12.4796  -18.4269   23.4382 C.3     1  UNL1        0.0606
     15 C         -13.7349  -17.7362   23.8822 C.3     1  UNL1        0.0723
     16 N         -14.7355  -18.4686   24.7264 N.3     1  UNL1       -0.2962
     17 C         -14.5763  -18.5034   26.2175 C.3     1  UNL1        0.0859
     18 H         -14.7367  -19.4375   24.4077 H       1  UNL1        0.1233
@<TRIPOS>BOND
     1    12    13    1
     2    13    11    1
     3    11    14    1
     4    14    15    1
     5    15    16    1
     6    16    17    1
     7    11     1    1
     8     1     2    1
     9     2     3   ar
    10     3     4   ar
    11     4     5    1
    12     4     6   ar
    13     6     7   ar
    14     7     8   ar
    15     8     9    1
    16     9    10    3
    17     8     2   ar
    18    16    18    1
@<TRIPOS>MOLECULE
*****
 18 18 0 0 0
SMALL
GASTEIGER

@<TRIPOS>ATOM
      1 O          -8.2279  -17.1337   23.2914 O.3     1  UNL1       -0.4784
      2 C          -9.0826  -17.4850   22.1099 C.ar    1  UNL1        0.1487
      3 C         -10.2291  -16.5984   21.7235 C.ar    1  UNL1        0.0490
      4 C         -11.0838  -16.9497   20.5419 C.ar    1  UNL1        0.0607
      5 CL        -12.2304  -16.0630   20.1555 Cl      1  UNL1       -0.0821
      6 C         -10.7920  -18.1876   19.7467 C.ar    1  UNL1        0.0123
      7 C          -9.6455  -19.0742   20.1331 C.ar    1  UNL1        0.0142
      8 C          -8.7908  -18.7230   21.3147 C.ar    1  UNL1        0.1023
      9 C          -7.6442  -19.6097   21.7011 C.1     1  UNL1        0.1035
     10 N          -6.4978  -20.4963   22.0875 N.1     1  UNL1       -0.1907
     11 C          -8.8563  -16.9340   24.6387 C.3     1  UNL1        0.1673
     12 C          -8.3602  -15.4098   26.6834 C.3     1  UNL1        0.0038
     13 C          -8.8499  -15.5758   25.2753 C.3     1  UNL1        0.0436
     14 C          -9.4911  -18.0924   25.3495 C.3     1  UNL1        0.0606
     15 C         -10.4728  -18.9679   24.6286 C.3     1  UNL1        0.0723
     16 N         -11.9453  -18.7789   24.8437 N.3     1  UNL1       -0.2962
     17 C         -12.7933  -18.1926   23.7541 C.3     1  UNL1        0.0859
     18 H         -12.0485  -18.1711   25.6564 H       1  UNL1        0.1233
@<TRIPOS>BOND
     1    12    13    1
     2    13    11    1
     3    11    14    1
     4    14    15    1
     5    15    16    1
     6    16    17    1
     7    11     1    1
     8     1     2    1
     9     2     3   ar
    10     3     4   ar
    11     4     5    1
    12     4     6   ar
    13     6     7   ar
    14     7     8   ar
    15     8     9    1
    16     9    10    3
    17     8     2   ar
    18    16    18    1
@<TRIPOS>MOLECULE
*****
 18 18 0 0 0
SMALL
GASTEIGER

@<TRIPOS>ATOM
      1 O         -11.8115   -5.1668   19.6285 O.3     1  UNL1       -0.4784
      2 C         -11.0348   -4.4736   18.5486 C.ar    1  UNL1        0.1487
      3 C         -11.3029   -3.0304   18.2403 C.ar    1  UNL1        0.0490
      4 C         -10.5262   -2.3372   17.1604 C.ar    1  UNL1        0.0607
      5 CL        -10.7944   -0.8939   16.8522 Cl      1  UNL1       -0.0821
      6 C          -9.4813   -3.0873   16.3887 C.ar    1  UNL1        0.0123
      7 C          -9.2132   -4.5306   16.6969 C.ar    1  UNL1        0.0142
      8 C          -9.9899   -5.2237   17.7769 C.ar    1  UNL1        0.1023
      9 C          -9.7217   -6.6671   18.0851 C.1     1  UNL1        0.1035
     10 N          -9.4535   -8.1103   18.3933 N.1     1  UNL1       -0.1907
     11 C         -13.2918   -5.3594   19.4819 C.3     1  UNL1        0.1673
     12 C         -13.8119   -3.3075   20.9884 C.3     1  UNL1        0.0038
     13 C         -14.2376   -4.6059   20.3694 C.3     1  UNL1        0.0436
     14 C         -13.8263   -6.3055   18.4479 C.3     1  UNL1        0.0606
     15 C         -13.3027   -7.7091   18.3734 C.3     1  UNL1        0.0723
     16 N         -14.0789   -8.8331   18.9932 N.3     1  UNL1       -0.2962
     17 C         -15.5728   -8.8734   18.8644 C.3     1  UNL1        0.0859
     18 H         -13.8697   -8.8201   19.9915 H       1  UNL1        0.1233
@<TRIPOS>BOND
     1    12    13    1
     2    13    11    1
     3    11    14    1
     4    14    15    1
     5    15    16    1
     6    16    17    1
     7    11     1    1
     8     1     2    1
     9     2     3   ar
    10     3     4   ar
    11     4     5    1
    12     4     6   ar
    13     6     7   ar
    14     7     8   ar
    15     8     9    1
    16     9    10    3
    17     8     2   ar
    18    16    18    1
@<TRIPOS>MOLECULE
*****
 18 18 0 0 0
SMALL
GASTEIGER

@<TRIPOS>ATOM
      1 O         -12.8251   -7.0769   19.1543 O.3     1  UNL1       -0.4784
      2 C         -13.3689   -5.7032   19.4138 C.ar    1  UNL1        0.1487
      3 C         -14.8428   -5.5047   19.6093 C.ar    1  UNL1        0.0490
      4 C         -15.3866   -4.1310   19.8687 C.ar    1  UNL1        0.0607
      5 CL        -16.8606   -3.9325   20.0642 Cl      1  UNL1       -0.0821
      6 C         -14.4566   -2.9559   19.9327 C.ar    1  UNL1        0.0123
      7 C         -12.9828   -3.1545   19.7373 C.ar    1  UNL1        0.0142
      8 C         -12.4389   -4.5281   19.4778 C.ar    1  UNL1        0.1023
      9 C         -10.9650   -4.7266   19.2823 C.1     1  UNL1        0.1035
     10 N          -9.4911   -4.9251   19.0869 N.1     1  UNL1       -0.1907
     11 C         -12.8130   -7.6275   17.7591 C.3     1  UNL1        0.1673
     12 C         -10.2675   -8.1374   17.6538 C.3     1  UNL1        0.0038
     13 C         -11.5295   -7.6795   16.9845 C.3     1  UNL1        0.0436
     14 C         -14.0843   -8.1262   17.1385 C.3     1  UNL1        0.0606
     15 C         -14.8329   -9.2614   17.7715 C.3     1  UNL1        0.0723
     16 N         -15.0031   -9.3097   19.2611 N.3     1  UNL1       -0.2962
     17 C         -16.2900   -8.8560   19.8840 C.3     1  UNL1        0.0859
     18 H         -14.2630   -8.7328   19.6608 H       1  UNL1        0.1233
@<TRIPOS>BOND
     1    12    13    1
     2    13    11    1
     3    11    14    1
     4    14    15    1
     5    15    16    1
     6    16    17    1
     7    11     1    1
     8     1     2    1
     9     2     3   ar
    10     3     4   ar
    11     4     5    1
    12     4     6   ar
    13     6     7   ar
    14     7     8   ar
    15     8     9    1
    16     9    10    3
    17     8     2   ar
    18    16    18    1
