@<TRIPOS>MOLECULE
*****
 44 48 0 0 0
SMALL
GASTEIGER

@<TRIPOS>ATOM
      1 N           7.7854   -4.6947   28.0552 N.am    1  UNL1       -0.2733
      2 C           7.5090   -4.8779   29.5182 C.2     1  UNL1        0.2462
      3 O           8.0288   -6.0895   30.2336 O.2     1  UNL1       -0.2730
      4 C           6.7130   -3.8495   30.2656 C.3     1  UNL1        0.1759
      5 N           6.1933   -2.6379   29.5502 N.am    1  UNL1       -0.2951
      6 C           6.4696   -2.4546   28.0873 C.2     1  UNL1        0.2390
      7 O           5.9498   -1.2430   27.3719 O.2     1  UNL1       -0.2734
      8 C           7.2656   -3.4831   27.3398 C.3     1  UNL1        0.1314
      9 C           8.0617   -4.5115   26.5924 C.3     1  UNL1        0.0445
     10 C           8.3379   -4.3282   25.1295 C.3     1  UNL1        0.0745
     11 N           7.8182   -3.1166   24.4141 N.3     1  UNL1       -0.2688
     12 C           7.0222   -2.0882   25.1615 C.3     1  UNL1        0.0745
     13 C           6.7459   -2.2715   26.6244 C.3     1  UNL1        0.0445
     14 H           5.6708   -1.9629   30.0408 H       1  UNL1        0.1499
     15 C           6.4367   -4.0327   31.7286 C.3     1  UNL1        0.1372
     16 O           6.4810   -5.4043   32.3342 O.3     1  UNL1       -0.3823
     17 H           6.7007   -6.0537   31.6480 H       1  UNL1        0.2104
     18 C           6.1161   -2.8443   32.5859 C.3     1  UNL1        0.0291
     19 C           4.7363   -2.6768   33.1499 C.3     1  UNL1        0.0025
     20 C           4.4157   -1.4884   34.0071 C.3     1  UNL1        0.0001
     21 C           5.4749   -0.4675   34.3004 C.3     1  UNL1        0.0000
     22 C           6.8547   -0.6351   33.7364 C.3     1  UNL1        0.0001
     23 C           7.1753   -1.8235   32.8791 C.3     1  UNL1        0.0025
     24 C           8.5814   -5.7231   27.3078 C.3     1  UNL1        0.0938
     25 C           8.1185   -7.1494   27.2721 C.3     1  UNL1        0.0215
     26 C           9.4314   -7.9074   25.1622 C.3     1  UNL1        0.0001
     27 C           8.1810   -7.9264   25.9906 C.3     1  UNL1        0.0018
     28 C           8.0945   -2.9334   22.9511 C.3     1  UNL1        0.0992
     29 C           6.9586   -2.7278   21.9933 C.ar    1  UNL1       -0.0059
     30 C           6.9762   -1.5635   21.0478 C.ar    1  UNL1        0.0002
     31 C           5.8403   -1.3579   20.0899 C.ar    1  UNL1        0.0372
     32 C           4.6868   -2.3167   20.0776 C.ar    1  UNL1        0.1453
     33 C           4.6692   -3.4811   21.0231 C.ar    1  UNL1        0.0372
     34 C           5.8051   -3.6867   21.9809 C.ar    1  UNL1        0.0002
     35 O           3.5509   -2.1112   19.1198 O.3     1  UNL1       -0.4535
     36 C           2.6132   -0.9552   19.3054 C.ar    1  UNL1        0.1453
     37 C           2.6050    0.1705   18.3140 C.ar    1  UNL1        0.0375
     38 C           1.6673    1.3265   18.4996 C.ar    1  UNL1        0.0043
     39 C           0.7379    1.3568   19.6765 C.ar    1  UNL1        0.0142
     40 C           0.7461    0.2312   20.6679 C.ar    1  UNL1        0.0043
     41 C           1.6838   -0.9248   20.4823 C.ar    1  UNL1        0.0375
     42 C          -0.1998    2.5128   19.8620 C.2     1  UNL1        0.0729
     43 O           0.0983    3.8320   19.2130 O.co2   1  UNL1       -0.5446
     44 O          -1.4355    2.3498   20.6965 O.co2   1  UNL1       -0.5446
@<TRIPOS>UNITY_ATOM_ATTR
43 1
charge -1
@<TRIPOS>BOND
     1    26    27    1
     2    27    25    1
     3    25    24    1
     4    24     1    1
     5     1     2   am
     6     2     3    2
     7     2     4    1
     8     4    15    1
     9    15    16    1
    10    15    18    1
    11    18    19    1
    12    19    20    1
    13    20    21    1
    14    21    22    1
    15    22    23    1
    16     4     5    1
    17     5     6   am
    18     6     7    2
    19     6     8    1
    20     8     9    1
    21     9    10    1
    22    10    11    1
    23    11    28    1
    24    28    29    1
    25    29    30   ar
    26    30    31   ar
    27    31    32   ar
    28    32    35    1
    29    35    36    1
    30    36    37   ar
    31    37    38   ar
    32    38    39   ar
    33    39    42    1
    34    42    43   ar
    35    42    44   ar
    36    39    40   ar
    37    40    41   ar
    38    32    33   ar
    39    33    34   ar
    40    11    12    1
    41    12    13    1
    42     8     1    1
    43    34    29   ar
    44    23    18    1
    45    13     8    1
    46    41    36   ar
    47    16    17    1
    48     5    14    1
@<TRIPOS>MOLECULE
*****
 44 48 0 0 0
SMALL
GASTEIGER

@<TRIPOS>ATOM
      1 N           8.3638   -4.9064   28.3236 N.am    1  UNL1       -0.2733
      2 C           7.9133   -5.0376   29.7483 C.2     1  UNL1        0.2462
      3 O           8.3552   -6.2126   30.5695 O.2     1  UNL1       -0.2730
      4 C           7.0210   -3.9939   30.3519 C.3     1  UNL1        0.1759
      5 N           6.5791   -2.8189   29.5308 N.am    1  UNL1       -0.2951
      6 C           7.0296   -2.6877   28.1061 C.2     1  UNL1        0.2390
      7 O           6.5877   -1.5128   27.2850 O.2     1  UNL1       -0.2734
      8 C           7.9220   -3.7315   27.5024 C.3     1  UNL1        0.1314
      9 C           8.8143   -4.7752   26.8989 C.3     1  UNL1        0.0445
     10 C           9.2647   -4.6440   25.4742 C.3     1  UNL1        0.0745
     11 N           8.8229   -3.4690   24.6530 N.3     1  UNL1       -0.2688
     12 C           7.9305   -2.4253   25.2566 C.3     1  UNL1        0.0745
     13 C           7.4801   -2.5565   26.6813 C.3     1  UNL1        0.0445
     14 H           5.9935   -2.1339   29.9270 H       1  UNL1        0.1499
     15 C           6.5705   -4.1251   31.7767 C.3     1  UNL1        0.1372
     16 O           6.5079   -5.4778   32.4219 O.3     1  UNL1       -0.3823
     17 H           6.7895   -6.1531   31.7852 H       1  UNL1        0.2104
     18 C           6.1826   -2.9036   32.5561 C.3     1  UNL1        0.0291
     19 C           7.2082   -1.8531   32.8635 C.3     1  UNL1        0.0025
     20 C           6.8204   -0.6316   33.6430 C.3     1  UNL1        0.0001
     21 C           5.4068   -0.4607   34.1151 C.3     1  UNL1        0.0000
     22 C           4.3812   -1.5112   33.8077 C.3     1  UNL1        0.0001
     23 C           4.7692   -2.7327   33.0282 C.3     1  UNL1        0.0025
     24 C           9.2562   -5.9502   27.7200 C.3     1  UNL1        0.0938
     25 C           8.9776   -7.4045   27.9592 C.3     1  UNL1        0.0215
     26 C           7.2564   -7.9616   26.0945 C.3     1  UNL1        0.0001
     27 C           8.5270   -8.2781   26.8261 C.3     1  UNL1        0.0018
     28 C           9.2734   -3.3379   23.2282 C.3     1  UNL1        0.0992
     29 C           8.2597   -3.2181   22.1291 C.ar    1  UNL1       -0.0059
     30 C           7.0014   -4.0331   22.1773 C.ar    1  UNL1        0.0002
     31 C           5.9877   -3.9133   21.0781 C.ar    1  UNL1        0.0372
     32 C           6.2323   -2.9785   19.9309 C.ar    1  UNL1        0.1453
     33 C           7.4906   -2.1634   19.8827 C.ar    1  UNL1        0.0372
     34 C           8.5043   -2.2832   20.9818 C.ar    1  UNL1        0.0002
     35 O           5.2187   -2.8587   18.8317 O.3     1  UNL1       -0.4535
     36 C           4.0846   -1.8854   18.9602 C.ar    1  UNL1        0.1453
     37 C           3.9178   -0.7904   17.9488 C.ar    1  UNL1        0.0375
     38 C           2.7837    0.1829   18.0772 C.ar    1  UNL1        0.0043
     39 C           1.8164    0.0612   19.2171 C.ar    1  UNL1        0.0142
     40 C           1.9831   -1.0339   20.2286 C.ar    1  UNL1        0.0043
     41 C           3.1172   -2.0072   20.1001 C.ar    1  UNL1        0.0375
     42 C           0.6823    1.0345   19.3455 C.2     1  UNL1        0.0729
     43 O          -0.2479    0.9516   20.5195 O.co2   1  UNL1       -0.5446
     44 O           0.4783    2.0906   18.3001 O.co2   1  UNL1       -0.5446
@<TRIPOS>UNITY_ATOM_ATTR
43 1
charge -1
@<TRIPOS>BOND
     1    26    27    1
     2    27    25    1
     3    25    24    1
     4    24     1    1
     5     1     2   am
     6     2     3    2
     7     2     4    1
     8     4    15    1
     9    15    16    1
    10    15    18    1
    11    18    19    1
    12    19    20    1
    13    20    21    1
    14    21    22    1
    15    22    23    1
    16     4     5    1
    17     5     6   am
    18     6     7    2
    19     6     8    1
    20     8     9    1
    21     9    10    1
    22    10    11    1
    23    11    28    1
    24    28    29    1
    25    29    30   ar
    26    30    31   ar
    27    31    32   ar
    28    32    35    1
    29    35    36    1
    30    36    37   ar
    31    37    38   ar
    32    38    39   ar
    33    39    42    1
    34    42    43   ar
    35    42    44   ar
    36    39    40   ar
    37    40    41   ar
    38    32    33   ar
    39    33    34   ar
    40    11    12    1
    41    12    13    1
    42     8     1    1
    43    34    29   ar
    44    23    18    1
    45    13     8    1
    46    41    36   ar
    47    16    17    1
    48     5    14    1
@<TRIPOS>MOLECULE
*****
 44 48 0 0 0
SMALL
GASTEIGER

@<TRIPOS>ATOM
      1 N           7.4117   -5.1271   25.4751 N.am    1  UNL1       -0.2733
      2 C           7.4070   -5.0859   23.9756 C.2     1  UNL1        0.2462
      3 O           8.0297   -6.2035   23.1926 O.2     1  UNL1       -0.2730
      4 C           6.7795   -3.9271   23.2592 C.3     1  UNL1        0.1759
      5 N           6.1567   -2.8095   24.0421 N.am    1  UNL1       -0.2951
      6 C           6.1614   -2.8506   25.5415 C.2     1  UNL1        0.2390
      7 O           5.5386   -1.7330   26.3245 O.2     1  UNL1       -0.2734
      8 C           6.7889   -4.0095   26.2580 C.3     1  UNL1        0.1314
      9 C           7.4164   -5.1683   26.9744 C.3     1  UNL1        0.0445
     10 C           7.4212   -5.2095   28.4738 C.3     1  UNL1        0.0745
     11 N           6.7984   -4.0919   29.2568 N.3     1  UNL1       -0.2688
     12 C           6.1709   -2.9331   28.5404 C.3     1  UNL1        0.0745
     13 C           6.1662   -2.8919   27.0410 C.3     1  UNL1        0.0445
     14 H           5.7448   -2.0489   23.5719 H       1  UNL1        0.1499
     15 C           6.7747   -3.8858   21.7597 C.3     1  UNL1        0.1372
     16 O           7.9742   -4.3580   20.9926 O.3     1  UNL1       -0.3823
     17 H           8.6583   -4.6550   21.6129 H       1  UNL1        0.2104
     18 C           5.5705   -3.3725   21.0273 C.3     1  UNL1        0.0291
     19 C           4.7902   -4.2887   20.1320 C.3     1  UNL1        0.0025
     20 C           3.5860   -3.7753   19.3996 C.3     1  UNL1        0.0001
     21 C           3.1621   -2.3457   19.5626 C.3     1  UNL1        0.0000
     22 C           3.9424   -1.4295   20.4580 C.3     1  UNL1        0.0001
     23 C           5.1467   -1.9429   21.1903 C.3     1  UNL1        0.0025
     24 C           8.0392   -6.2860   26.1915 C.3     1  UNL1        0.0938
     25 C           7.4647   -7.6630   26.0377 C.3     1  UNL1        0.0215
     26 C           9.1544   -8.7364   27.6937 C.3     1  UNL1        0.0001
     27 C           7.8099   -8.7347   27.0287 C.3     1  UNL1        0.0018
     28 C           6.8031   -4.1332   30.7563 C.3     1  UNL1        0.0992
     29 C           6.7255   -2.8577   31.5419 C.ar    1  UNL1       -0.0059
     30 C           5.4111   -2.4001   32.1011 C.ar    1  UNL1        0.0002
     31 C           5.3335   -1.1246   32.8868 C.ar    1  UNL1        0.0372
     32 C           6.5704   -0.3068   33.1132 C.ar    1  UNL1        0.1453
     33 C           7.8849   -0.7644   32.5539 C.ar    1  UNL1        0.0372
     34 C           7.9625   -2.0399   31.7683 C.ar    1  UNL1        0.0002
     35 O           6.4928    0.9686   33.8988 O.3     1  UNL1       -0.4535
     36 C           5.4795    1.1136   34.9952 C.ar    1  UNL1        0.1453
     37 C           4.2746    1.9837   34.7927 C.ar    1  UNL1        0.0375
     38 C           3.2613    2.1287   35.8891 C.ar    1  UNL1        0.0043
     39 C           3.4530    1.4037   37.1882 C.ar    1  UNL1        0.0142
     40 C           4.6580    0.5336   37.3908 C.ar    1  UNL1        0.0043
     41 C           5.6712    0.3885   36.2943 C.ar    1  UNL1        0.0375
     42 C           2.4397    1.5487   38.2846 C.2     1  UNL1        0.0729
     43 O           1.2731    2.4754   38.1100 O.co2   1  UNL1       -0.5446
     44 O           2.5930    0.7672   39.5557 O.co2   1  UNL1       -0.5446
@<TRIPOS>UNITY_ATOM_ATTR
43 1
charge -1
@<TRIPOS>BOND
     1    26    27    1
     2    27    25    1
     3    25    24    1
     4    24     1    1
     5     1     2   am
     6     2     3    2
     7     2     4    1
     8     4    15    1
     9    15    16    1
    10    15    18    1
    11    18    19    1
    12    19    20    1
    13    20    21    1
    14    21    22    1
    15    22    23    1
    16     4     5    1
    17     5     6   am
    18     6     7    2
    19     6     8    1
    20     8     9    1
    21     9    10    1
    22    10    11    1
    23    11    28    1
    24    28    29    1
    25    29    30   ar
    26    30    31   ar
    27    31    32   ar
    28    32    35    1
    29    35    36    1
    30    36    37   ar
    31    37    38   ar
    32    38    39   ar
    33    39    42    1
    34    42    43   ar
    35    42    44   ar
    36    39    40   ar
    37    40    41   ar
    38    32    33   ar
    39    33    34   ar
    40    11    12    1
    41    12    13    1
    42     8     1    1
    43    34    29   ar
    44    23    18    1
    45    13     8    1
    46    41    36   ar
    47    16    17    1
    48     5    14    1
@<TRIPOS>MOLECULE
*****
 44 48 0 0 0
SMALL
GASTEIGER

@<TRIPOS>ATOM
      1 N           6.6638   -3.3218   29.6625 N.am    1  UNL1       -0.2733
      2 C           6.2306   -3.2925   31.0983 C.2     1  UNL1        0.2462
      3 O           6.7518   -4.3189   32.0600 O.2     1  UNL1       -0.2730
      4 C           5.2761   -2.2369   31.5724 C.3     1  UNL1        0.1759
      5 N           4.7549   -1.2106   30.6106 N.am    1  UNL1       -0.2951
      6 C           5.1881   -1.2398   29.1749 C.2     1  UNL1        0.2390
      7 O           4.6669   -0.2134   28.2132 O.2     1  UNL1       -0.2734
      8 C           6.1426   -2.2954   28.7008 C.3     1  UNL1        0.1314
      9 C           7.0970   -3.3510   28.2268 C.3     1  UNL1        0.0445
     10 C           7.5303   -3.3802   26.7910 C.3     1  UNL1        0.0745
     11 N           7.0090   -2.3538   25.8293 N.3     1  UNL1       -0.2688
     12 C           6.0546   -1.2983   26.3033 C.3     1  UNL1        0.0745
     13 C           5.6214   -1.2690   27.7391 C.3     1  UNL1        0.0445
     14 H           4.1285   -0.5177   30.9218 H       1  UNL1        0.1499
     15 C           4.8429   -2.2077   33.0082 C.3     1  UNL1        0.1372
     16 O           3.7818   -3.1517   33.4908 O.3     1  UNL1       -0.3823
     17 H           3.4846   -3.7081   32.7539 H       1  UNL1        0.2104
     18 C           5.4707   -1.2344   33.9613 C.3     1  UNL1        0.0291
     19 C           6.7853   -0.5958   33.6237 C.3     1  UNL1        0.0025
     20 C           7.4131    0.3775   34.5769 C.3     1  UNL1        0.0001
     21 C           6.7262    0.7123   35.8677 C.3     1  UNL1        0.0000
     22 C           5.4116    0.0737   36.2053 C.3     1  UNL1        0.0001
     23 C           4.7838   -0.8996   35.2521 C.3     1  UNL1        0.0025
     24 C           7.6183   -4.3774   29.1885 C.3     1  UNL1        0.0938
     25 C           7.2503   -5.8270   29.3026 C.3     1  UNL1        0.0215
     26 C           8.0740   -7.1064   27.1967 C.3     1  UNL1        0.0001
     27 C           8.1240   -6.8740   28.6778 C.3     1  UNL1        0.0018
     28 C           7.4423   -2.3831   24.3935 C.3     1  UNL1        0.0992
     29 C           6.4159   -2.3640   23.2998 C.ar    1  UNL1       -0.0059
     30 C           5.3917   -3.4565   23.2133 C.ar    1  UNL1        0.0002
     31 C           4.3653   -3.4373   22.1196 C.ar    1  UNL1        0.0372
     32 C           4.3631   -2.3257   21.1124 C.ar    1  UNL1        0.1453
     33 C           5.3873   -1.2333   21.1990 C.ar    1  UNL1        0.0372
     34 C           6.4137   -1.2524   22.2926 C.ar    1  UNL1        0.0002
     35 O           3.3367   -2.3066   20.0188 O.3     1  UNL1       -0.4535
     36 C           2.5428   -1.0612   19.7570 C.ar    1  UNL1        0.1453
     37 C           2.9711   -0.1117   18.6778 C.ar    1  UNL1        0.0375
     38 C           2.1771    1.1338   18.4160 C.ar    1  UNL1        0.0043
     39 C           0.9548    1.4296   19.2335 C.ar    1  UNL1        0.0142
     40 C           0.5264    0.4801   20.3128 C.ar    1  UNL1        0.0043
     41 C           1.3204   -0.7653   20.5746 C.ar    1  UNL1        0.0375
     42 C           0.1608    2.6751   18.9717 C.2     1  UNL1        0.0729
     43 O          -0.2944    3.5291   20.1179 O.co2   1  UNL1       -0.5446
     44 O          -0.1780    3.0665   17.5639 O.co2   1  UNL1       -0.5446
@<TRIPOS>UNITY_ATOM_ATTR
43 1
charge -1
@<TRIPOS>BOND
     1    26    27    1
     2    27    25    1
     3    25    24    1
     4    24     1    1
     5     1     2   am
     6     2     3    2
     7     2     4    1
     8     4    15    1
     9    15    16    1
    10    15    18    1
    11    18    19    1
    12    19    20    1
    13    20    21    1
    14    21    22    1
    15    22    23    1
    16     4     5    1
    17     5     6   am
    18     6     7    2
    19     6     8    1
    20     8     9    1
    21     9    10    1
    22    10    11    1
    23    11    28    1
    24    28    29    1
    25    29    30   ar
    26    30    31   ar
    27    31    32   ar
    28    32    35    1
    29    35    36    1
    30    36    37   ar
    31    37    38   ar
    32    38    39   ar
    33    39    42    1
    34    42    43   ar
    35    42    44   ar
    36    39    40   ar
    37    40    41   ar
    38    32    33   ar
    39    33    34   ar
    40    11    12    1
    41    12    13    1
    42     8     1    1
    43    34    29   ar
    44    23    18    1
    45    13     8    1
    46    41    36   ar
    47    16    17    1
    48     5    14    1
@<TRIPOS>MOLECULE
*****
 44 48 0 0 0
SMALL
GASTEIGER

@<TRIPOS>ATOM
      1 N           3.1848    0.6834   30.2152 N.am    1  UNL1       -0.2733
      2 C           3.8074   -0.2884   31.1735 C.2     1  UNL1        0.2462
      3 O           4.6607   -1.4087   30.6570 O.2     1  UNL1       -0.2730
      4 C           3.5767   -0.1397   32.6481 C.3     1  UNL1        0.1759
      5 N           2.7235    0.9806   33.1646 N.am    1  UNL1       -0.2951
      6 C           2.1009    1.9523   32.2064 C.2     1  UNL1        0.2390
      7 O           1.2476    3.0727   32.7229 O.2     1  UNL1       -0.2734
      8 C           2.3316    1.8037   30.7317 C.3     1  UNL1        0.1314
      9 C           2.5622    1.6551   29.2570 C.3     1  UNL1        0.0445
     10 C           1.9397    2.6268   28.2989 C.3     1  UNL1        0.0745
     11 N           1.0864    3.7471   28.8154 N.3     1  UNL1       -0.2688
     12 C           0.8557    3.8958   30.2900 C.3     1  UNL1        0.0745
     13 C           1.4783    2.9241   31.2482 C.3     1  UNL1        0.0445
     14 H           2.5721    1.0782   34.1325 H       1  UNL1        0.1499
     15 C           4.1993   -1.1115   33.6064 C.3     1  UNL1        0.1372
     16 O           3.8484   -2.5679   33.5314 O.3     1  UNL1       -0.3823
     17 H           3.2110   -2.7104   32.8143 H       1  UNL1        0.2104
     18 C           5.1728   -0.6267   34.6395 C.3     1  UNL1        0.0291
     19 C           4.6919   -0.2730   36.0156 C.3     1  UNL1        0.0025
     20 C           5.6654    0.2117   37.0487 C.3     1  UNL1        0.0001
     21 C           7.1198    0.3427   36.7057 C.3     1  UNL1        0.0000
     22 C           7.6007   -0.0110   35.3296 C.3     1  UNL1        0.0001
     23 C           6.6271   -0.4958   34.2965 C.3     1  UNL1        0.0025
     24 C           3.4155    0.5348   28.7406 C.3     1  UNL1        0.0938
     25 C           2.9388   -0.6956   28.0271 C.3     1  UNL1        0.0215
     26 C           3.7063   -0.9535   25.5584 C.3     1  UNL1        0.0001
     27 C           3.8125   -1.3531   27.0003 C.3     1  UNL1        0.0018
     28 C           0.4638    4.7189   27.8571 C.3     1  UNL1        0.0992
     29 C          -0.9486    4.5157   27.3947 C.ar    1  UNL1       -0.0059
     30 C          -1.9372    5.6401   27.4874 C.ar    1  UNL1        0.0002
     31 C          -3.3496    5.4369   27.0250 C.ar    1  UNL1        0.0372
     32 C          -3.7734    4.1094   26.4699 C.ar    1  UNL1        0.1453
     33 C          -2.7849    2.9851   26.3772 C.ar    1  UNL1        0.0372
     34 C          -1.3725    3.1882   26.8396 C.ar    1  UNL1        0.0002
     35 O          -5.1858    3.9063   26.0075 O.3     1  UNL1       -0.4535
     36 C          -5.5142    3.9787   24.5457 C.ar    1  UNL1        0.1453
     37 C          -6.6149    4.8787   24.0680 C.ar    1  UNL1        0.0375
     38 C          -6.9433    4.9511   22.6061 C.ar    1  UNL1        0.0043
     39 C          -6.1709    4.1234   21.6221 C.ar    1  UNL1        0.0142
     40 C          -5.0701    3.2234   22.0998 C.ar    1  UNL1        0.0043
     41 C          -4.7418    3.1510   23.5616 C.ar    1  UNL1        0.0375
     42 C          -6.4993    4.1958   20.1602 C.2     1  UNL1        0.0729
     43 O          -5.8915    3.2115   19.2054 O.co2   1  UNL1       -0.5446
     44 O          -7.4354    5.2526   19.6532 O.co2   1  UNL1       -0.5446
@<TRIPOS>UNITY_ATOM_ATTR
43 1
charge -1
@<TRIPOS>BOND
     1    26    27    1
     2    27    25    1
     3    25    24    1
     4    24     1    1
     5     1     2   am
     6     2     3    2
     7     2     4    1
     8     4    15    1
     9    15    16    1
    10    15    18    1
    11    18    19    1
    12    19    20    1
    13    20    21    1
    14    21    22    1
    15    22    23    1
    16     4     5    1
    17     5     6   am
    18     6     7    2
    19     6     8    1
    20     8     9    1
    21     9    10    1
    22    10    11    1
    23    11    28    1
    24    28    29    1
    25    29    30   ar
    26    30    31   ar
    27    31    32   ar
    28    32    35    1
    29    35    36    1
    30    36    37   ar
    31    37    38   ar
    32    38    39   ar
    33    39    42    1
    34    42    43   ar
    35    42    44   ar
    36    39    40   ar
    37    40    41   ar
    38    32    33   ar
    39    33    34   ar
    40    11    12    1
    41    12    13    1
    42     8     1    1
    43    34    29   ar
    44    23    18    1
    45    13     8    1
    46    41    36   ar
    47    16    17    1
    48     5    14    1
@<TRIPOS>MOLECULE
*****
 44 48 0 0 0
SMALL
GASTEIGER

@<TRIPOS>ATOM
      1 N           2.3525    0.1472   20.1473 N.am    1  UNL1       -0.2733
      2 C           3.2385   -0.6603   19.2455 C.2     1  UNL1        0.2462
      3 O           3.1341   -0.5059   17.7572 O.2     1  UNL1       -0.2730
      4 C           4.2287   -1.6222   19.8322 C.3     1  UNL1        0.1759
      5 N           4.3331   -1.7766   21.3205 N.am    1  UNL1       -0.2951
      6 C           3.4472   -0.9692   22.2223 C.2     1  UNL1        0.2390
      7 O           3.5515   -1.1236   23.7107 O.2     1  UNL1       -0.2734
      8 C           2.4569   -0.0072   21.6357 C.3     1  UNL1        0.1314
      9 C           1.4666    0.9546   21.0490 C.3     1  UNL1        0.0445
     10 C           0.5807    1.7621   21.9508 C.3     1  UNL1        0.0745
     11 N           0.6851    1.6076   23.4392 N.3     1  UNL1       -0.2688
     12 C           1.6753    0.6457   24.0258 C.3     1  UNL1        0.0745
     13 C           2.5612   -0.1617   23.1241 C.3     1  UNL1        0.0445
     14 H           4.9830   -2.4079   21.7056 H       1  UNL1        0.1499
     15 C           5.1147   -2.4297   18.9304 C.3     1  UNL1        0.1372
     16 O           4.6353   -2.8238   17.5648 O.3     1  UNL1       -0.3823
     17 H           3.7396   -2.4790   17.4246 H       1  UNL1        0.2104
     18 C           6.4799   -2.8430   19.3943 C.3     1  UNL1        0.0291
     19 C           7.6981   -2.1720   18.8322 C.3     1  UNL1        0.0025
     20 C           9.0633   -2.5853   19.2961 C.3     1  UNL1        0.0001
     21 C           9.2105   -3.6697   20.3221 C.3     1  UNL1        0.0000
     22 C           7.9923   -4.3408   20.8841 C.3     1  UNL1        0.0001
     23 C           6.6270   -3.9274   20.4201 C.3     1  UNL1        0.0025
     24 C           1.3623    1.1091   19.5607 C.3     1  UNL1        0.0938
     25 C           1.8262    2.1850   18.6241 C.3     1  UNL1        0.0215
     26 C          -0.4918    3.3554   18.7085 C.3     1  UNL1        0.0001
     27 C           0.9744    3.3982   18.3948 C.3     1  UNL1        0.0018
     28 C          -0.2009    2.4151   24.3409 C.3     1  UNL1        0.0992
     29 C           0.0487    2.4306   25.8199 C.ar    1  UNL1       -0.0059
     30 C           1.0824    3.3519   26.3965 C.ar    1  UNL1        0.0002
     31 C           1.3320    3.3674   27.8756 C.ar    1  UNL1        0.0372
     32 C           0.5479    2.4614   28.7780 C.ar    1  UNL1        0.1453
     33 C          -0.4859    1.5400   28.2014 C.ar    1  UNL1        0.0372
     34 C          -0.7354    1.5246   26.7224 C.ar    1  UNL1        0.0002
     35 O           0.7975    2.4769   30.2569 O.3     1  UNL1       -0.4535
     36 C           1.7055    1.4554   30.8750 C.ar    1  UNL1        0.1453
     37 C           2.2764    1.6889   32.2423 C.ar    1  UNL1        0.0375
     38 C           3.1844    0.6674   32.8604 C.ar    1  UNL1        0.0043
     39 C           3.5215   -0.5877   32.1112 C.ar    1  UNL1        0.0142
     40 C           2.9505   -0.8213   30.7439 C.ar    1  UNL1        0.0043
     41 C           2.0425    0.2003   30.1258 C.ar    1  UNL1        0.0375
     42 C           4.4295   -1.6092   32.7293 C.2     1  UNL1        0.0729
     43 O           5.9007   -1.5789   32.4382 O.co2   1  UNL1       -0.5446
     44 O           3.8663   -2.6609   33.6385 O.co2   1  UNL1       -0.5446
@<TRIPOS>UNITY_ATOM_ATTR
43 1
charge -1
@<TRIPOS>BOND
     1    26    27    1
     2    27    25    1
     3    25    24    1
     4    24     1    1
     5     1     2   am
     6     2     3    2
     7     2     4    1
     8     4    15    1
     9    15    16    1
    10    15    18    1
    11    18    19    1
    12    19    20    1
    13    20    21    1
    14    21    22    1
    15    22    23    1
    16     4     5    1
    17     5     6   am
    18     6     7    2
    19     6     8    1
    20     8     9    1
    21     9    10    1
    22    10    11    1
    23    11    28    1
    24    28    29    1
    25    29    30   ar
    26    30    31   ar
    27    31    32   ar
    28    32    35    1
    29    35    36    1
    30    36    37   ar
    31    37    38   ar
    32    38    39   ar
    33    39    42    1
    34    42    43   ar
    35    42    44   ar
    36    39    40   ar
    37    40    41   ar
    38    32    33   ar
    39    33    34   ar
    40    11    12    1
    41    12    13    1
    42     8     1    1
    43    34    29   ar
    44    23    18    1
    45    13     8    1
    46    41    36   ar
    47    16    17    1
    48     5    14    1
@<TRIPOS>MOLECULE
*****
 44 48 0 0 0
SMALL
GASTEIGER

@<TRIPOS>ATOM
      1 N           3.8788    0.3940   33.5076 N.am    1  UNL1       -0.2733
      2 C           4.1886    0.5175   34.9701 C.2     1  UNL1        0.2462
      3 O           5.2187   -0.3749   35.5965 O.2     1  UNL1       -0.2730
      4 C           3.4681    1.5333   35.8062 C.3     1  UNL1        0.1759
      5 N           2.4380    2.4257   35.1798 N.am    1  UNL1       -0.2951
      6 C           2.1282    2.3023   33.7174 C.2     1  UNL1        0.2390
      7 O           1.0981    3.1947   33.0910 O.2     1  UNL1       -0.2734
      8 C           2.8487    1.2864   32.8812 C.3     1  UNL1        0.1314
      9 C           3.5691    0.2706   32.0452 C.3     1  UNL1        0.0445
     10 C           3.2594    0.1472   30.5827 C.3     1  UNL1        0.0745
     11 N           2.2292    1.0396   29.9563 N.3     1  UNL1       -0.2688
     12 C           1.5088    2.0554   30.7924 C.3     1  UNL1        0.0745
     13 C           1.8185    2.1788   32.2548 C.3     1  UNL1        0.0445
     14 H           1.9651    3.0925   35.7285 H       1  UNL1        0.1499
     15 C           3.7779    1.6568   37.2687 C.3     1  UNL1        0.1372
     16 O           5.1883    1.8972   37.7189 O.3     1  UNL1       -0.3823
     17 H           5.7708    1.9468   36.9449 H       1  UNL1        0.2104
     18 C           2.6771    1.5398   38.2809 C.3     1  UNL1        0.0291
     19 C           1.9237    2.7623   38.7144 C.3     1  UNL1        0.0025
     20 C           0.8230    2.6453   39.7266 C.3     1  UNL1        0.0001
     21 C           0.4756    1.3058   40.3054 C.3     1  UNL1        0.0000
     22 C           1.2290    0.0832   39.8720 C.3     1  UNL1        0.0001
     23 C           2.3298    0.2003   38.8597 C.3     1  UNL1        0.0025
     24 C           4.5993   -0.6218   32.6716 C.3     1  UNL1        0.0938
     25 C           4.6243   -2.0604   33.0955 C.3     1  UNL1        0.0215
     26 C           6.8465   -2.4521   31.8078 C.3     1  UNL1        0.0001
     27 C           5.6379   -2.9977   32.5089 C.3     1  UNL1        0.0018
     28 C           1.9195    0.9161   28.4938 C.3     1  UNL1        0.0992
     29 C           0.8181    1.7351   27.8887 C.ar    1  UNL1       -0.0059
     30 C           1.1126    3.0999   27.3404 C.ar    1  UNL1        0.0002
     31 C           0.0111    3.9188   26.7353 C.ar    1  UNL1        0.0372
     32 C          -1.3848    3.3729   26.6784 C.ar    1  UNL1        0.1453
     33 C          -1.6794    2.0081   27.2266 C.ar    1  UNL1        0.0372
     34 C          -0.5780    1.1892   27.8318 C.ar    1  UNL1        0.0002
     35 O          -2.4862    4.1918   26.0733 O.3     1  UNL1       -0.4535
     36 C          -2.8571    4.0020   24.6323 C.ar    1  UNL1        0.1453
     37 C          -1.8835    4.3709   23.5525 C.ar    1  UNL1        0.0375
     38 C          -2.2543    4.1811   22.1115 C.ar    1  UNL1        0.0043
     39 C          -3.5987    3.6225   21.7503 C.ar    1  UNL1        0.0142
     40 C          -4.5724    3.2536   22.8302 C.ar    1  UNL1        0.0043
     41 C          -4.2015    3.4434   24.2712 C.ar    1  UNL1        0.0375
     42 C          -3.9696    3.4327   20.3093 C.2     1  UNL1        0.0729
     43 O          -2.9182    3.5362   19.2444 O.co2   1  UNL1       -0.5446
     44 O          -5.3917    3.1394   19.9332 O.co2   1  UNL1       -0.5446
@<TRIPOS>UNITY_ATOM_ATTR
43 1
charge -1
@<TRIPOS>BOND
     1    26    27    1
     2    27    25    1
     3    25    24    1
     4    24     1    1
     5     1     2   am
     6     2     3    2
     7     2     4    1
     8     4    15    1
     9    15    16    1
    10    15    18    1
    11    18    19    1
    12    19    20    1
    13    20    21    1
    14    21    22    1
    15    22    23    1
    16     4     5    1
    17     5     6   am
    18     6     7    2
    19     6     8    1
    20     8     9    1
    21     9    10    1
    22    10    11    1
    23    11    28    1
    24    28    29    1
    25    29    30   ar
    26    30    31   ar
    27    31    32   ar
    28    32    35    1
    29    35    36    1
    30    36    37   ar
    31    37    38   ar
    32    38    39   ar
    33    39    42    1
    34    42    43   ar
    35    42    44   ar
    36    39    40   ar
    37    40    41   ar
    38    32    33   ar
    39    33    34   ar
    40    11    12    1
    41    12    13    1
    42     8     1    1
    43    34    29   ar
    44    23    18    1
    45    13     8    1
    46    41    36   ar
    47    16    17    1
    48     5    14    1
@<TRIPOS>MOLECULE
*****
 44 48 0 0 0
SMALL
GASTEIGER

@<TRIPOS>ATOM
      1 N           6.5920   -3.5172   23.8471 N.am    1  UNL1       -0.2733
      2 C           6.0653   -3.8094   22.4732 C.2     1  UNL1        0.2462
      3 O           6.8248   -4.7230   21.5575 O.2     1  UNL1       -0.2730
      4 C           4.7793   -3.1880   22.0152 C.3     1  UNL1        0.1759
      5 N           4.0198   -2.2744   22.9309 N.am    1  UNL1       -0.2951
      6 C           4.5464   -1.9822   24.3046 C.2     1  UNL1        0.2390
      7 O           3.7869   -1.0686   25.2203 O.2     1  UNL1       -0.2734
      8 C           5.8325   -2.6036   24.7628 C.3     1  UNL1        0.1314
      9 C           7.1185   -3.2250   25.2209 C.3     1  UNL1        0.0445
     10 C           7.6451   -2.9328   26.5946 C.3     1  UNL1        0.0745
     11 N           6.8856   -2.0192   27.5103 N.3     1  UNL1       -0.2688
     12 C           5.5995   -1.3978   27.0523 C.3     1  UNL1        0.0745
     13 C           5.0730   -1.6900   25.6785 C.3     1  UNL1        0.0445
     14 H           3.1757   -1.8665   22.6302 H       1  UNL1        0.1499
     15 C           4.2527   -3.4802   20.6413 C.3     1  UNL1        0.1372
     16 O           4.1015   -4.9002   20.1824 O.3     1  UNL1       -0.3823
     17 H           4.3865   -5.5004   20.8891 H       1  UNL1        0.2104
     18 C           3.8772   -2.3523   19.7265 C.3     1  UNL1        0.0291
     19 C           2.7525   -1.4306   20.0946 C.3     1  UNL1        0.0025
     20 C           2.3770   -0.3028   19.1798 C.3     1  UNL1        0.0001
     21 C           3.1263   -0.0966   17.8967 C.3     1  UNL1        0.0000
     22 C           4.2510   -1.0183   17.5286 C.3     1  UNL1        0.0001
     23 C           4.6265   -2.1461   18.4435 C.3     1  UNL1        0.0025
     24 C           7.8780   -4.1386   24.3052 C.3     1  UNL1        0.0938
     25 C           7.9224   -5.5953   24.6604 C.3     1  UNL1        0.0215
     26 C           9.2312   -7.4093   23.3389 C.3     1  UNL1        0.0001
     27 C           9.1774   -6.3847   24.4331 C.3     1  UNL1        0.0018
     28 C           7.4122   -1.7270   28.8842 C.3     1  UNL1        0.0992
     29 C           6.4604   -1.4296   30.0047 C.ar    1  UNL1       -0.0059
     30 C           6.0650   -2.5154   30.9611 C.ar    1  UNL1        0.0002
     31 C           5.1132   -2.2179   32.0816 C.ar    1  UNL1        0.0372
     32 C           4.5567   -0.8346   32.2457 C.ar    1  UNL1        0.1453
     33 C           4.9521    0.2512   31.2893 C.ar    1  UNL1        0.0372
     34 C           5.9039   -0.0463   30.1688 C.ar    1  UNL1        0.0002
     35 O           3.6049   -0.5372   33.3662 O.3     1  UNL1       -0.4535
     36 C           4.0995    0.1376   34.6112 C.ar    1  UNL1        0.1453
     37 C           5.0524   -0.5764   35.5233 C.ar    1  UNL1        0.0375
     38 C           5.5470    0.0985   36.7683 C.ar    1  UNL1        0.0043
     39 C           5.0886    1.4873   37.1012 C.ar    1  UNL1        0.0142
     40 C           4.1355    2.2014   36.1890 C.ar    1  UNL1        0.0043
     41 C           3.6410    1.5266   34.9440 C.ar    1  UNL1        0.0375
     42 C           5.5831    2.1622   38.3462 C.2     1  UNL1        0.0729
     43 O           4.7312    2.1759   39.5807 O.co2   1  UNL1       -0.5446
     44 O           6.9295    2.8232   38.3566 O.co2   1  UNL1       -0.5446
@<TRIPOS>UNITY_ATOM_ATTR
43 1
charge -1
@<TRIPOS>BOND
     1    26    27    1
     2    27    25    1
     3    25    24    1
     4    24     1    1
     5     1     2   am
     6     2     3    2
     7     2     4    1
     8     4    15    1
     9    15    16    1
    10    15    18    1
    11    18    19    1
    12    19    20    1
    13    20    21    1
    14    21    22    1
    15    22    23    1
    16     4     5    1
    17     5     6   am
    18     6     7    2
    19     6     8    1
    20     8     9    1
    21     9    10    1
    22    10    11    1
    23    11    28    1
    24    28    29    1
    25    29    30   ar
    26    30    31   ar
    27    31    32   ar
    28    32    35    1
    29    35    36    1
    30    36    37   ar
    31    37    38   ar
    32    38    39   ar
    33    39    42    1
    34    42    43   ar
    35    42    44   ar
    36    39    40   ar
    37    40    41   ar
    38    32    33   ar
    39    33    34   ar
    40    11    12    1
    41    12    13    1
    42     8     1    1
    43    34    29   ar
    44    23    18    1
    45    13     8    1
    46    41    36   ar
    47    16    17    1
    48     5    14    1
@<TRIPOS>MOLECULE
*****
 44 48 0 0 0
SMALL
GASTEIGER

@<TRIPOS>ATOM
      1 N           3.7281    0.1513   30.0189 N.am    1  UNL1       -0.2733
      2 C           4.2547   -0.6826   31.1491 C.2     1  UNL1        0.2462
      3 O           5.3037   -1.7226   30.8883 O.2     1  UNL1       -0.2730
      4 C           3.7323   -0.4766   32.5400 C.3     1  UNL1        0.1759
      5 N           2.6833    0.5634   32.8008 N.am    1  UNL1       -0.2951
      6 C           2.1567    1.3973   31.6707 C.2     1  UNL1        0.2390
      7 O           1.1077    2.4373   31.9315 O.2     1  UNL1       -0.2734
      8 C           2.6791    1.1913   30.2797 C.3     1  UNL1        0.1314
      9 C           3.2015    0.9853   28.8889 C.3     1  UNL1        0.0445
     10 C           2.6749    1.8193   27.7588 C.3     1  UNL1        0.0745
     11 N           1.6259    2.8592   28.0196 N.3     1  UNL1       -0.2688
     12 C           1.1035    3.0653   29.4105 C.3     1  UNL1        0.0745
     13 C           1.6301    2.2313   30.5405 C.3     1  UNL1        0.0445
     14 H           2.3404    0.6986   33.7137 H       1  UNL1        0.1499
     15 C           4.2589   -1.3106   33.6702 C.3     1  UNL1        0.1372
     16 O           3.7972   -2.7283   33.8346 O.3     1  UNL1       -0.3823
     17 H           3.1645   -2.9458   33.1323 H       1  UNL1        0.2104
     18 C           5.2472   -0.7269   34.6359 C.3     1  UNL1        0.0291
     19 C           6.6782   -0.5432   34.2253 C.3     1  UNL1        0.0025
     20 C           7.6665    0.0405   35.1910 C.3     1  UNL1        0.0001
     21 C           7.2238    0.4405   36.5673 C.3     1  UNL1        0.0000
     22 C           5.7928    0.2568   36.9778 C.3     1  UNL1        0.0001
     23 C           4.8045   -0.3270   36.0121 C.3     1  UNL1        0.0025
     24 C           4.2505   -0.0547   28.6281 C.3     1  UNL1        0.0938
     25 C           3.9917   -1.3479   27.9136 C.3     1  UNL1        0.0215
     26 C           4.8211   -0.3910   25.6450 C.3     1  UNL1        0.0001
     27 C           4.0137   -1.3940   26.4145 C.3     1  UNL1        0.0018
     28 C           1.0993    3.6932   26.8894 C.3     1  UNL1        0.0992
     29 C           1.2286    3.2083   25.4759 C.ar    1  UNL1       -0.0059
     30 C           2.3986    3.6360   24.6403 C.ar    1  UNL1        0.0002
     31 C           2.5279    3.1510   23.2267 C.ar    1  UNL1        0.0372
     32 C           1.4872    2.2385   22.6488 C.ar    1  UNL1        0.1453
     33 C           0.3171    1.8108   23.4843 C.ar    1  UNL1        0.0372
     34 C           0.1878    2.2957   24.8978 C.ar    1  UNL1        0.0002
     35 O           1.6165    1.7535   21.2352 O.3     1  UNL1       -0.4535
     36 C           2.3016    0.4502   20.9491 C.ar    1  UNL1        0.1453
     37 C           2.4836   -0.0062   19.5319 C.ar    1  UNL1        0.0375
     38 C           3.1687   -1.3096   19.2458 C.ar    1  UNL1        0.0043
     39 C           3.6720   -2.1565   20.3770 C.ar    1  UNL1        0.0142
     40 C           3.4900   -1.7001   21.7943 C.ar    1  UNL1        0.0043
     41 C           2.8049   -0.3967   22.0803 C.ar    1  UNL1        0.0375
     42 C           4.3571   -3.4598   20.0909 C.2     1  UNL1        0.0729
     43 O           4.7128   -3.8264   18.6804 O.co2   1  UNL1       -0.5446
     44 O           4.6866   -4.3965   21.2151 O.co2   1  UNL1       -0.5446
@<TRIPOS>UNITY_ATOM_ATTR
43 1
charge -1
@<TRIPOS>BOND
     1    26    27    1
     2    27    25    1
     3    25    24    1
     4    24     1    1
     5     1     2   am
     6     2     3    2
     7     2     4    1
     8     4    15    1
     9    15    16    1
    10    15    18    1
    11    18    19    1
    12    19    20    1
    13    20    21    1
    14    21    22    1
    15    22    23    1
    16     4     5    1
    17     5     6   am
    18     6     7    2
    19     6     8    1
    20     8     9    1
    21     9    10    1
    22    10    11    1
    23    11    28    1
    24    28    29    1
    25    29    30   ar
    26    30    31   ar
    27    31    32   ar
    28    32    35    1
    29    35    36    1
    30    36    37   ar
    31    37    38   ar
    32    38    39   ar
    33    39    42    1
    34    42    43   ar
    35    42    44   ar
    36    39    40   ar
    37    40    41   ar
    38    32    33   ar
    39    33    34   ar
    40    11    12    1
    41    12    13    1
    42     8     1    1
    43    34    29   ar
    44    23    18    1
    45    13     8    1
    46    41    36   ar
    47    16    17    1
    48     5    14    1
