@<TRIPOS>MOLECULE
*****
 47 53 0 0 0
SMALL
GASTEIGER

@<TRIPOS>ATOM
      1 N           5.9134   -2.4832   27.8464 N.ar    1  UNL1       -0.2359
      2 N           5.8566   -1.5185   28.9936 N.ar    1  UNL1       -0.1682
      3 C           6.3451   -2.2288   30.2211 C.ar    1  UNL1        0.1030
      4 C           6.7038   -3.6325   29.8325 C.ar    1  UNL1        0.0857
      5 C           7.2389   -4.7878   30.6255 C.ar    1  UNL1        0.1316
      6 N           7.5058   -4.6307   32.0931 N.pl3   1  UNL1       -0.3425
      7 N           7.5072   -6.1004   29.9507 N.ar    1  UNL1       -0.2093
      8 C           7.2404   -6.2575   28.4831 C.ar    1  UNL1        0.2014
      9 N           6.7053   -5.1022   27.6901 N.ar    1  UNL1       -0.2050
     10 C           6.4370   -3.7897   28.3648 C.ar    1  UNL1        0.1652
     11 H           7.3297   -3.7692   32.5360 H       1  UNL1        0.1437
     12 H           7.8570   -5.3890   32.6136 H       1  UNL1        0.1437
     13 C           6.4556   -1.6390   31.5958 C.2     1  UNL1        0.0059
     14 C           7.7971   -1.2402   32.1353 C.2     1  UNL1        0.0017
     15 C           7.9076   -0.6504   33.5101 C.2     1  UNL1        0.0499
     16 C           6.6764   -0.4595   34.3454 C.2     1  UNL1        0.2317
     17 N           6.4756    0.0924   35.7256 N.2     1  UNL1       -0.0347
     18 C           5.0099    0.0347   36.0392 C.2     1  UNL1        0.3557
     19 N           4.3048   -0.5529   34.8528 N.2     1  UNL1       -0.0385
     20 C           5.3348   -0.8583   33.8060 C.2     1  UNL1        0.2175
     21 C           5.2243   -1.4481   32.4312 C.3     1  UNL1        0.1056
     22 C           4.3628    0.4854   37.3151 C.3     1  UNL1        0.1531
     23 C           3.4162    1.6490   37.3058 C.ar    1  UNL1        0.0242
     24 C           3.4490    2.6335   36.1746 C.ar    1  UNL1       -0.0007
     25 C           2.5025    3.7971   36.1653 C.ar    1  UNL1       -0.0001
     26 C           1.5231    3.9762   37.2872 C.ar    1  UNL1        0.0031
     27 C           1.4903    2.9917   38.4184 C.ar    1  UNL1        0.0366
     28 C           2.4369    1.8281   38.4278 C.ar    1  UNL1        0.1353
     29 O           2.4040    0.8437   39.5590 O.3     1  UNL1       -0.4717
     30 C           1.2508   -0.1061   39.6935 C.3     1  UNL1        0.2525
     31 C           4.7220   -1.6108   23.5955 C.3     1  UNL1        0.0577
     32 C           3.9045   -1.0679   24.7300 C.3     1  UNL1        0.0179
     33 C           4.3016   -1.3587   26.1469 C.3     1  UNL1        0.0258
     34 C           5.5163   -2.1924   26.4294 C.3     1  UNL1        0.1069
     35 C           6.3337   -2.7351   25.2949 C.3     1  UNL1        0.0258
     36 C           5.9366   -2.4444   23.8780 C.3     1  UNL1        0.0179
     37 N           3.5307   -0.7385   19.3446 N.3     1  UNL1       -0.2702
     38 C           3.5255    0.3604   20.3655 C.3     1  UNL1        0.0897
     39 C           3.9226    0.0697   21.7825 C.3     1  UNL1        0.0896
     40 N           4.3249   -1.3200   22.1785 N.3     1  UNL1       -0.2716
     41 C           4.3301   -2.4190   21.1577 C.3     1  UNL1        0.0896
     42 C           3.9330   -2.1283   19.7407 C.3     1  UNL1        0.0897
     43 C           3.1336   -0.4478   17.9277 C.3     1  UNL1        0.0748
     44 C           4.1450   -0.5650   16.8262 C.3     1  UNL1        0.0494
     45 C           5.5364   -0.0416   17.0268 C.3     1  UNL1        0.1437
     46 C           7.3332   -1.2258   18.4824 C.3     1  UNL1        0.1741
     47 O           6.6867   -0.9966   17.1484 O.3     1  UNL1       -0.3511
@<TRIPOS>BOND
     1    46    47    1
     2    47    45    1
     3    45    44    1
     4    44    43    1
     5    43    37    1
     6    37    38    1
     7    38    39    1
     8    39    40    1
     9    31    40    1
    10    31    32    1
    11    32    33    1
    12    33    34    1
    13    34     1    1
    14     1     2   ar
    15     2     3   ar
    16     3    13    1
    17    13    14    2
    18    14    15    1
    19    15    16    2
    20    16    17    1
    21    17    18    2
    22    18    22    1
    23    22    23    1
    24    23    24   ar
    25    24    25   ar
    26    25    26   ar
    27    26    27   ar
    28    27    28   ar
    29    28    29    1
    30    29    30    1
    31    18    19    1
    32    19    20    2
    33    20    21    1
    34     3     4   ar
    35     4     5   ar
    36     5     6    1
    37     5     7   ar
    38     7     8   ar
    39     8     9   ar
    40     9    10   ar
    41    34    35    1
    42    35    36    1
    43    40    41    1
    44    41    42    1
    45    42    37    1
    46    36    31    1
    47    10     1   ar
    48    21    13    1
    49    10     4   ar
    50    20    16    1
    51    28    23   ar
    52     6    11    1
    53     6    12    1
@<TRIPOS>MOLECULE
*****
 47 53 0 0 0
SMALL
GASTEIGER

@<TRIPOS>ATOM
      1 N           6.7100   -2.7515   29.8342 N.ar    1  UNL1       -0.2359
      2 N           6.4482   -2.3082   28.4254 N.ar    1  UNL1       -0.1682
      3 C           7.0419   -3.3289   27.5004 C.ar    1  UNL1        0.1030
      4 C           7.6706   -4.4031   28.3376 C.ar    1  UNL1        0.0857
      5 C           8.4034   -5.6601   27.9728 C.ar    1  UNL1        0.1316
      6 N           8.6085   -6.0169   26.5304 N.pl3   1  UNL1       -0.3425
      7 N           8.9311   -6.5601   29.0504 N.ar    1  UNL1       -0.2093
      8 C           8.7260   -6.2033   30.4929 C.ar    1  UNL1        0.2014
      9 N           7.9932   -4.9463   30.8576 N.ar    1  UNL1       -0.2050
     10 C           7.4655   -4.0462   29.7800 C.ar    1  UNL1        0.1652
     11 H           8.2621   -5.4262   25.8231 H       1  UNL1        0.1437
     12 H           9.0894   -6.8419   26.2910 H       1  UNL1        0.1437
     13 C           7.0120   -3.2835   26.0014 C.2     1  UNL1        0.0059
     14 C           8.2760   -3.0340   25.2333 C.2     1  UNL1        0.0017
     15 C           8.2462   -2.9886   23.7342 C.2     1  UNL1        0.0499
     16 C           6.9523   -3.1927   23.0033 C.2     1  UNL1        0.2317
     17 N           6.6161   -3.2028   21.5415 N.2     1  UNL1       -0.0347
     18 C           5.1443   -3.4585   21.4061 C.2     1  UNL1        0.3557
     19 N           4.5709   -3.6065   22.7843 N.2     1  UNL1       -0.0385
     20 C           5.6883   -3.4423   23.7714 C.2     1  UNL1        0.2175
     21 C           5.7181   -3.4877   25.2704 C.3     1  UNL1        0.1056
     22 C           4.3800   -3.5501   20.1188 C.3     1  UNL1        0.1531
     23 C           3.8139   -2.3102   19.4927 C.ar    1  UNL1        0.0242
     24 C           2.6460   -1.6154   20.1278 C.ar    1  UNL1       -0.0007
     25 C           2.0799   -0.3754   19.5016 C.ar    1  UNL1       -0.0001
     26 C           2.6817    0.1697   18.2404 C.ar    1  UNL1        0.0031
     27 C           3.8495   -0.5250   17.6053 C.ar    1  UNL1        0.0366
     28 C           4.4157   -1.7650   18.2315 C.ar    1  UNL1        0.1353
     29 O           5.5835   -2.4597   17.5963 O.3     1  UNL1       -0.4717
     30 C           6.9812   -2.1149   18.0177 C.3     1  UNL1        0.2525
     31 C           5.4503   -0.5787   33.5682 C.3     1  UNL1        0.0577
     32 C           6.3230    0.1074   32.5595 C.3     1  UNL1        0.0179
     33 C           6.7429   -0.6168   31.3148 C.3     1  UNL1        0.0258
     34 C           6.2901   -2.0273   31.0789 C.3     1  UNL1        0.1069
     35 C           5.4174   -2.7134   32.0876 C.3     1  UNL1        0.0258
     36 C           4.9975   -1.9891   33.3322 C.3     1  UNL1        0.0179
     37 N           4.1906    1.5939   37.3022 N.3     1  UNL1       -0.2702
     38 C           3.5376    1.9159   35.9908 C.3     1  UNL1        0.0897
     39 C           3.9575    1.1917   34.7460 C.3     1  UNL1        0.0896
     40 N           5.0304    0.1455   34.8128 N.3     1  UNL1       -0.2716
     41 C           5.6833   -0.1765   36.1243 C.3     1  UNL1        0.0896
     42 C           5.2635    0.5477   37.3690 C.3     1  UNL1        0.0897
     43 C           3.7707    2.3181   38.5468 C.3     1  UNL1        0.0748
     44 C           2.4571    3.0411   38.5868 C.3     1  UNL1        0.0494
     45 C           1.2656    2.3967   39.2311 C.3     1  UNL1        0.1437
     46 C           1.1138   -0.1687   39.6124 C.3     1  UNL1        0.1741
     47 O           0.8101    1.0410   38.7790 O.3     1  UNL1       -0.3511
@<TRIPOS>BOND
     1    46    47    1
     2    47    45    1
     3    45    44    1
     4    44    43    1
     5    43    37    1
     6    37    38    1
     7    38    39    1
     8    39    40    1
     9    31    40    1
    10    31    32    1
    11    32    33    1
    12    33    34    1
    13    34     1    1
    14     1     2   ar
    15     2     3   ar
    16     3    13    1
    17    13    14    2
    18    14    15    1
    19    15    16    2
    20    16    17    1
    21    17    18    2
    22    18    22    1
    23    22    23    1
    24    23    24   ar
    25    24    25   ar
    26    25    26   ar
    27    26    27   ar
    28    27    28   ar
    29    28    29    1
    30    29    30    1
    31    18    19    1
    32    19    20    2
    33    20    21    1
    34     3     4   ar
    35     4     5   ar
    36     5     6    1
    37     5     7   ar
    38     7     8   ar
    39     8     9   ar
    40     9    10   ar
    41    34    35    1
    42    35    36    1
    43    40    41    1
    44    41    42    1
    45    42    37    1
    46    36    31    1
    47    10     1   ar
    48    21    13    1
    49    10     4   ar
    50    20    16    1
    51    28    23   ar
    52     6    11    1
    53     6    12    1
@<TRIPOS>MOLECULE
*****
 47 53 0 0 0
SMALL
GASTEIGER

@<TRIPOS>ATOM
      1 N          -0.3831    3.1864   26.6245 N.ar    1  UNL1       -0.2359
      2 N           0.5227    2.9539   25.4517 N.ar    1  UNL1       -0.1682
      3 C          -0.3071    3.0236   24.2042 C.ar    1  UNL1        0.1030
      4 C          -1.7258    3.2992   24.6059 C.ar    1  UNL1        0.0857
      5 C          -2.9810    3.4715   23.8029 C.ar    1  UNL1        0.1316
      6 N          -2.9340    3.3709   22.3070 N.pl3   1  UNL1       -0.3425
      7 N          -4.2830    3.7445   24.4957 N.ar    1  UNL1       -0.2093
      8 C          -4.3300    3.8451   25.9916 C.ar    1  UNL1        0.2014
      9 N          -3.0748    3.6728   26.7946 N.ar    1  UNL1       -0.2050
     10 C          -1.7728    3.3998   26.1018 C.ar    1  UNL1        0.1652
     11 H          -2.0794    3.1918   21.8522 H       1  UNL1        0.1437
     12 H          -3.7578    3.4840   21.7799 H       1  UNL1        0.1437
     13 C           0.1937    2.8485   22.8011 C.2     1  UNL1        0.0059
     14 C           0.1984    4.0128   21.8556 C.2     1  UNL1        0.0017
     15 C           0.6992    3.8376   20.4525 C.2     1  UNL1        0.0499
     16 C           1.1954    2.4981   19.9951 C.2     1  UNL1        0.2317
     17 N           1.7444    2.0262   18.6813 N.2     1  UNL1       -0.0347
     18 C           2.0790    0.5701   18.8149 C.2     1  UNL1        0.3557
     19 N           1.7369    0.1421   20.2113 N.2     1  UNL1       -0.0385
     20 C           1.1908    1.3337   20.9406 C.2     1  UNL1        0.2175
     21 C           0.6900    1.5088   22.3437 C.3     1  UNL1        0.1056
     22 C           2.6547   -0.3044   17.7409 C.3     1  UNL1        0.1531
     23 C           4.0681   -0.7946   17.8501 C.ar    1  UNL1        0.0242
     24 C           5.1915    0.0240   17.2863 C.ar    1  UNL1       -0.0007
     25 C           6.6049   -0.4663   17.3954 C.ar    1  UNL1       -0.0001
     26 C           6.8950   -1.7750   18.0684 C.ar    1  UNL1        0.0031
     27 C           5.7716   -2.5936   18.6323 C.ar    1  UNL1        0.0366
     28 C           4.3581   -2.1034   18.5231 C.ar    1  UNL1        0.1353
     29 O           3.2348   -2.9220   19.0869 O.3     1  UNL1       -0.4717
     30 C           3.3598   -4.4148   19.1639 C.3     1  UNL1        0.2525
     31 C           0.8517    3.2353   30.9516 C.3     1  UNL1        0.0577
     32 C           0.6952    4.5249   30.2017 C.3     1  UNL1        0.0179
     33 C           0.2837    4.5087   28.7593 C.3     1  UNL1        0.0258
     34 C           0.0285    3.2027   28.0669 C.3     1  UNL1        0.1069
     35 C           0.1849    1.9131   28.8168 C.3     1  UNL1        0.0258
     36 C           0.5965    1.9294   30.2591 C.3     1  UNL1        0.0179
     37 N           2.0863    3.2842   35.2786 N.3     1  UNL1       -0.2702
     38 C           2.4305    2.1080   34.4137 C.3     1  UNL1        0.0897
     39 C           2.0190    2.0916   32.9713 C.3     1  UNL1        0.0896
     40 N           1.2633    3.2516   32.3939 N.3     1  UNL1       -0.2716
     41 C           0.9191    4.4278   33.2587 C.3     1  UNL1        0.0896
     42 C           1.3306    4.4441   34.7011 C.3     1  UNL1        0.0897
     43 C           2.4979    3.3004   36.7209 C.3     1  UNL1        0.0748
     44 C           1.4756    3.5502   37.7898 C.3     1  UNL1        0.0494
     45 C           1.2524    2.5306   38.8671 C.3     1  UNL1        0.1437
     46 C           1.1574    0.0405   39.6021 C.3     1  UNL1        0.1741
     47 O           1.1666    1.0748   38.5157 O.3     1  UNL1       -0.3511
@<TRIPOS>BOND
     1    46    47    1
     2    47    45    1
     3    45    44    1
     4    44    43    1
     5    43    37    1
     6    37    38    1
     7    38    39    1
     8    39    40    1
     9    31    40    1
    10    31    32    1
    11    32    33    1
    12    33    34    1
    13    34     1    1
    14     1     2   ar
    15     2     3   ar
    16     3    13    1
    17    13    14    2
    18    14    15    1
    19    15    16    2
    20    16    17    1
    21    17    18    2
    22    18    22    1
    23    22    23    1
    24    23    24   ar
    25    24    25   ar
    26    25    26   ar
    27    26    27   ar
    28    27    28   ar
    29    28    29    1
    30    29    30    1
    31    18    19    1
    32    19    20    2
    33    20    21    1
    34     3     4   ar
    35     4     5   ar
    36     5     6    1
    37     5     7   ar
    38     7     8   ar
    39     8     9   ar
    40     9    10   ar
    41    34    35    1
    42    35    36    1
    43    40    41    1
    44    41    42    1
    45    42    37    1
    46    36    31    1
    47    10     1   ar
    48    21    13    1
    49    10     4   ar
    50    20    16    1
    51    28    23   ar
    52     6    11    1
    53     6    12    1
@<TRIPOS>MOLECULE
*****
 47 53 0 0 0
SMALL
GASTEIGER

@<TRIPOS>ATOM
      1 N           6.5955   -2.6405   30.0859 N.ar    1  UNL1       -0.2359
      2 N           6.5746   -2.1594   28.6653 N.ar    1  UNL1       -0.1682
      3 C           7.1926   -3.2228   27.8066 C.ar    1  UNL1        0.1030
      4 C           7.5954   -4.3611   28.6966 C.ar    1  UNL1        0.0857
      5 C           8.2505   -5.6789   28.4062 C.ar    1  UNL1        0.1316
      6 N           8.6195   -6.0388   26.9975 N.pl3   1  UNL1       -0.3425
      7 N           8.5367   -6.6367   29.5245 N.ar    1  UNL1       -0.2093
      8 C           8.1676   -6.2768   30.9332 C.ar    1  UNL1        0.2014
      9 N           7.5125   -4.9591   31.2235 N.ar    1  UNL1       -0.2050
     10 C           7.2264   -4.0013   30.1052 C.ar    1  UNL1        0.1652
     11 H           8.4317   -5.4101   26.2636 H       1  UNL1        0.1437
     12 H           9.0495   -6.9037   26.8070 H       1  UNL1        0.1437
     13 C           7.3756   -3.1591   26.3192 C.2     1  UNL1        0.0059
     14 C           8.7061   -2.7752   25.7430 C.2     1  UNL1        0.0017
     15 C           8.8892   -2.7115   24.2556 C.2     1  UNL1        0.0499
     16 C           7.7416   -3.0318   23.3443 C.2     1  UNL1        0.2317
     17 N           7.6231   -3.0540   21.8492 N.2     1  UNL1       -0.0347
     18 C           6.2192   -3.4517   21.5013 C.2     1  UNL1        0.3557
     19 N           5.4701   -3.6753   22.7814 N.2     1  UNL1       -0.0385
     20 C           6.4109   -3.4157   23.9205 C.2     1  UNL1        0.2175
     21 C           6.2279   -3.4794   25.4079 C.3     1  UNL1        0.1056
     22 C           5.6623   -3.5998   20.1165 C.3     1  UNL1        0.1531
     23 C           5.5092   -2.3946   19.2367 C.ar    1  UNL1        0.0242
     24 C           6.6184   -1.9982   18.3080 C.ar    1  UNL1       -0.0007
     25 C           6.4653   -0.7930   17.4282 C.ar    1  UNL1       -0.0001
     26 C           5.2030    0.0158   17.4770 C.ar    1  UNL1        0.0031
     27 C           4.0938   -0.3807   18.4057 C.ar    1  UNL1        0.0366
     28 C           4.2469   -1.5859   19.2855 C.ar    1  UNL1        0.1353
     29 O           3.1376   -1.9822   20.2141 O.3     1  UNL1       -0.4717
     30 C           2.8901   -1.1943   21.4663 C.3     1  UNL1        0.2525
     31 C           5.0389   -0.3958   33.6620 C.3     1  UNL1        0.0577
     32 C           4.7987   -1.8714   33.5399 C.3     1  UNL1        0.0179
     33 C           5.3175   -2.6196   32.3479 C.3     1  UNL1        0.0258
     34 C           6.0767   -1.8922   31.2779 C.3     1  UNL1        0.1069
     35 C           6.3168   -0.4167   31.4000 C.3     1  UNL1        0.0258
     36 C           5.7979    0.3315   32.5920 C.3     1  UNL1        0.0179
     37 N           3.4822    1.8490   37.2379 N.3     1  UNL1       -0.2702
     38 C           4.3990    0.6773   37.4288 C.3     1  UNL1        0.0897
     39 C           4.9179   -0.0710   36.2368 C.3     1  UNL1        0.0896
     40 N           4.5200    0.3525   34.8540 N.3     1  UNL1       -0.2716
     41 C           3.6032    1.5242   34.6631 C.3     1  UNL1        0.0896
     42 C           3.0843    2.2725   35.8550 C.3     1  UNL1        0.0897
     43 C           2.9633    2.5973   38.4299 C.3     1  UNL1        0.0748
     44 C           1.5433    3.0799   38.4526 C.3     1  UNL1        0.0494
     45 C           0.4982    2.3010   39.1950 C.3     1  UNL1        0.1437
     46 C           1.1332   -0.1665   39.7033 C.3     1  UNL1        0.1741
     47 O           0.3266    0.8345   38.9303 O.3     1  UNL1       -0.3511
@<TRIPOS>BOND
     1    46    47    1
     2    47    45    1
     3    45    44    1
     4    44    43    1
     5    43    37    1
     6    37    38    1
     7    38    39    1
     8    39    40    1
     9    31    40    1
    10    31    32    1
    11    32    33    1
    12    33    34    1
    13    34     1    1
    14     1     2   ar
    15     2     3   ar
    16     3    13    1
    17    13    14    2
    18    14    15    1
    19    15    16    2
    20    16    17    1
    21    17    18    2
    22    18    22    1
    23    22    23    1
    24    23    24   ar
    25    24    25   ar
    26    25    26   ar
    27    26    27   ar
    28    27    28   ar
    29    28    29    1
    30    29    30    1
    31    18    19    1
    32    19    20    2
    33    20    21    1
    34     3     4   ar
    35     4     5   ar
    36     5     6    1
    37     5     7   ar
    38     7     8   ar
    39     8     9   ar
    40     9    10   ar
    41    34    35    1
    42    35    36    1
    43    40    41    1
    44    41    42    1
    45    42    37    1
    46    36    31    1
    47    10     1   ar
    48    21    13    1
    49    10     4   ar
    50    20    16    1
    51    28    23   ar
    52     6    11    1
    53     6    12    1
@<TRIPOS>MOLECULE
*****
 47 53 0 0 0
SMALL
GASTEIGER

@<TRIPOS>ATOM
      1 N          -3.5533    3.8947   23.5452 N.ar    1  UNL1       -0.2359
      2 N          -2.8743    3.7433   22.2163 N.ar    1  UNL1       -0.1682
      3 C          -1.4525    3.3358   22.4662 C.ar    1  UNL1        0.1030
      4 C          -1.2528    3.2353   23.9494 C.ar    1  UNL1        0.0857
      5 C          -0.0565    2.8739   24.7789 C.ar    1  UNL1        0.1316
      6 N           1.2420    2.5285   24.1120 N.pl3   1  UNL1       -0.3425
      7 N          -0.1585    2.8579   26.2753 N.ar    1  UNL1       -0.2093
      8 C          -1.4570    3.2033   26.9422 C.ar    1  UNL1        0.2014
      9 N          -2.6533    3.5647   26.1127 N.ar    1  UNL1       -0.2050
     10 C          -2.5512    3.5807   24.6163 C.ar    1  UNL1        0.1652
     11 H           1.3090    2.5390   23.1298 H       1  UNL1        0.1437
     12 H           2.0272    2.2913   24.6564 H       1  UNL1        0.1437
     13 C          -0.4128    3.0746   21.4169 C.2     1  UNL1        0.0059
     14 C           0.3582    4.2166   20.8244 C.2     1  UNL1        0.0017
     15 C           1.3979    3.9555   19.7751 C.2     1  UNL1        0.0499
     16 C           1.6665    2.5522   19.3184 C.2     1  UNL1        0.2317
     17 N           2.6232    1.9911   18.3085 N.2     1  UNL1       -0.0347
     18 C           2.4434    0.5023   18.2768 C.2     1  UNL1        0.3557
     19 N           1.3757    0.1432   19.2672 N.2     1  UNL1       -0.0385
     20 C           0.8955    1.4101   19.9110 C.2     1  UNL1        0.2175
     21 C          -0.1441    1.6712   20.9602 C.3     1  UNL1        0.1056
     22 C           3.1987   -0.4587   17.4074 C.3     1  UNL1        0.1531
     23 C           4.5596   -0.9345   17.8215 C.ar    1  UNL1        0.0242
     24 C           5.7630   -0.0746   17.5714 C.ar    1  UNL1       -0.0007
     25 C           7.1239   -0.5504   17.9855 C.ar    1  UNL1       -0.0001
     26 C           7.2815   -1.8860   18.6498 C.ar    1  UNL1        0.0031
     27 C           6.0782   -2.7458   18.9000 C.ar    1  UNL1        0.0366
     28 C           4.7172   -2.2701   18.4858 C.ar    1  UNL1        0.1353
     29 O           3.5139   -3.1299   18.7361 O.3     1  UNL1       -0.4717
     30 C           3.6810   -4.5040   19.3141 C.3     1  UNL1        0.2525
     31 C          -7.8437    5.0821   24.2031 C.3     1  UNL1        0.0577
     32 C          -7.4656    4.2746   22.9970 C.3     1  UNL1        0.0179
     33 C          -6.0354    3.8788   22.7776 C.3     1  UNL1        0.0258
     34 C          -4.9834    4.2905   23.7646 C.3     1  UNL1        0.1069
     35 C          -5.3617    5.0980   24.9707 C.3     1  UNL1        0.0258
     36 C          -6.7918    5.4938   25.1900 C.3     1  UNL1        0.0179
     37 N         -12.1340    6.2697   24.8611 N.3     1  UNL1       -0.2702
     38 C         -11.7427    4.8221   24.8965 C.3     1  UNL1        0.0897
     39 C         -10.3125    4.4262   24.6772 C.3     1  UNL1        0.0896
     40 N          -9.2738    5.4780   24.4225 N.3     1  UNL1       -0.2716
     41 C          -9.6651    6.9256   24.3871 C.3     1  UNL1        0.0896
     42 C         -11.0953    7.3215   24.6064 C.3     1  UNL1        0.0897
     43 C         -13.5641    6.6656   25.0804 C.3     1  UNL1        0.0748
     44 C         -14.4805    6.8470   23.9069 C.3     1  UNL1        0.0494
     45 C         -13.9643    6.6422   22.5135 C.3     1  UNL1        0.1437
     46 C         -15.1166    4.4483   21.7331 C.3     1  UNL1        0.1741
     47 O         -13.8713    5.2576   21.9441 O.3     1  UNL1       -0.3511
@<TRIPOS>BOND
     1    46    47    1
     2    47    45    1
     3    45    44    1
     4    44    43    1
     5    43    37    1
     6    37    38    1
     7    38    39    1
     8    39    40    1
     9    31    40    1
    10    31    32    1
    11    32    33    1
    12    33    34    1
    13    34     1    1
    14     1     2   ar
    15     2     3   ar
    16     3    13    1
    17    13    14    2
    18    14    15    1
    19    15    16    2
    20    16    17    1
    21    17    18    2
    22    18    22    1
    23    22    23    1
    24    23    24   ar
    25    24    25   ar
    26    25    26   ar
    27    26    27   ar
    28    27    28   ar
    29    28    29    1
    30    29    30    1
    31    18    19    1
    32    19    20    2
    33    20    21    1
    34     3     4   ar
    35     4     5   ar
    36     5     6    1
    37     5     7   ar
    38     7     8   ar
    39     8     9   ar
    40     9    10   ar
    41    34    35    1
    42    35    36    1
    43    40    41    1
    44    41    42    1
    45    42    37    1
    46    36    31    1
    47    10     1   ar
    48    21    13    1
    49    10     4   ar
    50    20    16    1
    51    28    23   ar
    52     6    11    1
    53     6    12    1
@<TRIPOS>MOLECULE
*****
 47 53 0 0 0
SMALL
GASTEIGER

@<TRIPOS>ATOM
      1 N          -3.4820    3.8581   23.5027 N.ar    1  UNL1       -0.2359
      2 N          -2.8105    3.6958   22.1713 N.ar    1  UNL1       -0.1682
      3 C          -1.3794    3.3196   22.4168 C.ar    1  UNL1        0.1030
      4 C          -1.1664    3.2494   23.8999 C.ar    1  UNL1        0.0857
      5 C           0.0430    2.9255   24.7260 C.ar    1  UNL1        0.1316
      6 N           1.3425    2.5926   24.0548 N.pl3   1  UNL1       -0.3425
      7 N          -0.0472    2.9343   26.2232 N.ar    1  UNL1       -0.2093
      8 C          -1.3467    3.2672   26.8944 C.ar    1  UNL1        0.2014
      9 N          -2.5561    3.5911   26.0683 N.ar    1  UNL1       -0.2050
     10 C          -2.4659    3.5823   24.5711 C.ar    1  UNL1        0.1652
     11 H           1.4017    2.5868   23.0721 H       1  UNL1        0.1437
     12 H           2.1363    2.3800   24.5970 H       1  UNL1        0.1437
     13 C          -0.3431    3.0593   21.3640 C.2     1  UNL1        0.0059
     14 C           0.3328    4.2083   20.6765 C.2     1  UNL1        0.0017
     15 C           1.3690    3.9480   19.6237 C.2     1  UNL1        0.0499
     16 C           1.7294    2.5385   19.2583 C.2     1  UNL1        0.2317
     17 N           2.7051    1.9767   18.2672 N.2     1  UNL1       -0.0347
     18 C           2.6323    0.4804   18.3421 C.2     1  UNL1        0.3557
     19 N           1.6115    0.1174   19.3796 N.2     1  UNL1       -0.0385
     20 C           1.0535    1.3894   19.9458 C.2     1  UNL1        0.2175
     21 C           0.0173    1.6497   20.9986 C.3     1  UNL1        0.1056
     22 C           3.4386   -0.4837   17.5235 C.3     1  UNL1        0.1531
     23 C           4.2506   -1.5472   18.2014 C.ar    1  UNL1        0.0242
     24 C           3.5943   -2.4935   19.1625 C.ar    1  UNL1       -0.0007
     25 C           4.4063   -3.5570   19.8404 C.ar    1  UNL1       -0.0001
     26 C           5.8747   -3.6743   19.5572 C.ar    1  UNL1        0.0031
     27 C           6.5310   -2.7280   18.5960 C.ar    1  UNL1        0.0366
     28 C           5.7189   -1.6645   17.9181 C.ar    1  UNL1        0.1353
     29 O           6.3753   -0.7183   16.9569 O.3     1  UNL1       -0.4717
     30 C           6.9827    0.5584   17.4580 C.3     1  UNL1        0.2525
     31 C          -7.7889    4.9765   24.1743 C.3     1  UNL1        0.0577
     32 C          -6.7505    5.3467   25.1914 C.3     1  UNL1        0.0179
     33 C          -5.3149    4.9740   24.9676 C.3     1  UNL1        0.0258
     34 C          -4.9176    4.2309   23.7265 C.3     1  UNL1        0.1069
     35 C          -5.9560    3.8607   22.7094 C.3     1  UNL1        0.0258
     36 C          -7.3916    4.2335   22.9332 C.3     1  UNL1        0.0179
     37 N         -12.0956    6.0946   24.8457 N.3     1  UNL1       -0.2702
     38 C         -11.0784    7.1614   24.5679 C.3     1  UNL1        0.0897
     39 C          -9.6428    6.7887   24.3441 C.3     1  UNL1        0.0896
     40 N          -9.2245    5.3492   24.3981 N.3     1  UNL1       -0.2716
     41 C         -10.2417    4.2825   24.6759 C.3     1  UNL1        0.0896
     42 C         -11.6773    4.6551   24.8997 C.3     1  UNL1        0.0897
     43 C         -13.5313    6.4674   25.0695 C.3     1  UNL1        0.0748
     44 C         -14.4288    5.5574   25.8547 C.3     1  UNL1        0.0494
     45 C         -15.5768    4.8692   25.1776 C.3     1  UNL1        0.1437
     46 C         -16.6123    3.8180   23.0392 C.3     1  UNL1        0.1741
     47 O         -15.4210    4.3511   23.7786 O.3     1  UNL1       -0.3511
@<TRIPOS>BOND
     1    46    47    1
     2    47    45    1
     3    45    44    1
     4    44    43    1
     5    43    37    1
     6    37    38    1
     7    38    39    1
     8    39    40    1
     9    31    40    1
    10    31    32    1
    11    32    33    1
    12    33    34    1
    13    34     1    1
    14     1     2   ar
    15     2     3   ar
    16     3    13    1
    17    13    14    2
    18    14    15    1
    19    15    16    2
    20    16    17    1
    21    17    18    2
    22    18    22    1
    23    22    23    1
    24    23    24   ar
    25    24    25   ar
    26    25    26   ar
    27    26    27   ar
    28    27    28   ar
    29    28    29    1
    30    29    30    1
    31    18    19    1
    32    19    20    2
    33    20    21    1
    34     3     4   ar
    35     4     5   ar
    36     5     6    1
    37     5     7   ar
    38     7     8   ar
    39     8     9   ar
    40     9    10   ar
    41    34    35    1
    42    35    36    1
    43    40    41    1
    44    41    42    1
    45    42    37    1
    46    36    31    1
    47    10     1   ar
    48    21    13    1
    49    10     4   ar
    50    20    16    1
    51    28    23   ar
    52     6    11    1
    53     6    12    1
@<TRIPOS>MOLECULE
*****
 47 53 0 0 0
SMALL
GASTEIGER

@<TRIPOS>ATOM
      1 N           6.8115   -4.0085   27.7254 N.ar    1  UNL1       -0.2359
      2 N           6.5798   -3.3460   26.3998 N.ar    1  UNL1       -0.1682
      3 C           6.9572   -4.3195   25.3228 C.ar    1  UNL1        0.1030
      4 C           7.4221   -5.5837   25.9828 C.ar    1  UNL1        0.0857
      5 C           7.9158   -6.8850   25.4235 C.ar    1  UNL1        0.1316
      6 N           8.0058   -7.0772   23.9386 N.pl3   1  UNL1       -0.3425
      7 N           8.3194   -7.9941   26.3492 N.ar    1  UNL1       -0.2093
      8 C           8.2294   -7.8020   27.8341 C.ar    1  UNL1        0.2014
      9 N           7.7357   -6.5007   28.3933 N.ar    1  UNL1       -0.2050
     10 C           7.3321   -5.3915   27.4677 C.ar    1  UNL1        0.1652
     11 H           7.7408   -6.3492   23.3311 H       1  UNL1        0.1437
     12 H           8.3298   -7.9313   23.5715 H       1  UNL1        0.1437
     13 C           6.8827   -4.0722   23.8452 C.2     1  UNL1        0.0059
     14 C           8.0074   -4.5088   22.9540 C.2     1  UNL1        0.0017
     15 C           7.9330   -4.2616   21.4764 C.2     1  UNL1        0.0499
     16 C           6.7337   -3.5776   20.8899 C.2     1  UNL1        0.2317
     17 N           6.3818   -3.2012   19.4812 N.2     1  UNL1       -0.0347
     18 C           5.0396   -2.5320   19.5017 C.2     1  UNL1        0.3557
     19 N           4.5619   -2.4947   20.9231 N.2     1  UNL1       -0.0385
     20 C           5.6089   -3.1410   21.7811 C.2     1  UNL1        0.2175
     21 C           5.6834   -3.3882   23.2587 C.3     1  UNL1        0.1056
     22 C           4.3042   -1.9943   18.3101 C.3     1  UNL1        0.1531
     23 C           3.7025   -0.6211   18.3569 C.ar    1  UNL1        0.0242
     24 C           2.2207   -0.4568   18.5218 C.ar    1  UNL1       -0.0007
     25 C           1.6189    0.9164   18.5686 C.ar    1  UNL1       -0.0001
     26 C           2.4990    2.1253   18.4505 C.ar    1  UNL1        0.0031
     27 C           3.9808    1.9610   18.2856 C.ar    1  UNL1        0.0366
     28 C           4.5825    0.5878   18.2388 C.ar    1  UNL1        0.1353
     29 O           6.0643    0.4236   18.0738 O.3     1  UNL1       -0.4717
     30 C           6.6847    0.5376   16.7129 C.3     1  UNL1        0.2525
     31 C           6.0744   -2.1702   31.7661 C.3     1  UNL1        0.0577
     32 C           6.5122   -3.6011   31.6617 C.3     1  UNL1        0.0179
     33 C           6.7579   -4.2139   30.3148 C.3     1  UNL1        0.0258
     34 C           6.5658   -3.3957   29.0723 C.3     1  UNL1        0.1069
     35 C           6.1280   -1.9649   29.1767 C.3     1  UNL1        0.0258
     36 C           5.8823   -1.3521   30.5236 C.3     1  UNL1        0.0179
     37 N           5.3374   -0.3317   35.8067 N.3     1  UNL1       -0.2702
     38 C           4.2727   -1.1642   35.1561 C.3     1  UNL1        0.0897
     39 C           4.5183   -1.7771   33.8092 C.3     1  UNL1        0.0896
     40 N           5.8287   -1.5574   33.1130 N.3     1  UNL1       -0.2716
     41 C           6.8934   -0.7249   33.7636 C.3     1  UNL1        0.0896
     42 C           6.6478   -0.1121   35.1106 C.3     1  UNL1        0.0897
     43 C           5.0917    0.2811   37.1536 C.3     1  UNL1        0.0748
     44 C           3.9838    1.2761   37.3341 C.3     1  UNL1        0.0494
     45 C           3.0260    1.1326   38.4795 C.3     1  UNL1        0.1437
     46 C           0.6941    1.6094   39.5210 C.3     1  UNL1        0.1741
     47 O           1.6029    1.5818   38.3279 O.3     1  UNL1       -0.3511
@<TRIPOS>BOND
     1    46    47    1
     2    47    45    1
     3    45    44    1
     4    44    43    1
     5    43    37    1
     6    37    38    1
     7    38    39    1
     8    39    40    1
     9    31    40    1
    10    31    32    1
    11    32    33    1
    12    33    34    1
    13    34     1    1
    14     1     2   ar
    15     2     3   ar
    16     3    13    1
    17    13    14    2
    18    14    15    1
    19    15    16    2
    20    16    17    1
    21    17    18    2
    22    18    22    1
    23    22    23    1
    24    23    24   ar
    25    24    25   ar
    26    25    26   ar
    27    26    27   ar
    28    27    28   ar
    29    28    29    1
    30    29    30    1
    31    18    19    1
    32    19    20    2
    33    20    21    1
    34     3     4   ar
    35     4     5   ar
    36     5     6    1
    37     5     7   ar
    38     7     8   ar
    39     8     9   ar
    40     9    10   ar
    41    34    35    1
    42    35    36    1
    43    40    41    1
    44    41    42    1
    45    42    37    1
    46    36    31    1
    47    10     1   ar
    48    21    13    1
    49    10     4   ar
    50    20    16    1
    51    28    23   ar
    52     6    11    1
    53     6    12    1
@<TRIPOS>MOLECULE
*****
 47 53 0 0 0
SMALL
GASTEIGER

@<TRIPOS>ATOM
      1 N           6.3381   -2.3950   30.4216 N.ar    1  UNL1       -0.2359
      2 N           6.3859   -1.8850   29.0118 N.ar    1  UNL1       -0.1682
      3 C           6.9641   -2.9658   28.1473 C.ar    1  UNL1        0.1030
      4 C           7.2737   -4.1438   29.0228 C.ar    1  UNL1        0.0857
      5 C           7.8579   -5.4921   28.7217 C.ar    1  UNL1        0.1316
      6 N           8.2448   -5.8449   27.3160 N.pl3   1  UNL1       -0.3425
      7 N           8.0551   -6.4877   29.8262 N.ar    1  UNL1       -0.2093
      8 C           7.6682   -6.1349   31.2318 C.ar    1  UNL1        0.2014
      9 N           7.0840   -4.7866   31.5329 N.ar    1  UNL1       -0.2050
     10 C           6.8867   -3.7910   30.4284 C.ar    1  UNL1        0.1652
     11 H           8.1154   -5.1915   26.5911 H       1  UNL1        0.1437
     12 H           8.6283   -6.7299   27.1184 H       1  UNL1        0.1437
     13 C           7.1927   -2.8832   26.6671 C.2     1  UNL1        0.0059
     14 C           8.4793   -2.3233   26.1370 C.2     1  UNL1        0.0017
     15 C           8.7079   -2.2407   24.6568 C.2     1  UNL1        0.0499
     16 C           7.6498   -2.7180   23.7067 C.2     1  UNL1        0.2317
     17 N           7.5919   -2.7617   22.2085 N.2     1  UNL1       -0.0347
     18 C           6.2696   -3.3487   21.8126 C.2     1  UNL1        0.3557
     19 N           5.5101   -3.6677   23.0662 N.2     1  UNL1       -0.0385
     20 C           6.3632   -3.2779   24.2368 C.2     1  UNL1        0.2175
     21 C           6.1346   -3.3606   25.7170 C.3     1  UNL1        0.1056
     22 C           5.7906   -3.5766   20.4096 C.3     1  UNL1        0.1531
     23 C           5.5502   -2.4083   19.5000 C.ar    1  UNL1        0.0242
     24 C           6.5700   -2.0434   18.4622 C.ar    1  UNL1       -0.0007
     25 C           6.3295   -0.8752   17.5527 C.ar    1  UNL1       -0.0001
     26 C           5.0693   -0.0718   17.6808 C.ar    1  UNL1        0.0031
     27 C           4.0496   -0.4366   18.7186 C.ar    1  UNL1        0.0366
     28 C           4.2900   -1.6049   19.6282 C.ar    1  UNL1        0.1353
     29 O           3.2702   -1.9697   20.6659 O.3     1  UNL1       -0.4717
     30 C           2.8962   -0.9809   21.7300 C.3     1  UNL1        0.2525
     31 C           4.8158   -0.1339   34.0022 C.3     1  UNL1        0.0577
     32 C           5.8829    0.4653   33.1349 C.3     1  UNL1        0.0179
     33 C           6.3904   -0.2884   31.9414 C.3     1  UNL1        0.0258
     34 C           5.8306   -1.6413   31.6152 C.3     1  UNL1        0.1069
     35 C           4.7636   -2.2404   32.4825 C.3     1  UNL1        0.0258
     36 C           4.2561   -1.4868   33.6760 C.3     1  UNL1        0.0179
     37 N           3.2935    2.1272   37.5826 N.3     1  UNL1       -0.2702
     38 C           4.2155    0.9590   37.7699 C.3     1  UNL1        0.0897
     39 C           4.7230    0.2053   36.5764 C.3     1  UNL1        0.0896
     40 N           4.3084    0.6198   35.1957 N.3     1  UNL1       -0.2716
     41 C           3.3864    1.7880   35.0085 C.3     1  UNL1        0.0896
     42 C           2.8789    2.5418   36.2020 C.3     1  UNL1        0.0897
     43 C           2.7861    2.8809   38.7762 C.3     1  UNL1        0.0748
     44 C           3.4917    4.1226   39.2347 C.3     1  UNL1        0.0494
     45 C           4.8320    4.0211   39.9006 C.3     1  UNL1        0.1437
     46 C           4.7378    5.0370   42.2899 C.3     1  UNL1        0.1741
     47 O           4.9193    3.8519   41.3884 O.3     1  UNL1       -0.3511
@<TRIPOS>BOND
     1    46    47    1
     2    47    45    1
     3    45    44    1
     4    44    43    1
     5    43    37    1
     6    37    38    1
     7    38    39    1
     8    39    40    1
     9    31    40    1
    10    31    32    1
    11    32    33    1
    12    33    34    1
    13    34     1    1
    14     1     2   ar
    15     2     3   ar
    16     3    13    1
    17    13    14    2
    18    14    15    1
    19    15    16    2
    20    16    17    1
    21    17    18    2
    22    18    22    1
    23    22    23    1
    24    23    24   ar
    25    24    25   ar
    26    25    26   ar
    27    26    27   ar
    28    27    28   ar
    29    28    29    1
    30    29    30    1
    31    18    19    1
    32    19    20    2
    33    20    21    1
    34     3     4   ar
    35     4     5   ar
    36     5     6    1
    37     5     7   ar
    38     7     8   ar
    39     8     9   ar
    40     9    10   ar
    41    34    35    1
    42    35    36    1
    43    40    41    1
    44    41    42    1
    45    42    37    1
    46    36    31    1
    47    10     1   ar
    48    21    13    1
    49    10     4   ar
    50    20    16    1
    51    28    23   ar
    52     6    11    1
    53     6    12    1
@<TRIPOS>MOLECULE
*****
 47 53 0 0 0
SMALL
GASTEIGER

@<TRIPOS>ATOM
      1 N           4.7442   -1.7391   21.9425 N.ar    1  UNL1       -0.2359
      2 N           3.7952   -0.5875   22.0948 N.ar    1  UNL1       -0.1682
      3 C           3.3684   -0.1542   20.7237 C.ar    1  UNL1        0.1030
      4 C           4.0536   -1.0380   19.7240 C.ar    1  UNL1        0.0857
      5 C           4.0131   -1.0774   18.2251 C.ar    1  UNL1        0.1316
      6 N           3.1628   -0.0978   17.4718 N.pl3   1  UNL1       -0.3425
      7 N           4.8229   -2.0963   17.4795 N.ar    1  UNL1       -0.2093
      8 C           5.6732   -3.0759   18.2328 C.ar    1  UNL1        0.2014
      9 N           5.7137   -3.0365   19.7317 N.ar    1  UNL1       -0.2050
     10 C           4.9039   -2.0176   20.4773 C.ar    1  UNL1        0.1652
     11 H           2.6313    0.5709   17.9611 H       1  UNL1        0.1437
     12 H           3.1362   -0.1237   16.4880 H       1  UNL1        0.1437
     13 C           2.4225    0.9662   20.4077 C.2     1  UNL1        0.0059
     14 C           2.9383    2.2312   19.7883 C.2     1  UNL1        0.0017
     15 C           1.9923    3.3516   19.4722 C.2     1  UNL1        0.0499
     16 C           0.5305    3.2071   19.7756 C.2     1  UNL1        0.2317
     17 N          -0.6322    4.1338   19.5773 N.2     1  UNL1       -0.0347
     18 C          -1.8667    3.4416   20.0742 C.2     1  UNL1        0.3557
     19 N          -1.4669    2.0870   20.5796 N.2     1  UNL1       -0.0385
     20 C           0.0146    1.9421   20.3951 C.2     1  UNL1        0.2175
     21 C           0.9605    0.8217   20.7111 C.3     1  UNL1        0.1056
     22 C          -3.2568    4.0049   20.0669 C.3     1  UNL1        0.1531
     23 C          -4.0916    3.9580   21.3123 C.ar    1  UNL1        0.0242
     24 C          -3.4407    3.7231   22.6431 C.ar    1  UNL1       -0.0007
     25 C          -4.2756    3.6762   23.8885 C.ar    1  UNL1       -0.0001
     26 C          -5.7613    3.8642   23.8029 C.ar    1  UNL1        0.0031
     27 C          -6.4122    4.0990   22.4721 C.ar    1  UNL1        0.0366
     28 C          -5.5773    4.1459   21.2268 C.ar    1  UNL1        0.1353
     29 O          -6.2283    4.3808   19.8960 O.3     1  UNL1       -0.4717
     30 C          -6.5050    3.2242   18.9818 C.3     1  UNL1        0.2525
     31 C           6.7585   -3.9676   25.2932 C.3     1  UNL1        0.0577
     32 C           6.6692   -4.5849   23.9290 C.3     1  UNL1        0.0179
     33 C           5.9977   -3.8421   22.8121 C.3     1  UNL1        0.0258
     34 C           5.4156   -2.4819   23.0594 C.3     1  UNL1        0.1069
     35 C           5.5049   -1.8647   24.4235 C.3     1  UNL1        0.0258
     36 C           6.1764   -2.6075   25.5404 C.3     1  UNL1        0.0179
     37 N           8.7728   -6.1959   28.6438 N.3     1  UNL1       -0.2702
     38 C           7.6597   -6.8438   27.8750 C.3     1  UNL1        0.0897
     39 C           6.9882   -6.1010   26.7581 C.3     1  UNL1        0.0896
     40 N           7.4299   -4.7104   26.4100 N.3     1  UNL1       -0.2716
     41 C           8.5431   -4.0626   27.1788 C.3     1  UNL1        0.0896
     42 C           9.2146   -4.8053   28.2958 C.3     1  UNL1        0.0897
     43 C           9.4443   -6.9387   29.7607 C.3     1  UNL1        0.0748
     44 C           9.1002   -6.6215   31.1858 C.3     1  UNL1        0.0494
     45 C           7.7163   -6.1633   31.5391 C.3     1  UNL1        0.1437
     46 C           8.4034   -3.6653   31.7330 C.3     1  UNL1        0.1741
     47 O           7.3627   -4.7082   31.4515 O.3     1  UNL1       -0.3511
@<TRIPOS>BOND
     1    46    47    1
     2    47    45    1
     3    45    44    1
     4    44    43    1
     5    43    37    1
     6    37    38    1
     7    38    39    1
     8    39    40    1
     9    31    40    1
    10    31    32    1
    11    32    33    1
    12    33    34    1
    13    34     1    1
    14     1     2   ar
    15     2     3   ar
    16     3    13    1
    17    13    14    2
    18    14    15    1
    19    15    16    2
    20    16    17    1
    21    17    18    2
    22    18    22    1
    23    22    23    1
    24    23    24   ar
    25    24    25   ar
    26    25    26   ar
    27    26    27   ar
    28    27    28   ar
    29    28    29    1
    30    29    30    1
    31    18    19    1
    32    19    20    2
    33    20    21    1
    34     3     4   ar
    35     4     5   ar
    36     5     6    1
    37     5     7   ar
    38     7     8   ar
    39     8     9   ar
    40     9    10   ar
    41    34    35    1
    42    35    36    1
    43    40    41    1
    44    41    42    1
    45    42    37    1
    46    36    31    1
    47    10     1   ar
    48    21    13    1
    49    10     4   ar
    50    20    16    1
    51    28    23   ar
    52     6    11    1
    53     6    12    1
