@<TRIPOS>MOLECULE
*****
 41 44 0 0 0
SMALL
GASTEIGER

@<TRIPOS>ATOM
      1 C           7.5639   -5.6826   24.2302 C.3     1  UNL1        0.0521
      2 C           7.0249   -4.5499   25.0526 C.ar    1  UNL1        0.0601
      3 N           7.2428   -4.5305   26.5366 N.ar    1  UNL1       -0.2541
      4 C           6.7038   -3.3978   27.3590 C.ar    1  UNL1        0.0588
      5 C           6.9218   -3.3784   28.8430 C.3     1  UNL1        0.0519
      6 C           5.9469   -2.2844   26.6976 C.ar    1  UNL1        0.0368
      7 C           5.7290   -2.3038   25.2136 C.ar    1  UNL1        0.0487
      8 C           6.2679   -3.4366   24.3912 C.ar    1  UNL1        0.0267
      9 N           4.9720   -1.1905   24.5521 N.pl3   1  UNL1       -0.3076
     10 C           3.4786   -1.1223   24.6751 C.3     1  UNL1        0.0908
     11 C           2.7217   -0.0089   24.0135 C.3     1  UNL1        0.0215
     12 C           3.4582    1.0362   23.2291 C.3     1  UNL1        0.0033
     13 C           3.7059    2.2515   22.3856 C.3     1  UNL1        0.0001
     14 C           2.0508    1.5265   23.0591 C.3     1  UNL1        0.0001
     15 C           4.9516    0.9679   23.1061 C.3     1  UNL1        0.0215
     16 C           5.7085   -0.1454   23.7676 C.3     1  UNL1        0.0908
     17 C           6.0500   -3.4559   22.9072 C.ar    1  UNL1        0.0025
     18 C           4.7266   -3.8886   22.3491 C.ar    1  UNL1        0.0032
     19 C           4.5086   -3.9080   20.8652 C.ar    1  UNL1        0.0369
     20 C           5.6140   -3.4946   19.9392 C.ar    1  UNL1        0.1386
     21 C           6.9374   -3.0620   20.4973 C.ar    1  UNL1        0.0369
     22 C           7.1554   -3.0426   21.9813 C.ar    1  UNL1        0.0032
     23 O           5.3960   -3.5140   18.4553 O.3     1  UNL1       -0.4751
     24 C           4.8554   -2.2994   17.7608 C.3     1  UNL1        0.2101
     25 C           4.7730   -0.9920   18.4914 C.3     1  UNL1        0.0736
     26 C           3.4383   -0.4474   18.9062 C.ar    1  UNL1       -0.0183
     27 C           2.6104   -1.1819   19.9187 C.ar    1  UNL1       -0.0018
     28 C           1.2757   -0.6373   20.3335 C.ar    1  UNL1        0.0293
     29 C           0.7690    0.6417   19.7358 C.ar    1  UNL1        0.1401
     30 F          -0.5657    1.1863   20.1506 F       1  UNL1       -0.2042
     31 C           1.5969    1.3762   18.7233 C.ar    1  UNL1        0.0293
     32 C           2.9316    0.8316   18.3085 C.ar    1  UNL1       -0.0018
     33 C           5.4079   -1.1517   27.5200 C.3     1  UNL1        0.1756
     34 C           6.2051    0.1095   27.6733 C.2     1  UNL1        0.0816
     35 O           7.3589    0.1559   28.6308 O.co2   1  UNL1       -0.5464
     36 O           5.8487    1.3245   26.8691 O.co2   1  UNL1       -0.5464
     37 O           4.0717   -1.2803   28.1893 O.3     1  UNL1       -0.3509
     38 C           3.6063   -0.2216   29.1446 C.3     1  UNL1        0.0938
     39 C           4.3982   -0.8655   30.2439 C.3     1  UNL1        0.0297
     40 C           2.8145    0.4223   28.0453 C.3     1  UNL1        0.0297
     41 C           3.1410    0.8371   30.0999 C.3     1  UNL1        0.0297
@<TRIPOS>UNITY_ATOM_ATTR
35 1
charge -1
@<TRIPOS>BOND
     1     1     2    1
     2     2     3   ar
     3     3     4   ar
     4     4     5    1
     5     4     6   ar
     6     6    33    1
     7    33    37    1
     8    37    38    1
     9    38    39    1
    10    38    40    1
    11    38    41    1
    12    33    34    1
    13    34    35   ar
    14    34    36   ar
    15     6     7   ar
    16     7     9    1
    17     9    10    1
    18    10    11    1
    19    11    12    1
    20    12    13    1
    21    12    14    1
    22    12    15    1
    23    15    16    1
    24     7     8   ar
    25     8    17    1
    26    17    18   ar
    27    18    19   ar
    28    19    20   ar
    29    20    23    1
    30    23    24    1
    31    24    25    1
    32    25    26    1
    33    26    27   ar
    34    27    28   ar
    35    28    29   ar
    36    29    30    1
    37    29    31   ar
    38    31    32   ar
    39    20    21   ar
    40    21    22   ar
    41     8     2   ar
    42    22    17   ar
    43    16     9    1
    44    32    26   ar
@<TRIPOS>MOLECULE
*****
 41 44 0 0 0
SMALL
GASTEIGER

@<TRIPOS>ATOM
      1 C           0.8209    1.0883   22.6554 C.3     1  UNL1        0.0521
      2 C           1.0032    1.1040   24.1442 C.ar    1  UNL1        0.0601
      3 N          -0.0809    1.6476   25.0269 N.ar    1  UNL1       -0.2541
      4 C           0.1015    1.6633   26.5157 C.ar    1  UNL1        0.0588
      5 C          -0.9827    2.2071   27.3984 C.3     1  UNL1        0.0519
      6 C           1.3679    1.1354   27.1218 C.ar    1  UNL1        0.0368
      7 C           2.4519    0.5917   26.2391 C.ar    1  UNL1        0.0487
      8 C           2.2696    0.5760   24.7503 C.ar    1  UNL1        0.0267
      9 N           3.7184    0.0637   26.8452 N.pl3   1  UNL1       -0.3076
     10 C           4.9005    0.9702   27.0210 C.3     1  UNL1        0.0908
     11 C           6.1670    0.4422   27.6271 C.3     1  UNL1        0.0215
     12 C           6.2513   -0.9923   28.0574 C.3     1  UNL1        0.0033
     13 C           6.8140   -2.2655   28.6162 C.3     1  UNL1        0.0001
     14 C           7.6289   -0.5280   28.4273 C.3     1  UNL1        0.0001
     15 C           5.0691   -1.8988   27.8816 C.3     1  UNL1        0.0215
     16 C           3.8027   -1.3708   27.2756 C.3     1  UNL1        0.0908
     17 C           3.3538    0.0323   23.8677 C.ar    1  UNL1        0.0025
     18 C           4.2921    0.9703   23.1679 C.ar    1  UNL1        0.0032
     19 C           5.3762    0.4267   22.2852 C.ar    1  UNL1        0.0369
     20 C           5.5221   -1.0551   22.1023 C.ar    1  UNL1        0.1386
     21 C           4.5837   -1.9930   22.8021 C.ar    1  UNL1        0.0369
     22 C           3.4996   -1.4493   23.6848 C.ar    1  UNL1        0.0032
     23 O           6.6062   -1.5987   21.2197 O.3     1  UNL1       -0.4751
     24 C           6.4333   -1.5937   19.7297 C.3     1  UNL1        0.2101
     25 C           5.1684   -2.1209   19.1197 C.3     1  UNL1        0.0736
     26 C           3.9397   -1.2613   19.0804 C.ar    1  UNL1       -0.0183
     27 C           3.9292   -0.0050   18.2610 C.ar    1  UNL1       -0.0018
     28 C           2.7005    0.8545   18.2217 C.ar    1  UNL1        0.0293
     29 C           1.4823    0.4577   19.0018 C.ar    1  UNL1        0.1401
     30 F           0.2536    1.3172   18.9626 F       1  UNL1       -0.2042
     31 C           1.4929   -0.7987   19.8213 C.ar    1  UNL1        0.0293
     32 C           2.7216   -1.6582   19.8606 C.ar    1  UNL1       -0.0018
     33 C           1.5502    1.1511   28.6106 C.3     1  UNL1        0.1756
     34 C           1.0540    0.0034   29.4391 C.2     1  UNL1        0.0816
     35 O          -0.3623   -0.4691   29.2943 O.co2   1  UNL1       -0.5464
     36 O           1.9741   -0.6719   30.4125 O.co2   1  UNL1       -0.5464
     37 O           2.2287    2.3145   29.2709 O.3     1  UNL1       -0.3509
     38 C           1.5080    3.6227   29.4103 C.3     1  UNL1        0.0938
     39 C           0.7382    3.0744   30.5751 C.3     1  UNL1        0.0297
     40 C           2.2778    4.1709   28.2454 C.3     1  UNL1        0.0297
     41 C           0.7873    4.9308   29.5497 C.3     1  UNL1        0.0297
@<TRIPOS>UNITY_ATOM_ATTR
35 1
charge -1
@<TRIPOS>BOND
     1     1     2    1
     2     2     3   ar
     3     3     4   ar
     4     4     5    1
     5     4     6   ar
     6     6    33    1
     7    33    37    1
     8    37    38    1
     9    38    39    1
    10    38    40    1
    11    38    41    1
    12    33    34    1
    13    34    35   ar
    14    34    36   ar
    15     6     7   ar
    16     7     9    1
    17     9    10    1
    18    10    11    1
    19    11    12    1
    20    12    13    1
    21    12    14    1
    22    12    15    1
    23    15    16    1
    24     7     8   ar
    25     8    17    1
    26    17    18   ar
    27    18    19   ar
    28    19    20   ar
    29    20    23    1
    30    23    24    1
    31    24    25    1
    32    25    26    1
    33    26    27   ar
    34    27    28   ar
    35    28    29   ar
    36    29    30    1
    37    29    31   ar
    38    31    32   ar
    39    20    21   ar
    40    21    22   ar
    41     8     2   ar
    42    22    17   ar
    43    16     9    1
    44    32    26   ar
@<TRIPOS>MOLECULE
*****
 41 44 0 0 0
SMALL
GASTEIGER

@<TRIPOS>ATOM
      1 C          -1.2698    2.9599   20.0962 C.3     1  UNL1        0.0521
      2 C          -0.7736    2.7989   21.5025 C.ar    1  UNL1        0.0601
      3 N          -1.5746    3.3441   22.6475 N.ar    1  UNL1       -0.2541
      4 C          -1.0784    3.1831   24.0539 C.ar    1  UNL1        0.0588
      5 C          -1.8795    3.7283   25.1989 C.3     1  UNL1        0.0519
      6 C           0.2189    2.4769   24.3152 C.ar    1  UNL1        0.0368
      7 C           1.0200    1.9318   23.1702 C.ar    1  UNL1        0.0487
      8 C           0.5237    2.0928   21.7639 C.ar    1  UNL1        0.0267
      9 N           2.3173    1.2256   23.4315 N.pl3   1  UNL1       -0.3076
     10 C           2.3166   -0.2181   23.8388 C.3     1  UNL1        0.0908
     11 C           3.6140   -0.9243   24.1001 C.3     1  UNL1        0.0215
     12 C           4.9120   -0.1868   23.9541 C.3     1  UNL1        0.0033
     13 C           6.3877    0.0818   23.9489 C.3     1  UNL1        0.0001
     14 C           5.4238   -1.5372   24.3596 C.3     1  UNL1        0.0001
     15 C           4.9126    1.2569   23.5468 C.3     1  UNL1        0.0215
     16 C           3.6153    1.9631   23.2855 C.3     1  UNL1        0.0908
     17 C           1.3248    1.5475   20.6188 C.ar    1  UNL1        0.0025
     18 C           2.3082    2.4273   19.9054 C.ar    1  UNL1        0.0032
     19 C           3.1093    1.8822   18.7604 C.ar    1  UNL1        0.0369
     20 C           2.9270    0.4572   18.3288 C.ar    1  UNL1        0.1386
     21 C           1.9436   -0.4226   19.0422 C.ar    1  UNL1        0.0369
     22 C           1.1425    0.1226   20.1872 C.ar    1  UNL1        0.0032
     23 O           3.7281   -0.0879   17.1838 O.3     1  UNL1       -0.4751
     24 C           5.2252    0.0019   17.2059 C.3     1  UNL1        0.2101
     25 C           6.0057   -0.7395   18.2505 C.3     1  UNL1        0.0736
     26 C           5.3884   -1.9087   18.9589 C.ar    1  UNL1       -0.0183
     27 C           4.9720   -1.7814   20.3943 C.ar    1  UNL1       -0.0018
     28 C           4.3547   -2.9506   21.1027 C.ar    1  UNL1        0.0293
     29 C           4.1537   -4.2471   20.3757 C.ar    1  UNL1        0.1401
     30 F           3.5364   -5.4163   21.0842 F       1  UNL1       -0.2042
     31 C           4.5701   -4.3745   18.9403 C.ar    1  UNL1        0.0293
     32 C           5.1874   -3.2053   18.2318 C.ar    1  UNL1       -0.0018
     33 C           0.7152    2.3159   25.7216 C.3     1  UNL1        0.1756
     34 C           1.4571    3.4364   26.3880 C.2     1  UNL1        0.0816
     35 O           0.7104    4.4496   27.2039 O.co2   1  UNL1       -0.5464
     36 O           2.9458    3.5436   26.2384 O.co2   1  UNL1       -0.5464
     37 O           0.4695    1.0345   26.4615 O.3     1  UNL1       -0.3509
     38 C           0.4683    1.0230   27.9615 C.3     1  UNL1        0.0938
     39 C          -0.9700    1.4489   27.9636 C.3     1  UNL1        0.0297
     40 C           1.9065    0.5970   27.9594 C.3     1  UNL1        0.0297
     41 C           0.4671    1.0114   29.4614 C.3     1  UNL1        0.0297
@<TRIPOS>UNITY_ATOM_ATTR
35 1
charge -1
@<TRIPOS>BOND
     1     1     2    1
     2     2     3   ar
     3     3     4   ar
     4     4     5    1
     5     4     6   ar
     6     6    33    1
     7    33    37    1
     8    37    38    1
     9    38    39    1
    10    38    40    1
    11    38    41    1
    12    33    34    1
    13    34    35   ar
    14    34    36   ar
    15     6     7   ar
    16     7     9    1
    17     9    10    1
    18    10    11    1
    19    11    12    1
    20    12    13    1
    21    12    14    1
    22    12    15    1
    23    15    16    1
    24     7     8   ar
    25     8    17    1
    26    17    18   ar
    27    18    19   ar
    28    19    20   ar
    29    20    23    1
    30    23    24    1
    31    24    25    1
    32    25    26    1
    33    26    27   ar
    34    27    28   ar
    35    28    29   ar
    36    29    30    1
    37    29    31   ar
    38    31    32   ar
    39    20    21   ar
    40    21    22   ar
    41     8     2   ar
    42    22    17   ar
    43    16     9    1
    44    32    26   ar
@<TRIPOS>MOLECULE
*****
 41 44 0 0 0
SMALL
GASTEIGER

@<TRIPOS>ATOM
      1 C           3.7285   -0.8334   26.6438 C.3     1  UNL1        0.0521
      2 C           4.0498   -1.2493   25.2389 C.ar    1  UNL1        0.0601
      3 N           4.9396   -2.4313   24.9916 N.ar    1  UNL1       -0.2541
      4 C           5.2609   -2.8472   23.5867 C.ar    1  UNL1        0.0588
      5 C           6.1508   -4.0292   23.3394 C.3     1  UNL1        0.0519
      6 C           4.6925   -2.0812   22.4291 C.ar    1  UNL1        0.0368
      7 C           3.8027   -0.8992   22.6764 C.ar    1  UNL1        0.0487
      8 C           3.4813   -0.4833   24.0813 C.ar    1  UNL1        0.0267
      9 N           3.2341   -0.1332   21.5188 N.pl3   1  UNL1       -0.3076
     10 C           1.9491   -0.5765   20.8847 C.3     1  UNL1        0.0908
     11 C           1.3806    0.1896   19.7271 C.3     1  UNL1        0.0215
     12 C           2.0971    1.3990   19.2037 C.3     1  UNL1        0.0033
     13 C           2.4045    2.5991   18.3581 C.3     1  UNL1        0.0001
     14 C           0.9188    1.3725   18.2759 C.3     1  UNL1        0.0001
     15 C           3.3822    1.8423   19.8379 C.3     1  UNL1        0.0215
     16 C           3.9507    1.0762   20.9954 C.3     1  UNL1        0.0908
     17 C           2.5915    0.6987   24.3286 C.ar    1  UNL1        0.0025
     18 C           3.1911    2.0299   24.6726 C.ar    1  UNL1        0.0032
     19 C           2.3014    3.2119   24.9199 C.ar    1  UNL1        0.0369
     20 C           0.8119    3.0627   24.8232 C.ar    1  UNL1        0.1386
     21 C           0.2122    1.7315   24.4792 C.ar    1  UNL1        0.0369
     22 C           1.1021    0.5495   24.2319 C.ar    1  UNL1        0.0032
     23 O          -0.0779    4.2447   25.0705 O.3     1  UNL1       -0.4751
     24 C          -0.5946    4.5185   26.4518 C.3     1  UNL1        0.2101
     25 C          -1.2768    3.4304   27.2267 C.3     1  UNL1        0.0736
     26 C          -0.4633    2.3589   27.8902 C.ar    1  UNL1       -0.0183
     27 C          -1.0246    0.9762   28.0411 C.ar    1  UNL1       -0.0018
     28 C          -0.2111   -0.0953   28.7045 C.ar    1  UNL1        0.0293
     29 C           1.1638    0.2160   29.2170 C.ar    1  UNL1        0.1401
     30 F           1.9773   -0.8555   29.8804 F       1  UNL1       -0.2042
     31 C           1.7252    1.5988   29.0661 C.ar    1  UNL1        0.0293
     32 C           0.9117    2.6703   28.4027 C.ar    1  UNL1       -0.0018
     33 C           5.0138   -2.4971   21.0242 C.3     1  UNL1        0.1756
     34 C           4.2084   -3.5728   20.3577 C.2     1  UNL1        0.0816
     35 O           4.1834   -4.9573   20.9344 O.co2   1  UNL1       -0.5464
     36 O           3.4280   -3.2640   19.1145 O.co2   1  UNL1       -0.5464
     37 O           6.1405   -1.8374   20.2858 O.3     1  UNL1       -0.3509
     38 C           7.5331   -1.8897   20.8405 C.3     1  UNL1        0.0938
     39 C           7.6991   -3.2763   20.2930 C.3     1  UNL1        0.0297
     40 C           7.3672   -0.5031   21.3880 C.3     1  UNL1        0.0297
     41 C           8.9258   -1.9420   21.3952 C.3     1  UNL1        0.0297
@<TRIPOS>UNITY_ATOM_ATTR
35 1
charge -1
@<TRIPOS>BOND
     1     1     2    1
     2     2     3   ar
     3     3     4   ar
     4     4     5    1
     5     4     6   ar
     6     6    33    1
     7    33    37    1
     8    37    38    1
     9    38    39    1
    10    38    40    1
    11    38    41    1
    12    33    34    1
    13    34    35   ar
    14    34    36   ar
    15     6     7   ar
    16     7     9    1
    17     9    10    1
    18    10    11    1
    19    11    12    1
    20    12    13    1
    21    12    14    1
    22    12    15    1
    23    15    16    1
    24     7     8   ar
    25     8    17    1
    26    17    18   ar
    27    18    19   ar
    28    19    20   ar
    29    20    23    1
    30    23    24    1
    31    24    25    1
    32    25    26    1
    33    26    27   ar
    34    27    28   ar
    35    28    29   ar
    36    29    30    1
    37    29    31   ar
    38    31    32   ar
    39    20    21   ar
    40    21    22   ar
    41     8     2   ar
    42    22    17   ar
    43    16     9    1
    44    32    26   ar
@<TRIPOS>MOLECULE
*****
 41 44 0 0 0
SMALL
GASTEIGER

@<TRIPOS>ATOM
      1 C           2.0960    0.2679   24.0071 C.3     1  UNL1        0.0521
      2 C           0.9451    1.2270   24.0824 C.ar    1  UNL1        0.0601
      3 N           0.3118    1.5360   25.4065 N.ar    1  UNL1       -0.2541
      4 C          -0.8391    2.4951   25.4819 C.ar    1  UNL1        0.0588
      5 C          -1.4725    2.8041   26.8061 C.3     1  UNL1        0.0519
      6 C          -1.3566    3.1451   24.2330 C.ar    1  UNL1        0.0368
      7 C          -0.7233    2.8361   22.9089 C.ar    1  UNL1        0.0487
      8 C           0.4276    1.8770   22.8336 C.ar    1  UNL1        0.0267
      9 N          -1.2408    3.4861   21.6600 N.pl3   1  UNL1       -0.3076
     10 C          -0.5404    4.6853   21.0931 C.3     1  UNL1        0.0908
     11 C          -1.0580    5.3353   19.8442 C.3     1  UNL1        0.0215
     12 C          -2.2759    4.7861   19.1623 C.3     1  UNL1        0.0033
     13 C          -3.3843    4.6352   18.1630 C.3     1  UNL1        0.0001
     14 C          -1.9604    5.9329   18.2483 C.3     1  UNL1        0.0001
     15 C          -2.9763    3.5869   19.7293 C.3     1  UNL1        0.0215
     16 C          -2.4588    2.9369   20.9781 C.3     1  UNL1        0.0908
     17 C           1.0609    1.5680   21.5094 C.ar    1  UNL1        0.0025
     18 C           0.5030    0.4738   20.6483 C.ar    1  UNL1        0.0032
     19 C           1.1363    0.1648   19.3242 C.ar    1  UNL1        0.0369
     20 C           2.3276    0.9500   18.8611 C.ar    1  UNL1        0.1386
     21 C           2.8855    2.0442   19.7221 C.ar    1  UNL1        0.0369
     22 C           2.2521    2.3532   21.0463 C.ar    1  UNL1        0.0032
     23 O           2.9608    0.6409   17.5369 O.3     1  UNL1       -0.4751
     24 C           4.2553   -0.1149   17.4828 C.3     1  UNL1        0.2101
     25 C           4.2638   -1.6026   17.6745 C.3     1  UNL1        0.0736
     26 C           4.3632   -2.1803   19.0552 C.ar    1  UNL1       -0.0183
     27 C           4.1865   -3.6549   19.2658 C.ar    1  UNL1       -0.0018
     28 C           4.2859   -4.2326   20.6465 C.ar    1  UNL1        0.0293
     29 C           4.5620   -3.3358   21.8167 C.ar    1  UNL1        0.1401
     30 F           4.6614   -3.9135   23.1974 F       1  UNL1       -0.2042
     31 C           4.7387   -1.8611   21.6062 C.ar    1  UNL1        0.0293
     32 C           4.6393   -1.2834   20.2255 C.ar    1  UNL1       -0.0018
     33 C          -2.5075    4.1042   24.3084 C.3     1  UNL1        0.1756
     34 C          -2.2499    5.5771   24.4271 C.2     1  UNL1        0.0816
     35 O          -1.7443    6.1483   25.7188 O.co2   1  UNL1       -0.5464
     36 O          -2.4978    6.4788   23.2544 O.co2   1  UNL1       -0.5464
     37 O          -3.9161    3.5903   24.2649 O.3     1  UNL1       -0.3509
     38 C          -5.0532    4.4846   24.6614 C.3     1  UNL1        0.0938
     39 C          -5.3956    4.6902   23.2155 C.3     1  UNL1        0.0297
     40 C          -4.7108    4.2789   26.1072 C.3     1  UNL1        0.0297
     41 C          -6.1904    5.3788   25.0579 C.3     1  UNL1        0.0297
@<TRIPOS>UNITY_ATOM_ATTR
35 1
charge -1
@<TRIPOS>BOND
     1     1     2    1
     2     2     3   ar
     3     3     4   ar
     4     4     5    1
     5     4     6   ar
     6     6    33    1
     7    33    37    1
     8    37    38    1
     9    38    39    1
    10    38    40    1
    11    38    41    1
    12    33    34    1
    13    34    35   ar
    14    34    36   ar
    15     6     7   ar
    16     7     9    1
    17     9    10    1
    18    10    11    1
    19    11    12    1
    20    12    13    1
    21    12    14    1
    22    12    15    1
    23    15    16    1
    24     7     8   ar
    25     8    17    1
    26    17    18   ar
    27    18    19   ar
    28    19    20   ar
    29    20    23    1
    30    23    24    1
    31    24    25    1
    32    25    26    1
    33    26    27   ar
    34    27    28   ar
    35    28    29   ar
    36    29    30    1
    37    29    31   ar
    38    31    32   ar
    39    20    21   ar
    40    21    22   ar
    41     8     2   ar
    42    22    17   ar
    43    16     9    1
    44    32    26   ar
@<TRIPOS>MOLECULE
*****
 41 44 0 0 0
SMALL
GASTEIGER

@<TRIPOS>ATOM
      1 C           3.6936   -0.9108   16.8694 C.3     1  UNL1        0.0521
      2 C           4.6346   -1.1689   18.0086 C.ar    1  UNL1        0.0601
      3 N           5.9583   -1.8268   17.7536 N.ar    1  UNL1       -0.2541
      4 C           6.8994   -2.0848   18.8928 C.ar    1  UNL1        0.0588
      5 C           8.2231   -2.7427   18.6378 C.3     1  UNL1        0.0519
      6 C           6.5168   -1.6850   20.2870 C.ar    1  UNL1        0.0368
      7 C           5.1931   -1.0271   20.5419 C.ar    1  UNL1        0.0487
      8 C           4.2520   -0.7691   19.4027 C.ar    1  UNL1        0.0267
      9 N           4.8105   -0.6273   21.9361 N.pl3   1  UNL1       -0.3076
     10 C           4.9701    0.7971   22.3784 C.3     1  UNL1        0.0908
     11 C           4.5875    1.1969   23.7726 C.3     1  UNL1        0.0215
     12 C           4.0451    0.1724   24.7245 C.3     1  UNL1        0.0033
     13 C           3.4915   -0.4302   25.9816 C.3     1  UNL1        0.0001
     14 C           4.0125    1.3875   25.6034 C.3     1  UNL1        0.0001
     15 C           3.8855   -1.2521   24.2822 C.3     1  UNL1        0.0215
     16 C           4.2681   -1.6519   22.8880 C.3     1  UNL1        0.0908
     17 C           2.9283   -0.1112   19.6577 C.ar    1  UNL1        0.0025
     18 C           2.7461    1.3476   19.3597 C.ar    1  UNL1        0.0032
     19 C           1.4224    2.0055   19.6147 C.ar    1  UNL1        0.0369
     20 C           0.2809    1.2047   20.1677 C.ar    1  UNL1        0.1386
     21 C           0.4632   -0.2541   20.4657 C.ar    1  UNL1        0.0369
     22 C           1.7869   -0.9120   20.2107 C.ar    1  UNL1        0.0032
     23 O          -1.0427    1.8626   20.4227 O.3     1  UNL1       -0.4751
     24 C          -1.0938    3.2761   20.9222 C.3     1  UNL1        0.2101
     25 C          -0.2315    3.6957   22.0755 C.3     1  UNL1        0.0736
     26 C          -0.3709    3.0127   23.4037 C.ar    1  UNL1       -0.0183
     27 C          -1.3789    3.5062   24.3987 C.ar    1  UNL1       -0.0018
     28 C          -1.5184    2.8232   25.7269 C.ar    1  UNL1        0.0293
     29 C          -0.6497    1.6466   26.0600 C.ar    1  UNL1        0.1401
     30 F          -0.7891    0.9636   27.3882 F       1  UNL1       -0.2042
     31 C           0.3584    1.1530   25.0650 C.ar    1  UNL1        0.0293
     32 C           0.4978    1.8360   23.7368 C.ar    1  UNL1       -0.0018
     33 C           7.4579   -1.9431   21.4262 C.3     1  UNL1        0.1756
     34 C           7.1956   -3.0759   22.3737 C.2     1  UNL1        0.0816
     35 O           7.7329   -3.0228   23.7732 O.co2   1  UNL1       -0.5464
     36 O           6.3961   -4.2619   21.9218 O.co2   1  UNL1       -0.5464
     37 O           8.6612   -1.0683   21.6178 O.3     1  UNL1       -0.3509
     38 C           8.4945    0.4154   21.7620 C.3     1  UNL1        0.0938
     39 C           8.1727    0.2380   23.2162 C.3     1  UNL1        0.0297
     40 C           8.8164    0.5928   20.3077 C.3     1  UNL1        0.0297
     41 C           8.3279    1.8991   21.9061 C.3     1  UNL1        0.0297
@<TRIPOS>UNITY_ATOM_ATTR
35 1
charge -1
@<TRIPOS>BOND
     1     1     2    1
     2     2     3   ar
     3     3     4   ar
     4     4     5    1
     5     4     6   ar
     6     6    33    1
     7    33    37    1
     8    37    38    1
     9    38    39    1
    10    38    40    1
    11    38    41    1
    12    33    34    1
    13    34    35   ar
    14    34    36   ar
    15     6     7   ar
    16     7     9    1
    17     9    10    1
    18    10    11    1
    19    11    12    1
    20    12    13    1
    21    12    14    1
    22    12    15    1
    23    15    16    1
    24     7     8   ar
    25     8    17    1
    26    17    18   ar
    27    18    19   ar
    28    19    20   ar
    29    20    23    1
    30    23    24    1
    31    24    25    1
    32    25    26    1
    33    26    27   ar
    34    27    28   ar
    35    28    29   ar
    36    29    30    1
    37    29    31   ar
    38    31    32   ar
    39    20    21   ar
    40    21    22   ar
    41     8     2   ar
    42    22    17   ar
    43    16     9    1
    44    32    26   ar
@<TRIPOS>MOLECULE
*****
 41 44 0 0 0
SMALL
GASTEIGER

@<TRIPOS>ATOM
      1 C           5.5087   -2.1729   26.7674 C.3     1  UNL1        0.0521
      2 C           4.3879   -1.3006   27.2498 C.ar    1  UNL1        0.0601
      3 N           3.9561   -1.3593   28.6851 N.ar    1  UNL1       -0.2541
      4 C           2.8353   -0.4870   29.1675 C.ar    1  UNL1        0.0588
      5 C           2.4036   -0.5458   30.6029 C.3     1  UNL1        0.0519
      6 C           2.1462    0.4442   28.2146 C.ar    1  UNL1        0.0368
      7 C           2.5780    0.5030   26.7793 C.ar    1  UNL1        0.0487
      8 C           3.6988   -0.3694   26.2969 C.ar    1  UNL1        0.0267
      9 N           1.8889    1.4341   25.8263 N.pl3   1  UNL1       -0.3076
     10 C           2.3780    2.8434   25.6691 C.3     1  UNL1        0.0908
     11 C           1.6889    3.7746   24.7161 C.3     1  UNL1        0.0215
     12 C           0.5107    3.2964   23.9204 C.3     1  UNL1        0.0033
     13 C          -0.6360    3.3093   22.9534 C.3     1  UNL1        0.0001
     14 C           0.6016    4.7101   23.4273 C.3     1  UNL1        0.0001
     15 C           0.0215    1.8871   24.0776 C.3     1  UNL1        0.0215
     16 C           0.7106    0.9560   25.0306 C.3     1  UNL1        0.0908
     17 C           4.1305   -0.3106   24.8615 C.ar    1  UNL1        0.0025
     18 C           5.1377    0.7106   24.4226 C.ar    1  UNL1        0.0032
     19 C           5.5695    0.7694   22.9873 C.ar    1  UNL1        0.0369
     20 C           4.9940   -0.1929   21.9909 C.ar    1  UNL1        0.1386
     21 C           3.9868   -1.2141   22.4298 C.ar    1  UNL1        0.0369
     22 C           3.5551   -1.2730   23.8652 C.ar    1  UNL1        0.0032
     23 O           5.4257   -0.1341   20.5556 O.3     1  UNL1       -0.4751
     24 C           5.0652   -1.2478   19.6176 C.3     1  UNL1        0.2101
     25 C           3.9700   -1.0555   18.6109 C.3     1  UNL1        0.0736
     26 C           2.7594   -0.2438   18.9654 C.ar    1  UNL1       -0.0183
     27 C           2.5242    1.0810   18.3024 C.ar    1  UNL1       -0.0018
     28 C           1.3136    1.8926   18.6569 C.ar    1  UNL1        0.0293
     29 C           0.3382    1.3794   19.6743 C.ar    1  UNL1        0.1401
     30 F          -0.8725    2.1911   20.0288 F       1  UNL1       -0.2042
     31 C           0.5734    0.0546   20.3374 C.ar    1  UNL1        0.0293
     32 C           1.7840   -0.7571   19.9829 C.ar    1  UNL1       -0.0018
     33 C           1.0254    1.3166   28.6970 C.3     1  UNL1        0.1756
     34 C          -0.3824    0.7989   28.6943 C.2     1  UNL1        0.0816
     35 O          -0.7423   -0.3998   29.5212 O.co2   1  UNL1       -0.5464
     36 O          -1.4304    1.4798   27.8647 O.co2   1  UNL1       -0.5464
     37 O           1.3123    2.7066   29.1820 O.3     1  UNL1       -0.3509
     38 C           2.1085    2.9139   30.4363 C.3     1  UNL1        0.0938
     39 C           3.3290    3.2032   29.6137 C.3     1  UNL1        0.0297
     40 C           0.8880    2.6246   31.2588 C.3     1  UNL1        0.0297
     41 C           2.9047    3.1212   31.6905 C.3     1  UNL1        0.0297
@<TRIPOS>UNITY_ATOM_ATTR
35 1
charge -1
@<TRIPOS>BOND
     1     1     2    1
     2     2     3   ar
     3     3     4   ar
     4     4     5    1
     5     4     6   ar
     6     6    33    1
     7    33    37    1
     8    37    38    1
     9    38    39    1
    10    38    40    1
    11    38    41    1
    12    33    34    1
    13    34    35   ar
    14    34    36   ar
    15     6     7   ar
    16     7     9    1
    17     9    10    1
    18    10    11    1
    19    11    12    1
    20    12    13    1
    21    12    14    1
    22    12    15    1
    23    15    16    1
    24     7     8   ar
    25     8    17    1
    26    17    18   ar
    27    18    19   ar
    28    19    20   ar
    29    20    23    1
    30    23    24    1
    31    24    25    1
    32    25    26    1
    33    26    27   ar
    34    27    28   ar
    35    28    29   ar
    36    29    30    1
    37    29    31   ar
    38    31    32   ar
    39    20    21   ar
    40    21    22   ar
    41     8     2   ar
    42    22    17   ar
    43    16     9    1
    44    32    26   ar
@<TRIPOS>MOLECULE
*****
 41 44 0 0 0
SMALL
GASTEIGER

@<TRIPOS>ATOM
      1 C           1.8687   -0.7864   19.8284 C.3     1  UNL1        0.0521
      2 C           1.9255   -0.1565   21.1886 C.ar    1  UNL1        0.0601
      3 N           0.8841    0.8431   21.5962 N.ar    1  UNL1       -0.2541
      4 C           0.9409    1.4730   22.9564 C.ar    1  UNL1        0.0588
      5 C          -0.1007    2.4726   23.3640 C.3     1  UNL1        0.0519
      6 C           2.0392    1.1035   23.9088 C.ar    1  UNL1        0.0368
      7 C           3.0806    0.1040   23.5011 C.ar    1  UNL1        0.0487
      8 C           3.0238   -0.5260   22.1410 C.ar    1  UNL1        0.0267
      9 N           4.1790   -0.2656   24.4535 N.pl3   1  UNL1       -0.3076
     10 C           5.5149    0.4096   24.3562 C.3     1  UNL1        0.0908
     11 C           6.6133    0.0400   25.3086 C.3     1  UNL1        0.0215
     12 C           6.3756   -1.0048   26.3584 C.3     1  UNL1        0.0033
     13 C           6.6330   -1.9262   27.5137 C.3     1  UNL1        0.0001
     14 C           7.8009   -0.6496   26.6623 C.3     1  UNL1        0.0001
     15 C           5.0397   -1.6800   26.4557 C.3     1  UNL1        0.0215
     16 C           3.9414   -1.3104   25.5033 C.3     1  UNL1        0.0908
     17 C           4.0654   -1.5256   21.7333 C.ar    1  UNL1        0.0025
     18 C           5.2648   -1.0816   20.9495 C.ar    1  UNL1        0.0032
     19 C           6.3063   -2.0811   20.5418 C.ar    1  UNL1        0.0369
     20 C           6.1485   -3.5246   20.9180 C.ar    1  UNL1        0.1386
     21 C           4.9491   -3.9686   21.7018 C.ar    1  UNL1        0.0369
     22 C           3.9075   -2.9690   22.1095 C.ar    1  UNL1        0.0032
     23 O           7.1900   -4.5241   20.5103 O.3     1  UNL1       -0.4751
     24 C           8.4680   -4.6350   21.2877 C.3     1  UNL1        0.2101
     25 C           8.7535   -5.8703   22.0893 C.3     1  UNL1        0.0736
     26 C           8.2179   -5.9994   23.4845 C.ar    1  UNL1       -0.0183
     27 C           8.3577   -7.2967   24.2244 C.ar    1  UNL1       -0.0018
     28 C           7.8222   -7.4259   25.6196 C.ar    1  UNL1        0.0293
     29 C           7.1469   -6.2577   26.2748 C.ar    1  UNL1        0.1401
     30 F           6.6113   -6.3869   27.6700 F       1  UNL1       -0.2042
     31 C           7.0071   -4.9604   25.5350 C.ar    1  UNL1        0.0293
     32 C           7.5426   -4.8312   24.1398 C.ar    1  UNL1       -0.0018
     33 C           2.0960    1.7335   25.2689 C.3     1  UNL1        0.1756
     34 C           2.6873    3.1016   25.4376 C.2     1  UNL1        0.0816
     35 O           4.1720    3.2653   25.5750 O.co2   1  UNL1       -0.5464
     36 O           1.7939    4.3061   25.4690 O.co2   1  UNL1       -0.5464
     37 O           1.5615    0.9953   26.4602 O.3     1  UNL1       -0.3509
     38 C           0.9170    1.7516   27.5839 C.3     1  UNL1        0.0938
     39 C           2.2060    1.7121   28.3499 C.3     1  UNL1        0.0297
     40 C          -0.3721    1.7911   26.8180 C.3     1  UNL1        0.0297
     41 C           0.2724    2.5078   28.7076 C.3     1  UNL1        0.0297
@<TRIPOS>UNITY_ATOM_ATTR
35 1
charge -1
@<TRIPOS>BOND
     1     1     2    1
     2     2     3   ar
     3     3     4   ar
     4     4     5    1
     5     4     6   ar
     6     6    33    1
     7    33    37    1
     8    37    38    1
     9    38    39    1
    10    38    40    1
    11    38    41    1
    12    33    34    1
    13    34    35   ar
    14    34    36   ar
    15     6     7   ar
    16     7     9    1
    17     9    10    1
    18    10    11    1
    19    11    12    1
    20    12    13    1
    21    12    14    1
    22    12    15    1
    23    15    16    1
    24     7     8   ar
    25     8    17    1
    26    17    18   ar
    27    18    19   ar
    28    19    20   ar
    29    20    23    1
    30    23    24    1
    31    24    25    1
    32    25    26    1
    33    26    27   ar
    34    27    28   ar
    35    28    29   ar
    36    29    30    1
    37    29    31   ar
    38    31    32   ar
    39    20    21   ar
    40    21    22   ar
    41     8     2   ar
    42    22    17   ar
    43    16     9    1
    44    32    26   ar
@<TRIPOS>MOLECULE
*****
 41 44 0 0 0
SMALL
GASTEIGER

@<TRIPOS>ATOM
      1 C           3.2123   -0.4057   26.6861 C.3     1  UNL1        0.0521
      2 C           3.5903   -0.8018   25.2896 C.ar    1  UNL1        0.0601
      3 N           4.4823   -1.9859   25.0613 N.ar    1  UNL1       -0.2541
      4 C           4.8603   -2.3820   23.6648 C.ar    1  UNL1        0.0588
      5 C           5.7523   -3.5662   23.4366 C.3     1  UNL1        0.0519
      6 C           4.3463   -1.5941   22.4966 C.ar    1  UNL1        0.0368
      7 C           3.4542   -0.4099   22.7248 C.ar    1  UNL1        0.0487
      8 C           3.0762   -0.0138   24.1213 C.ar    1  UNL1        0.0267
      9 N           2.9402    0.3781   21.5566 N.pl3   1  UNL1       -0.3076
     10 C           1.6582   -0.0215   20.8881 C.3     1  UNL1        0.0908
     11 C           1.1441    0.7666   19.7199 C.3     1  UNL1        0.0215
     12 C           1.9121    1.9542   19.2201 C.3     1  UNL1        0.0033
     13 C           2.2791    3.1469   18.3878 C.3     1  UNL1        0.0001
     14 C           0.7576    1.9689   18.2626 C.3     1  UNL1        0.0001
     15 C           3.1942    2.3538   19.8886 C.3     1  UNL1        0.0215
     16 C           3.7081    1.5657   21.0568 C.3     1  UNL1        0.0908
     17 C           2.1842    1.1704   24.3496 C.ar    1  UNL1        0.0025
     18 C           0.6938    1.0041   24.3159 C.ar    1  UNL1        0.0032
     19 C          -0.1983    2.1882   24.5441 C.ar    1  UNL1        0.0369
     20 C           0.4000    3.5386   24.8060 C.ar    1  UNL1        0.1386
     21 C           1.8904    3.7048   24.8397 C.ar    1  UNL1        0.0369
     22 C           2.7825    2.5206   24.6115 C.ar    1  UNL1        0.0032
     23 O          -0.4920    4.7227   25.0342 O.3     1  UNL1       -0.4751
     24 C          -1.2799    4.8342   26.3058 C.3     1  UNL1        0.2101
     25 C          -0.5873    4.7103   27.6305 C.3     1  UNL1        0.0736
     26 C          -0.1123    3.3693   28.1060 C.ar    1  UNL1       -0.0183
     27 C          -0.9606    2.1520   27.8863 C.ar    1  UNL1       -0.0018
     28 C          -0.4856    0.8110   28.3618 C.ar    1  UNL1        0.0293
     29 C           0.8379    0.6873   29.0569 C.ar    1  UNL1        0.1401
     30 F           1.3129   -0.6536   29.5324 F       1  UNL1       -0.2042
     31 C           1.6863    1.9047   29.2766 C.ar    1  UNL1        0.0293
     32 C           1.2112    3.2457   28.8012 C.ar    1  UNL1       -0.0018
     33 C           4.7243   -1.9902   21.1001 C.3     1  UNL1        0.1756
     34 C           6.0886   -1.6615   20.5706 C.2     1  UNL1        0.0816
     35 O           7.1537   -2.7172   20.5350 O.co2   1  UNL1       -0.5464
     36 O           6.3880   -0.2772   20.0766 O.co2   1  UNL1       -0.5464
     37 O           3.7379   -2.7150   20.2331 O.3     1  UNL1       -0.3509
     38 C           4.1705   -3.9188   19.4498 C.3     1  UNL1        0.0938
     39 C           3.8830   -4.7929   20.6344 C.3     1  UNL1        0.0297
     40 C           4.4579   -3.0447   18.2651 C.3     1  UNL1        0.0297
     41 C           4.6031   -5.1227   18.6664 C.3     1  UNL1        0.0297
@<TRIPOS>UNITY_ATOM_ATTR
35 1
charge -1
@<TRIPOS>BOND
     1     1     2    1
     2     2     3   ar
     3     3     4   ar
     4     4     5    1
     5     4     6   ar
     6     6    33    1
     7    33    37    1
     8    37    38    1
     9    38    39    1
    10    38    40    1
    11    38    41    1
    12    33    34    1
    13    34    35   ar
    14    34    36   ar
    15     6     7   ar
    16     7     9    1
    17     9    10    1
    18    10    11    1
    19    11    12    1
    20    12    13    1
    21    12    14    1
    22    12    15    1
    23    15    16    1
    24     7     8   ar
    25     8    17    1
    26    17    18   ar
    27    18    19   ar
    28    19    20   ar
    29    20    23    1
    30    23    24    1
    31    24    25    1
    32    25    26    1
    33    26    27   ar
    34    27    28   ar
    35    28    29   ar
    36    29    30    1
    37    29    31   ar
    38    31    32   ar
    39    20    21   ar
    40    21    22   ar
    41     8     2   ar
    42    22    17   ar
    43    16     9    1
    44    32    26   ar
