@<TRIPOS>MOLECULE
*****
 34 38 0 0 0
SMALL
GASTEIGER

@<TRIPOS>ATOM
      1 N           0.6582    1.4685   27.2183 N.3     1  UNL1       -0.1541
      2 C           1.0563    1.9031   25.8390 C.3     1  UNL1        0.0963
      3 C          -0.1368    2.5416   25.1918 C.3     1  UNL1        0.0264
      4 C          -1.2723    2.5016   26.1712 C.3     1  UNL1        0.0264
      5 C          -0.7809    1.8384   27.4237 C.3     1  UNL1        0.0963
      6 C          -1.4715    3.1143   24.8166 C.3     1  UNL1        0.0562
      7 C          -2.9105    3.5235   24.9249 C.ar    1  UNL1        0.0600
      8 C          -3.4500    4.0302   26.2296 C.ar    1  UNL1        0.0148
      9 C          -4.8890    4.4394   26.3380 C.ar    1  UNL1        0.0028
     10 C          -5.7885    4.3420   25.1415 C.ar    1  UNL1        0.0207
     11 C          -5.2490    3.8354   23.8368 C.ar    1  UNL1        0.0984
     12 N          -3.8100    3.4261   23.7286 N.ar    1  UNL1       -0.2481
     13 S           1.5438    0.7842   28.2171 S.O2    1  UNL1        0.0814
     14 O           2.6791    1.6834   27.8266 O.2     1  UNL1       -0.1513
     15 O           0.4085   -0.1150   28.6076 O.2     1  UNL1       -0.1513
     16 C           5.7147   -1.5487   30.4624 C.3     1  UNL1        0.1321
     17 N           4.3465   -0.9725   30.2479 N.ar    1  UNL1       -0.3047
     18 C           3.2377   -0.9340   31.2574 C.ar    1  UNL1        0.1800
     19 N           2.0529   -0.2713   30.6195 N.ar    1  UNL1       -0.2042
     20 C           2.4293    0.0998   29.2158 C.ar    1  UNL1        0.2217
     21 C           3.8469   -0.3335   28.9861 C.ar    1  UNL1        0.1172
     22 C          -1.1709    3.5848   23.4244 C.3     1  UNL1        0.0952
     23 N          -0.1792    2.8417   22.5792 N.am    1  UNL1       -0.3005
     24 C          -0.5782    2.3358   21.2247 C.2     1  UNL1        0.2467
     25 O          -1.9690    2.5731   20.7153 O.2     1  UNL1       -0.2701
     26 H           0.7336    2.6860   22.9136 H       1  UNL1        0.1498
     27 C           0.4135    1.5926   20.3796 C.ar    1  UNL1        0.0640
     28 C           0.6217    0.1216   20.5862 C.ar    1  UNL1        0.0062
     29 C           1.6134   -0.6216   19.7411 C.ar    1  UNL1        0.0116
     30 C           2.3969    0.1063   18.6892 C.ar    1  UNL1        0.0585
     31 CL          3.3886   -0.6368   17.8441 Cl      1  UNL1       -0.0822
     32 C           2.1886    1.5774   18.4825 C.ar    1  UNL1        0.0229
     33 C           1.1969    2.3205   19.3277 C.ar    1  UNL1        0.0629
     34 CL          0.9887    3.7916   19.1210 Cl      1  UNL1       -0.0821
@<TRIPOS>BOND
     1    16    17    1
     2    17    18   ar
     3    18    19   ar
     4    19    20   ar
     5    20    13    1
     6    13    14    2
     7    13    15    2
     8    13     1    1
     9     1     2    1
    10     3     2    1
    11     3     4    1
    12     4     5    1
    13     4     6    1
    14     6    22    1
    15    22    23    1
    16    23    24   am
    17    24    25    2
    18    24    27    1
    19    27    28   ar
    20    28    29   ar
    21    29    30   ar
    22    30    31    1
    23    30    32   ar
    24    32    33   ar
    25    33    34    1
    26     6     7    1
    27     7     8   ar
    28     8     9   ar
    29     9    10   ar
    30    10    11   ar
    31    11    12   ar
    32    20    21   ar
    33    21    17   ar
    34     5     1    1
    35    33    27   ar
    36    12     7   ar
    37     6     3    1
    38    23    26    1
@<TRIPOS>MOLECULE
*****
 34 38 0 0 0
SMALL
GASTEIGER

@<TRIPOS>ATOM
      1 N           2.2736    0.6122   30.7519 N.3     1  UNL1       -0.1541
      2 C           2.7752   -0.7956   30.8813 C.3     1  UNL1        0.0963
      3 C           3.5042   -0.9097   32.1872 C.3     1  UNL1        0.0264
      4 C           3.4532    0.4275   32.8650 C.3     1  UNL1        0.0264
      5 C           2.6927    1.3681   31.9779 C.3     1  UNL1        0.0963
      6 C           4.1569   -0.7213   33.5245 C.3     1  UNL1        0.0562
      7 C           4.6212   -0.0534   34.7848 C.ar    1  UNL1        0.0600
      8 C           5.8984   -0.4906   35.4387 C.ar    1  UNL1        0.0148
      9 C           6.3627    0.1773   36.6990 C.ar    1  UNL1        0.0028
     10 C           5.5497    1.2826   37.3054 C.ar    1  UNL1        0.0207
     11 C           4.2726    1.7197   36.6515 C.ar    1  UNL1        0.0984
     12 N           3.8083    1.0518   35.3913 N.ar    1  UNL1       -0.2481
     13 S           1.4905    1.1667   29.5990 S.O2    1  UNL1        0.0814
     14 O           2.4340    2.3299   29.5176 O.2     1  UNL1       -0.1513
     15 O           0.5470    0.0034   29.6804 O.2     1  UNL1       -0.1513
     16 C           0.0506    4.1133   25.4607 C.3     1  UNL1        0.1321
     17 N           0.0455    3.0756   26.5440 N.ar    1  UNL1       -0.3047
     18 C          -1.0409    2.0735   26.7999 C.ar    1  UNL1        0.1800
     19 N          -0.6318    1.2365   27.9755 N.ar    1  UNL1       -0.2042
     20 C           0.7074    1.7212   28.4461 C.ar    1  UNL1        0.2217
     21 C           1.1260    2.8578   27.5614 C.ar    1  UNL1        0.1172
     22 C           4.6994   -2.1021   33.7464 C.3     1  UNL1        0.0952
     23 N           5.0183   -2.9802   32.5729 N.am    1  UNL1       -0.3005
     24 C           6.4266   -3.0708   32.0646 C.2     1  UNL1        0.2467
     25 O           7.5161   -2.2832   32.7301 O.2     1  UNL1       -0.2701
     26 H           4.3032   -3.4970   32.1362 H       1  UNL1        0.1498
     27 C           6.7455   -3.9488   30.8911 C.ar    1  UNL1        0.0640
     28 C           7.2916   -5.3282   31.1128 C.ar    1  UNL1        0.0062
     29 C           7.6104   -6.2063   29.9393 C.ar    1  UNL1        0.0116
     30 C           7.3832   -5.7050   28.5439 C.ar    1  UNL1        0.0585
     31 CL          7.7021   -6.5831   27.3703 Cl      1  UNL1       -0.0822
     32 C           6.8371   -4.3256   28.3221 C.ar    1  UNL1        0.0229
     33 C           6.5183   -3.4476   29.4957 C.ar    1  UNL1        0.0629
     34 CL          5.9722   -2.0682   29.2739 Cl      1  UNL1       -0.0821
@<TRIPOS>BOND
     1    16    17    1
     2    17    18   ar
     3    18    19   ar
     4    19    20   ar
     5    20    13    1
     6    13    14    2
     7    13    15    2
     8    13     1    1
     9     1     2    1
    10     3     2    1
    11     3     4    1
    12     4     5    1
    13     4     6    1
    14     6    22    1
    15    22    23    1
    16    23    24   am
    17    24    25    2
    18    24    27    1
    19    27    28   ar
    20    28    29   ar
    21    29    30   ar
    22    30    31    1
    23    30    32   ar
    24    32    33   ar
    25    33    34    1
    26     6     7    1
    27     7     8   ar
    28     8     9   ar
    29     9    10   ar
    30    10    11   ar
    31    11    12   ar
    32    20    21   ar
    33    21    17   ar
    34     5     1    1
    35    33    27   ar
    36    12     7   ar
    37     6     3    1
    38    23    26    1
@<TRIPOS>MOLECULE
*****
 34 38 0 0 0
SMALL
GASTEIGER

@<TRIPOS>ATOM
      1 N           5.3492   -1.8481   26.4944 N.3     1  UNL1       -0.1541
      2 C           5.1623   -1.7212   25.0115 C.3     1  UNL1        0.0963
      3 C           5.8774   -2.8646   24.3547 C.3     1  UNL1        0.0264
      4 C           6.5062   -3.6981   25.4317 C.3     1  UNL1        0.0264
      5 C           6.1798   -3.0698   26.7541 C.3     1  UNL1        0.0963
      6 C           6.6660   -4.0879   23.9921 C.3     1  UNL1        0.0562
      7 C           7.4997   -5.3251   24.1483 C.ar    1  UNL1        0.0600
      8 C           7.6344   -5.9738   25.4940 C.ar    1  UNL1        0.0148
      9 C           8.4681   -7.2109   25.6502 C.ar    1  UNL1        0.0028
     10 C           9.1671   -7.7994   24.4605 C.ar    1  UNL1        0.0207
     11 C           9.0324   -7.1507   23.1149 C.ar    1  UNL1        0.0984
     12 N           8.1987   -5.9136   22.9587 N.ar    1  UNL1       -0.2481
     13 S           4.8016   -0.9167   27.5349 S.O2    1  UNL1        0.0814
     14 O           3.5180   -1.6926   27.5539 O.2     1  UNL1       -0.1513
     15 O           6.0852   -0.1408   27.5159 O.2     1  UNL1       -0.1513
     16 C           1.5019    1.5005   30.8741 C.3     1  UNL1        0.1321
     17 N           2.7373    1.1257   30.1103 N.ar    1  UNL1       -0.3047
     18 C           4.0854    1.7700   30.2430 C.ar    1  UNL1        0.1800
     19 N           5.0227    1.0833   29.2945 N.ar    1  UNL1       -0.2042
     20 C           4.2540    0.0146   28.5755 C.ar    1  UNL1        0.2217
     21 C           2.8416    0.0408   29.0797 C.ar    1  UNL1        0.1172
     22 C           6.5362   -4.0481   22.4982 C.3     1  UNL1        0.0952
     23 N           5.7626   -2.9433   21.8418 N.am    1  UNL1       -0.3005
     24 C           4.6151   -3.2689   20.9323 C.2     1  UNL1        0.2467
     25 O           4.2411   -4.6993   20.6794 O.2     1  UNL1       -0.2701
     26 H           6.0081   -2.0045   22.0078 H       1  UNL1        0.1498
     27 C           3.8415   -2.1641   20.2759 C.ar    1  UNL1        0.0640
     28 C           2.8028   -1.4111   21.0532 C.ar    1  UNL1        0.0062
     29 C           2.0292   -0.3063   20.3968 C.ar    1  UNL1        0.0116
     30 C           2.2943    0.0456   18.9629 C.ar    1  UNL1        0.0585
     31 CL          1.5207    1.1504   18.3065 Cl      1  UNL1       -0.0822
     32 C           3.3330   -0.7074   18.1856 C.ar    1  UNL1        0.0229
     33 C           4.1066   -1.8122   18.8420 C.ar    1  UNL1        0.0629
     34 CL          5.1453   -2.5651   18.0647 Cl      1  UNL1       -0.0821
@<TRIPOS>BOND
     1    16    17    1
     2    17    18   ar
     3    18    19   ar
     4    19    20   ar
     5    20    13    1
     6    13    14    2
     7    13    15    2
     8    13     1    1
     9     1     2    1
    10     3     2    1
    11     3     4    1
    12     4     5    1
    13     4     6    1
    14     6    22    1
    15    22    23    1
    16    23    24   am
    17    24    25    2
    18    24    27    1
    19    27    28   ar
    20    28    29   ar
    21    29    30   ar
    22    30    31    1
    23    30    32   ar
    24    32    33   ar
    25    33    34    1
    26     6     7    1
    27     7     8   ar
    28     8     9   ar
    29     9    10   ar
    30    10    11   ar
    31    11    12   ar
    32    20    21   ar
    33    21    17   ar
    34     5     1    1
    35    33    27   ar
    36    12     7   ar
    37     6     3    1
    38    23    26    1
@<TRIPOS>MOLECULE
*****
 34 38 0 0 0
SMALL
GASTEIGER

@<TRIPOS>ATOM
      1 N          -1.0970    2.9875   22.8940 N.3     1  UNL1       -0.1541
      2 C           0.1814    2.2548   22.6130 C.3     1  UNL1        0.0963
      3 C           0.7336    1.7683   23.9200 C.3     1  UNL1        0.0264
      4 C          -0.2034    2.2002   25.0087 C.3     1  UNL1        0.0264
      5 C          -1.3348    2.9538   24.3746 C.3     1  UNL1        0.0963
      6 C           1.0317    1.4197   25.3481 C.3     1  UNL1        0.0562
      7 C           0.8829    1.3315   26.8381 C.ar    1  UNL1        0.0600
      8 C          -0.4485    0.9922   27.4401 C.ar    1  UNL1        0.0148
      9 C          -0.5973    0.9040   28.9301 C.ar    1  UNL1        0.0028
     10 C           0.5853    1.1553   29.8181 C.ar    1  UNL1        0.0207
     11 C           1.9165    1.4946   29.2161 C.ar    1  UNL1        0.0984
     12 N           2.0653    1.5827   27.7262 N.ar    1  UNL1       -0.2481
     13 S          -1.9822    3.6394   21.8735 S.O2    1  UNL1        0.0814
     14 O          -1.6951    2.5244   20.9121 O.2     1  UNL1       -0.1513
     15 O          -2.2693    4.7545   22.8349 O.2     1  UNL1       -0.1513
     16 C          -5.0925    4.3977   17.6744 C.3     1  UNL1        0.1321
     17 N          -4.2970    4.6399   18.9229 N.ar    1  UNL1       -0.3047
     18 C          -4.1620    5.9492   19.6423 C.ar    1  UNL1        0.1800
     19 N          -3.2785    5.7338   20.8351 N.ar    1  UNL1       -0.2042
     20 C          -2.8674    4.2914   20.8530 C.ar    1  UNL1        0.2217
     21 C          -3.4968    3.6153   19.6712 C.ar    1  UNL1        0.1172
     22 C           2.3185    0.6697   25.1701 C.3     1  UNL1        0.0952
     23 N           2.4252   -0.3988   24.1227 N.am    1  UNL1       -0.3005
     24 C           3.5854   -0.4040   23.1720 C.2     1  UNL1        0.2467
     25 O           4.6390    0.6592   23.2688 O.2     1  UNL1       -0.2701
     26 H           1.7336   -1.0966   24.0592 H       1  UNL1        0.1498
     27 C           3.6920   -1.4725   22.1246 C.ar    1  UNL1        0.0640
     28 C           3.0956   -1.2530   20.7659 C.ar    1  UNL1        0.0062
     29 C           3.2022   -2.3215   19.7185 C.ar    1  UNL1        0.0116
     30 C           3.9053   -3.6094   20.0298 C.ar    1  UNL1        0.0585
     31 CL          4.0119   -4.6779   18.9825 Cl      1  UNL1       -0.0822
     32 C           4.5017   -3.8289   21.3886 C.ar    1  UNL1        0.0229
     33 C           4.3951   -2.7605   22.4360 C.ar    1  UNL1        0.0629
     34 CL          4.9915   -2.9799   23.7947 Cl      1  UNL1       -0.0821
@<TRIPOS>BOND
     1    16    17    1
     2    17    18   ar
     3    18    19   ar
     4    19    20   ar
     5    20    13    1
     6    13    14    2
     7    13    15    2
     8    13     1    1
     9     1     2    1
    10     3     2    1
    11     3     4    1
    12     4     5    1
    13     4     6    1
    14     6    22    1
    15    22    23    1
    16    23    24   am
    17    24    25    2
    18    24    27    1
    19    27    28   ar
    20    28    29   ar
    21    29    30   ar
    22    30    31    1
    23    30    32   ar
    24    32    33   ar
    25    33    34    1
    26     6     7    1
    27     7     8   ar
    28     8     9   ar
    29     9    10   ar
    30    10    11   ar
    31    11    12   ar
    32    20    21   ar
    33    21    17   ar
    34     5     1    1
    35    33    27   ar
    36    12     7   ar
    37     6     3    1
    38    23    26    1
@<TRIPOS>MOLECULE
*****
 34 38 0 0 0
SMALL
GASTEIGER

@<TRIPOS>ATOM
      1 N           0.9510    1.4910   28.2960 N.3     1  UNL1       -0.1541
      2 C           1.5054    1.6781   26.9148 C.3     1  UNL1        0.0963
      3 C           0.4158    2.2392   26.0501 C.3     1  UNL1        0.0264
      4 C          -0.8121    2.3989   26.8968 C.3     1  UNL1        0.0264
      5 C          -0.4812    1.9365   28.2849 C.3     1  UNL1        0.0963
      6 C          -0.8449    2.7850   25.4478 C.3     1  UNL1        0.0562
      7 C          -2.2655    3.2532   25.3351 C.ar    1  UNL1        0.0600
      8 C          -3.0159    3.6749   26.5636 C.ar    1  UNL1        0.0148
      9 C          -4.4365    4.1431   26.4509 C.ar    1  UNL1        0.0028
     10 C          -5.1067    4.1896   25.1097 C.ar    1  UNL1        0.0207
     11 C          -4.3563    3.7680   23.8813 C.ar    1  UNL1        0.0984
     12 N          -2.9357    3.2998   23.9940 N.ar    1  UNL1       -0.2481
     13 S           1.6978    0.9529   29.4804 S.O2    1  UNL1        0.0814
     14 O           2.9973    1.3254   28.8303 O.2     1  UNL1       -0.1513
     15 O           0.3983    0.5804   30.1305 O.2     1  UNL1       -0.1513
     16 C           4.5498   -2.2040   32.6079 C.3     1  UNL1        0.1321
     17 N           3.7555   -1.0362   32.1023 N.ar    1  UNL1       -0.3047
     18 C           3.4320    0.2098   32.8724 C.ar    1  UNL1        0.1800
     19 N           2.6218    1.1065   31.9839 N.ar    1  UNL1       -0.2042
     20 C           2.4446    0.4148   30.6648 C.ar    1  UNL1        0.2217
     21 C           3.1452   -0.9094   30.7380 C.ar    1  UNL1        0.1172
     22 C          -0.3843    3.0086   24.0378 C.3     1  UNL1        0.0952
     23 N           0.1147    1.8545   23.2199 N.am    1  UNL1       -0.3005
     24 C           1.5056    1.8787   22.6589 C.2     1  UNL1        0.2467
     25 O           2.3974    3.0571   22.9157 O.2     1  UNL1       -0.2701
     26 H          -0.4706    1.0810   23.0514 H       1  UNL1        0.1498
     27 C           2.0047    0.7246   21.8410 C.ar    1  UNL1        0.0640
     28 C           1.7700    0.6980   20.3597 C.ar    1  UNL1        0.0062
     29 C           2.2691   -0.4561   19.5418 C.ar    1  UNL1        0.0116
     30 C           3.0028   -1.5838   20.2053 C.ar    1  UNL1        0.0585
     31 CL          3.5019   -2.7379   19.3874 Cl      1  UNL1       -0.0822
     32 C           3.2375   -1.5572   21.6866 C.ar    1  UNL1        0.0229
     33 C           2.7385   -0.4031   22.5044 C.ar    1  UNL1        0.0629
     34 CL          2.9731   -0.3765   23.9857 Cl      1  UNL1       -0.0821
@<TRIPOS>BOND
     1    16    17    1
     2    17    18   ar
     3    18    19   ar
     4    19    20   ar
     5    20    13    1
     6    13    14    2
     7    13    15    2
     8    13     1    1
     9     1     2    1
    10     3     2    1
    11     3     4    1
    12     4     5    1
    13     4     6    1
    14     6    22    1
    15    22    23    1
    16    23    24   am
    17    24    25    2
    18    24    27    1
    19    27    28   ar
    20    28    29   ar
    21    29    30   ar
    22    30    31    1
    23    30    32   ar
    24    32    33   ar
    25    33    34    1
    26     6     7    1
    27     7     8   ar
    28     8     9   ar
    29     9    10   ar
    30    10    11   ar
    31    11    12   ar
    32    20    21   ar
    33    21    17   ar
    34     5     1    1
    35    33    27   ar
    36    12     7   ar
    37     6     3    1
    38    23    26    1
@<TRIPOS>MOLECULE
*****
 34 38 0 0 0
SMALL
GASTEIGER

@<TRIPOS>ATOM
      1 N           2.0936    0.8530   29.9795 N.3     1  UNL1       -0.1541
      2 C           0.7253    1.4660   29.9332 C.3     1  UNL1        0.0963
      3 C           0.4541    1.8880   28.5196 C.3     1  UNL1        0.0264
      4 C           1.6548    1.5358   27.6922 C.3     1  UNL1        0.0264
      5 C           2.6680    0.8961   28.5945 C.3     1  UNL1        0.0963
      6 C           0.4696    2.1953   27.0515 C.3     1  UNL1        0.0562
      7 C           0.9553    2.2843   25.6351 C.ar    1  UNL1        0.0600
      8 C           1.7398    3.4810   25.1850 C.ar    1  UNL1        0.0148
      9 C           2.2255    3.5700   23.7686 C.ar    1  UNL1        0.0028
     10 C           1.9266    2.4622   22.8023 C.ar    1  UNL1        0.0207
     11 C           1.1422    1.2656   23.2524 C.ar    1  UNL1        0.0984
     12 N           0.6565    1.1767   24.6687 N.ar    1  UNL1       -0.2481
     13 S           2.7689    0.2948   31.1970 S.O2    1  UNL1        0.0814
     14 O           3.3578    1.6432   31.4886 O.2     1  UNL1       -0.1513
     15 O           2.1799   -1.0536   30.9055 O.2     1  UNL1       -0.1513
     16 C           5.0464   -0.0872   35.9455 C.3     1  UNL1        0.1321
     17 N           4.4910   -0.4390   34.5972 N.ar    1  UNL1       -0.3047
     18 C           4.4757   -1.8056   33.9791 C.ar    1  UNL1        0.1800
     19 N           3.8287   -1.6971   32.6303 N.ar    1  UNL1       -0.2042
     20 C           3.4442   -0.2634   32.4146 C.ar    1  UNL1        0.2217
     21 C           3.8535    0.5142   33.6302 C.ar    1  UNL1        0.1172
     22 C          -0.8842    2.8239   26.9027 C.3     1  UNL1        0.0952
     23 N          -1.6429    2.6753   25.6173 N.am    1  UNL1       -0.3005
     24 C          -2.3593    3.8543   25.0285 C.2     1  UNL1        0.2467
     25 O          -2.3169    5.1820   25.7253 O.2     1  UNL1       -0.2701
     26 H          -1.6706    1.8039   25.1600 H       1  UNL1        0.1498
     27 C          -3.1179    3.7057   23.7431 C.ar    1  UNL1        0.0640
     28 C          -2.3788    3.6355   22.4397 C.ar    1  UNL1        0.0062
     29 C          -3.1375    3.4869   21.1543 C.ar    1  UNL1        0.0116
     30 C          -4.6354    3.4085   21.1722 C.ar    1  UNL1        0.0585
     31 CL         -5.3940    3.2599   19.8868 Cl      1  UNL1       -0.0822
     32 C          -5.3745    3.4787   22.4756 C.ar    1  UNL1        0.0229
     33 C          -4.6158    3.6273   23.7610 C.ar    1  UNL1        0.0629
     34 CL         -5.3549    3.6974   25.0644 Cl      1  UNL1       -0.0821
@<TRIPOS>BOND
     1    16    17    1
     2    17    18   ar
     3    18    19   ar
     4    19    20   ar
     5    20    13    1
     6    13    14    2
     7    13    15    2
     8    13     1    1
     9     1     2    1
    10     3     2    1
    11     3     4    1
    12     4     5    1
    13     4     6    1
    14     6    22    1
    15    22    23    1
    16    23    24   am
    17    24    25    2
    18    24    27    1
    19    27    28   ar
    20    28    29   ar
    21    29    30   ar
    22    30    31    1
    23    30    32   ar
    24    32    33   ar
    25    33    34    1
    26     6     7    1
    27     7     8   ar
    28     8     9   ar
    29     9    10   ar
    30    10    11   ar
    31    11    12   ar
    32    20    21   ar
    33    21    17   ar
    34     5     1    1
    35    33    27   ar
    36    12     7   ar
    37     6     3    1
    38    23    26    1
@<TRIPOS>MOLECULE
*****
 34 38 0 0 0
SMALL
GASTEIGER

@<TRIPOS>ATOM
      1 N           2.8796    0.1852   26.8990 N.3     1  UNL1       -0.1541
      2 C           2.9692    0.1651   25.4019 C.3     1  UNL1        0.0963
      3 C           1.8069    0.9416   24.8576 C.3     1  UNL1        0.0264
      4 C           0.9991    1.4415   26.0184 C.3     1  UNL1        0.0264
      5 C           1.6620    0.9741   27.2801 C.3     1  UNL1        0.0963
      6 C           0.5720    1.7579   24.6157 C.3     1  UNL1        0.0562
      7 C          -0.6637    2.5613   24.8946 C.ar    1  UNL1        0.0600
      8 C          -1.3053    3.3561   23.7962 C.ar    1  UNL1        0.0148
      9 C          -2.5410    4.1595   24.0751 C.ar    1  UNL1        0.0028
     10 C          -3.1349    4.1679   25.4526 C.ar    1  UNL1        0.0207
     11 C          -2.4933    3.3731   26.5509 C.ar    1  UNL1        0.0984
     12 N          -1.2577    2.5698   26.2720 N.ar    1  UNL1       -0.2481
     13 S           3.8392   -0.4688   27.8485 S.O2    1  UNL1        0.0814
     14 O           3.3869   -1.8186   27.3759 O.2     1  UNL1       -0.1513
     15 O           4.2914    0.8811   28.3212 O.2     1  UNL1       -0.1513
     16 C           6.5062   -1.7055   32.2347 C.3     1  UNL1        0.1321
     17 N           6.0246   -1.6912   30.8141 N.ar    1  UNL1       -0.3047
     18 C           6.5260   -2.5669   29.7043 C.ar    1  UNL1        0.1800
     19 N           5.7684   -2.2156   28.4584 N.ar    1  UNL1       -0.2042
     20 C           4.7988   -1.1227   28.7981 C.ar    1  UNL1        0.2217
     21 C           4.9571   -0.7986   30.2540 C.ar    1  UNL1        0.1172
     22 C           0.5740    1.7953   23.1161 C.3     1  UNL1        0.0952
     23 N           1.6125    1.0323   22.3483 N.am    1  UNL1       -0.3005
     24 C           1.2215    0.2557   21.1260 C.2     1  UNL1        0.2467
     25 O          -0.2079    0.2420   20.6716 O.2     1  UNL1       -0.2701
     26 H           2.5506    1.0414   22.6466 H       1  UNL1        0.1498
     27 C           2.2600   -0.5072   20.3582 C.ar    1  UNL1        0.0640
     28 C           2.9669   -1.6646   20.9991 C.ar    1  UNL1        0.0062
     29 C           4.0053   -2.4276   20.2312 C.ar    1  UNL1        0.0116
     30 C           4.3369   -2.0331   18.8225 C.ar    1  UNL1        0.0585
     31 CL          5.3753   -2.7960   18.0547 Cl      1  UNL1       -0.0822
     32 C           3.6299   -0.8757   18.1816 C.ar    1  UNL1        0.0229
     33 C           2.5915   -0.1128   18.9495 C.ar    1  UNL1        0.0629
     34 CL          1.8845    1.0446   18.3086 Cl      1  UNL1       -0.0821
@<TRIPOS>BOND
     1    16    17    1
     2    17    18   ar
     3    18    19   ar
     4    19    20   ar
     5    20    13    1
     6    13    14    2
     7    13    15    2
     8    13     1    1
     9     1     2    1
    10     3     2    1
    11     3     4    1
    12     4     5    1
    13     4     6    1
    14     6    22    1
    15    22    23    1
    16    23    24   am
    17    24    25    2
    18    24    27    1
    19    27    28   ar
    20    28    29   ar
    21    29    30   ar
    22    30    31    1
    23    30    32   ar
    24    32    33   ar
    25    33    34    1
    26     6     7    1
    27     7     8   ar
    28     8     9   ar
    29     9    10   ar
    30    10    11   ar
    31    11    12   ar
    32    20    21   ar
    33    21    17   ar
    34     5     1    1
    35    33    27   ar
    36    12     7   ar
    37     6     3    1
    38    23    26    1
@<TRIPOS>MOLECULE
*****
 34 38 0 0 0
SMALL
GASTEIGER

@<TRIPOS>ATOM
      1 N           0.6708    1.9416   20.0455 N.3     1  UNL1       -0.1541
      2 C           1.9518    2.4058   20.6729 C.3     1  UNL1        0.0963
      3 C           2.9754    1.3247   20.4909 C.3     1  UNL1        0.0264
      4 C           2.3271    0.1922   19.7511 C.3     1  UNL1        0.0264
      5 C           0.9028    0.5735   19.4758 C.3     1  UNL1        0.0963
      6 C           3.7659    0.0926   20.1635 C.3     1  UNL1        0.0562
      7 C           4.0965   -1.2691   19.6283 C.ar    1  UNL1        0.0600
      8 C           3.1510   -2.4122   19.8504 C.ar    1  UNL1        0.0148
      9 C           3.4816   -3.7739   19.3152 C.ar    1  UNL1        0.0028
     10 C           4.7579   -3.9925   18.5578 C.ar    1  UNL1        0.0207
     11 C           5.7033   -2.8494   18.3358 C.ar    1  UNL1        0.0984
     12 N           5.3727   -1.4878   18.8710 N.ar    1  UNL1       -0.2481
     13 S          -0.6162    2.7105   19.9964 S.O2    1  UNL1        0.0814
     14 O          -0.9087    2.3112   21.4125 O.2     1  UNL1       -0.1513
     15 O          -0.3238    3.1097   18.5804 O.2     1  UNL1       -0.1513
     16 C          -5.5026    4.3969   21.0737 C.3     1  UNL1        0.1321
     17 N          -4.1493    4.2545   20.4425 N.ar    1  UNL1       -0.3047
     18 C          -3.6184    5.0703   19.3012 C.ar    1  UNL1        0.1800
     19 N          -2.2303    4.5912   18.9953 N.ar    1  UNL1       -0.2042
     20 C          -1.9033    3.4793   19.9474 C.ar    1  UNL1        0.2217
     21 C          -3.0893    3.2711   20.8419 C.ar    1  UNL1        0.1172
     22 C           5.0898    0.4659   20.7618 C.3     1  UNL1        0.0952
     23 N           5.8116   -0.5038   21.6499 N.am    1  UNL1       -0.3005
     24 C           5.3601   -0.7028   23.0664 C.2     1  UNL1        0.2467
     25 O           4.1867    0.0679   23.5948 O.2     1  UNL1       -0.2701
     26 H           6.5817   -1.0096   21.3031 H       1  UNL1        0.1498
     27 C           6.0819   -1.6725   23.9545 C.ar    1  UNL1        0.0640
     28 C           7.0832   -1.1726   24.9533 C.ar    1  UNL1        0.0062
     29 C           7.8050   -2.1423   25.8414 C.ar    1  UNL1        0.0116
     30 C           7.5255   -3.6119   25.7307 C.ar    1  UNL1        0.0585
     31 CL          8.2473   -4.5816   26.6188 Cl      1  UNL1       -0.0822
     32 C           6.5243   -4.1117   24.7318 C.ar    1  UNL1        0.0229
     33 C           5.8025   -3.1421   23.8438 C.ar    1  UNL1        0.0629
     34 CL          4.8012   -3.6419   22.8449 Cl      1  UNL1       -0.0821
@<TRIPOS>BOND
     1    16    17    1
     2    17    18   ar
     3    18    19   ar
     4    19    20   ar
     5    20    13    1
     6    13    14    2
     7    13    15    2
     8    13     1    1
     9     1     2    1
    10     3     2    1
    11     3     4    1
    12     4     5    1
    13     4     6    1
    14     6    22    1
    15    22    23    1
    16    23    24   am
    17    24    25    2
    18    24    27    1
    19    27    28   ar
    20    28    29   ar
    21    29    30   ar
    22    30    31    1
    23    30    32   ar
    24    32    33   ar
    25    33    34    1
    26     6     7    1
    27     7     8   ar
    28     8     9   ar
    29     9    10   ar
    30    10    11   ar
    31    11    12   ar
    32    20    21   ar
    33    21    17   ar
    34     5     1    1
    35    33    27   ar
    36    12     7   ar
    37     6     3    1
    38    23    26    1
@<TRIPOS>MOLECULE
*****
 34 38 0 0 0
SMALL
GASTEIGER

@<TRIPOS>ATOM
      1 N           5.3446   -1.9669   27.1256 N.3     1  UNL1       -0.1541
      2 C           5.4390   -1.9568   25.6286 C.3     1  UNL1        0.0963
      3 C           6.1895   -3.1839   25.2032 C.3     1  UNL1        0.0264
      4 C           6.5589   -3.9524   26.4373 C.3     1  UNL1        0.0264
      5 C           6.0368   -3.2002   27.6254 C.3     1  UNL1        0.0963
      6 C           6.9536   -4.4693   25.0857 C.3     1  UNL1        0.0562
      7 C           7.6667   -5.7269   25.4858 C.ar    1  UNL1        0.0600
      8 C           8.4203   -6.5205   24.4601 C.ar    1  UNL1        0.0148
      9 C           9.1334   -7.7781   24.8602 C.ar    1  UNL1        0.0028
     10 C           9.0929   -8.2419   26.2863 C.ar    1  UNL1        0.0207
     11 C           8.3393   -7.4482   27.3119 C.ar    1  UNL1        0.0984
     12 N           7.6262   -6.1907   26.9117 N.ar    1  UNL1       -0.2481
     13 S           4.6756   -0.9263   27.9738 S.O2    1  UNL1        0.0814
     14 O           3.3410   -1.5449   27.6801 O.2     1  UNL1       -0.1513
     15 O           6.0101   -0.3077   28.2676 O.2     1  UNL1       -0.1513
     16 C           1.0423    1.7101   30.7542 C.3     1  UNL1        0.1321
     17 N           2.3365    1.3261   30.1001 N.ar    1  UNL1       -0.3047
     18 C           3.6173    2.1050   30.1548 C.ar    1  UNL1        0.1800
     19 N           4.6493    1.3560   29.3650 N.ar    1  UNL1       -0.2042
     20 C           4.0065    0.1143   28.8221 C.ar    1  UNL1        0.2217
     21 C           2.5771    0.0957   29.2764 C.ar    1  UNL1        0.1172
     22 C           7.1007   -4.5495   23.5950 C.3     1  UNL1        0.0952
     23 N           6.3299   -3.6118   22.7138 N.am    1  UNL1       -0.3005
     24 C           6.3924   -3.7619   21.2227 C.2     1  UNL1        0.2467
     25 O           7.2259   -4.8498   20.6128 O.2     1  UNL1       -0.2701
     26 H           5.7829   -2.8978   23.1142 H       1  UNL1        0.1498
     27 C           5.6217   -2.8242   20.3415 C.ar    1  UNL1        0.0640
     28 C           6.0875   -1.4096   20.1626 C.ar    1  UNL1        0.0062
     29 C           5.3167   -0.4719   19.2814 C.ar    1  UNL1        0.0116
     30 C           4.0800   -0.9487   18.5790 C.ar    1  UNL1        0.0585
     31 CL          3.3093   -0.0110   17.6978 Cl      1  UNL1       -0.0822
     32 C           3.6142   -2.3633   18.7579 C.ar    1  UNL1        0.0229
     33 C           4.3850   -3.3010   19.6391 C.ar    1  UNL1        0.0629
     34 CL          3.9191   -4.7156   19.8180 Cl      1  UNL1       -0.0821
@<TRIPOS>BOND
     1    16    17    1
     2    17    18   ar
     3    18    19   ar
     4    19    20   ar
     5    20    13    1
     6    13    14    2
     7    13    15    2
     8    13     1    1
     9     1     2    1
    10     3     2    1
    11     3     4    1
    12     4     5    1
    13     4     6    1
    14     6    22    1
    15    22    23    1
    16    23    24   am
    17    24    25    2
    18    24    27    1
    19    27    28   ar
    20    28    29   ar
    21    29    30   ar
    22    30    31    1
    23    30    32   ar
    24    32    33   ar
    25    33    34    1
    26     6     7    1
    27     7     8   ar
    28     8     9   ar
    29     9    10   ar
    30    10    11   ar
    31    11    12   ar
    32    20    21   ar
    33    21    17   ar
    34     5     1    1
    35    33    27   ar
    36    12     7   ar
    37     6     3    1
    38    23    26    1
