@<TRIPOS>MOLECULE
*****
 31 34 0 0 0
SMALL
GASTEIGER

@<TRIPOS>ATOM
      1 C          -6.6835  -18.8552   22.0919 C.ar    1  UNL1       -0.0208
      2 C          -8.0800  -18.5757   21.6210 C.ar    1  UNL1       -0.0045
      3 C          -8.8014  -17.3505   22.0987 C.ar    1  UNL1       -0.0035
      4 C          -8.1265  -16.4047   23.0475 C.ar    1  UNL1       -0.0036
      5 C          -6.7301  -16.6843   23.5184 C.ar    1  UNL1       -0.0100
      6 C          -6.0085  -17.9095   23.0407 C.ar    1  UNL1       -0.0075
      7 C         -10.1979  -17.0709   21.6278 C.2     1  UNL1       -0.0011
      8 C         -10.4219  -16.3273   20.3445 C.2     1  UNL1        0.0472
      9 C         -11.8183  -16.0478   19.8736 C.2     1  UNL1        0.2354
     10 N         -12.9908  -16.5119   20.6860 N.2     1  UNL1       -0.0320
     11 C         -12.7668  -17.2554   21.9693 C.2     1  UNL1        0.3872
     12 N         -13.7191  -17.8322   22.9745 N.2     1  UNL1        0.0820
     13 N         -12.9112  -18.4682   24.0667 N.2     1  UNL1       -0.0337
     14 C         -11.4596  -18.2845   23.7365 C.2     1  UNL1        0.1921
     15 C         -11.3704  -17.5350   22.4402 C.3     1  UNL1        0.1845
     16 C         -10.3007  -18.7658   24.5582 C.3     1  UNL1        0.4355
     17 F          -9.1418  -19.2472   25.3799 F       1  UNL1       -0.1645
     18 F          -9.9472  -17.6867   25.2881 F       1  UNL1       -0.1645
     19 F         -10.4165  -20.1217   23.9272 F       1  UNL1       -0.1645
     20 C          -6.0551  -15.7385   24.4671 C.3     1  UNL1        0.0980
     21 C          -5.7330  -15.0048   25.7351 C.3     1  UNL1        0.0196
     22 C          -6.8368  -16.0202   25.7159 C.3     1  UNL1        0.0196
     23 C          -5.0389  -15.1284   23.5478 C.1     1  UNL1        0.0752
     24 N          -4.0228  -14.5183   22.6285 N.1     1  UNL1       -0.1956
     25 C          -5.9620  -20.0804   21.6142 C.3     1  UNL1        0.0476
     26 C          -5.0440  -19.9966   20.4310 C.3     1  UNL1        0.0941
     27 C          -1.7783  -17.7457   20.5687 C.3     1  UNL1        0.0946
     28 C          -2.6970  -18.9213   20.7234 C.2     1  UNL1        0.2230
     29 O          -2.1873  -20.1973   21.3251 O.2     1  UNL1       -0.2751
     30 N          -4.1252  -18.8209   20.2763 N.am    1  UNL1       -0.3040
     31 H          -4.4597  -17.9834   19.8814 H       1  UNL1        0.1494
@<TRIPOS>BOND
     1    27    28    1
     2    28    29    2
     3    28    30   am
     4    30    26    1
     5    26    25    1
     6    25     1    1
     7     1     2   ar
     8     2     3   ar
     9     3     7    1
    10     7     8    2
    11     8     9    1
    12     9    10    2
    13    10    11    1
    14    11    12    2
    15    12    13    1
    16    13    14    2
    17    14    16    1
    18    16    17    1
    19    16    18    1
    20    16    19    1
    21    14    15    1
    22     3     4   ar
    23     4     5   ar
    24     5    20    1
    25    20    23    1
    26    23    24    3
    27    20    21    1
    28    21    22    1
    29     5     6   ar
    30     6     1   ar
    31    15     7    1
    32    22    20    1
    33    15    11    1
    34    30    31    1
@<TRIPOS>MOLECULE
*****
 31 34 0 0 0
SMALL
GASTEIGER

@<TRIPOS>ATOM
      1 C          -8.0302  -18.9538   20.8757 C.ar    1  UNL1       -0.0208
      2 C          -7.2873  -18.2331   21.9615 C.ar    1  UNL1       -0.0045
      3 C          -7.9308  -17.0796   22.6722 C.ar    1  UNL1       -0.0035
      4 C          -9.3172  -16.6466   22.2972 C.ar    1  UNL1       -0.0036
      5 C         -10.0600  -17.3672   21.2115 C.ar    1  UNL1       -0.0100
      6 C          -9.4165  -18.5209   20.5007 C.ar    1  UNL1       -0.0075
      7 C          -7.1880  -16.3589   23.7580 C.2     1  UNL1       -0.0011
      8 C          -5.9692  -15.5509   23.4240 C.2     1  UNL1        0.0472
      9 C          -5.2264  -14.8303   24.5098 C.2     1  UNL1        0.2354
     10 N          -5.7024  -14.9177   25.9296 N.2     1  UNL1       -0.0320
     11 C          -6.9212  -15.7257   26.2636 C.2     1  UNL1        0.3872
     12 N          -7.6223  -15.9947   27.5621 N.2     1  UNL1        0.0820
     13 N          -8.7984  -16.8816   27.2788 N.2     1  UNL1       -0.0337
     14 C          -8.8242  -17.1607   25.8053 C.2     1  UNL1        0.1921
     15 C          -7.6640  -16.4463   25.1778 C.3     1  UNL1        0.1845
     16 C          -9.8330  -18.0059   25.0855 C.3     1  UNL1        0.4355
     17 F         -10.8418  -18.8509   24.3657 F       1  UNL1       -0.1645
     18 F          -9.4689  -19.2718   25.3808 F       1  UNL1       -0.1645
     19 F         -10.5015  -16.7669   24.5678 F       1  UNL1       -0.1645
     20 C         -11.4463  -16.9343   20.8365 C.3     1  UNL1        0.0980
     21 C         -12.9444  -16.8611   20.8212 C.3     1  UNL1        0.0196
     22 C         -12.2498  -17.8199   21.7421 C.3     1  UNL1        0.0196
     23 C         -11.1245  -15.8983   19.8006 C.1     1  UNL1        0.0752
     24 N         -10.8026  -14.8622   18.7648 N.1     1  UNL1       -0.1956
     25 C          -7.3867  -20.1074   20.1650 C.3     1  UNL1        0.0476
     26 C          -6.1393  -20.7286   20.7199 C.3     1  UNL1        0.0941
     27 C          -2.4912  -19.1753   20.8895 C.3     1  UNL1        0.0946
     28 C          -3.8362  -19.6843   21.3160 C.2     1  UNL1        0.2230
     29 O          -4.2231  -19.6580   22.7650 O.2     1  UNL1       -0.2751
     30 N          -4.7942  -20.2195   20.2934 N.am    1  UNL1       -0.3040
     31 H          -4.5402  -20.2367   19.3424 H       1  UNL1        0.1494
@<TRIPOS>BOND
     1    27    28    1
     2    28    29    2
     3    28    30   am
     4    30    26    1
     5    26    25    1
     6    25     1    1
     7     1     2   ar
     8     2     3   ar
     9     3     7    1
    10     7     8    2
    11     8     9    1
    12     9    10    2
    13    10    11    1
    14    11    12    2
    15    12    13    1
    16    13    14    2
    17    14    16    1
    18    16    17    1
    19    16    18    1
    20    16    19    1
    21    14    15    1
    22     3     4   ar
    23     4     5   ar
    24     5    20    1
    25    20    23    1
    26    23    24    3
    27    20    21    1
    28    21    22    1
    29     5     6   ar
    30     6     1   ar
    31    15     7    1
    32    22    20    1
    33    15    11    1
    34    30    31    1
@<TRIPOS>MOLECULE
*****
 31 34 0 0 0
SMALL
GASTEIGER

@<TRIPOS>ATOM
      1 C          -6.6652  -16.4400   23.2153 C.ar    1  UNL1       -0.0208
      2 C          -8.0890  -16.1883   22.8158 C.ar    1  UNL1       -0.0045
      3 C          -8.7868  -17.1384   21.8883 C.ar    1  UNL1       -0.0035
      4 C          -8.0610  -18.3403   21.3604 C.ar    1  UNL1       -0.0036
      5 C          -6.6373  -18.5920   21.7599 C.ar    1  UNL1       -0.0100
      6 C          -5.9393  -17.6419   22.6874 C.ar    1  UNL1       -0.0075
      7 C         -10.2106  -16.8868   21.4888 C.2     1  UNL1       -0.0011
      8 C         -10.5136  -16.0870   20.2565 C.2     1  UNL1        0.0472
      9 C         -11.9373  -15.8354   19.8570 C.2     1  UNL1        0.2354
     10 N         -13.0581  -16.3835   20.6898 N.2     1  UNL1       -0.0320
     11 C         -12.7551  -17.1832   21.9221 C.2     1  UNL1        0.3872
     12 N         -13.6440  -17.8455   22.9326 N.2     1  UNL1        0.0820
     13 N         -12.7696  -18.5065   23.9567 N.2     1  UNL1       -0.0337
     14 C         -11.3403  -18.2527   23.5790 C.2     1  UNL1        0.1921
     15 C         -11.3313  -17.4348   22.3216 C.3     1  UNL1        0.1845
     16 C         -10.1321  -18.7325   24.3274 C.3     1  UNL1        0.4355
     17 F          -8.9240  -19.2124   25.0757 F       1  UNL1       -0.1645
     18 F          -9.8402  -17.7140   25.1638 F       1  UNL1       -0.1645
     19 F         -10.1652  -20.0186   23.5561 F       1  UNL1       -0.1645
     20 C          -5.9114  -19.7939   21.2319 C.3     1  UNL1        0.0980
     21 C          -5.5156  -21.2271   21.0341 C.3     1  UNL1        0.0196
     22 C          -6.6096  -20.8775   21.9989 C.3     1  UNL1        0.0196
     23 C          -4.9612  -19.1276   20.2816 C.1     1  UNL1        0.0752
     24 N          -4.0110  -18.4615   19.3312 N.1     1  UNL1       -0.1956
     25 C          -5.9673  -15.4899   24.1427 C.3     1  UNL1        0.0476
     26 C          -6.0287  -15.7081   25.6255 C.3     1  UNL1        0.0941
     27 C          -8.8503  -14.5126   28.1471 C.3     1  UNL1        0.0946
     28 C          -7.9978  -15.4031   27.2926 C.2     1  UNL1        0.2230
     29 O          -8.2619  -16.8791   27.2508 O.2     1  UNL1       -0.2751
     30 N          -6.8812  -14.8176   26.4800 N.am    1  UNL1       -0.3040
     31 H          -6.7079  -13.8489   26.5075 H       1  UNL1        0.1494
@<TRIPOS>BOND
     1    27    28    1
     2    28    29    2
     3    28    30   am
     4    30    26    1
     5    26    25    1
     6    25     1    1
     7     1     2   ar
     8     2     3   ar
     9     3     7    1
    10     7     8    2
    11     8     9    1
    12     9    10    2
    13    10    11    1
    14    11    12    2
    15    12    13    1
    16    13    14    2
    17    14    16    1
    18    16    17    1
    19    16    18    1
    20    16    19    1
    21    14    15    1
    22     3     4   ar
    23     4     5   ar
    24     5    20    1
    25    20    23    1
    26    23    24    3
    27    20    21    1
    28    21    22    1
    29     5     6   ar
    30     6     1   ar
    31    15     7    1
    32    22    20    1
    33    15    11    1
    34    30    31    1
@<TRIPOS>MOLECULE
*****
 31 34 0 0 0
SMALL
GASTEIGER

@<TRIPOS>ATOM
      1 C          -6.7558  -16.8140   23.1392 C.ar    1  UNL1       -0.0208
      2 C          -8.1844  -16.5260   22.7838 C.ar    1  UNL1       -0.0045
      3 C          -8.8873  -17.3685   21.7610 C.ar    1  UNL1       -0.0035
      4 C          -8.1616  -18.4990   21.0936 C.ar    1  UNL1       -0.0036
      5 C          -6.7331  -18.7870   21.4490 C.ar    1  UNL1       -0.0100
      6 C          -6.0302  -17.9445   22.4718 C.ar    1  UNL1       -0.0075
      7 C         -10.3159  -17.0805   21.4056 C.2     1  UNL1       -0.0011
      8 C         -10.6379  -16.3065   20.1617 C.2     1  UNL1        0.0472
      9 C         -12.0664  -16.0186   19.8064 C.2     1  UNL1        0.2354
     10 N         -13.1730  -16.5046   20.6948 N.2     1  UNL1       -0.0320
     11 C         -12.8509  -17.2786   21.9387 C.2     1  UNL1        0.3872
     12 N         -13.7231  -17.8815   22.9997 N.2     1  UNL1        0.0820
     13 N         -12.8336  -18.5421   24.0109 N.2     1  UNL1       -0.0337
     14 C         -11.4117  -18.3475   23.5748 C.2     1  UNL1        0.1921
     15 C         -11.4224  -17.5666   22.2940 C.3     1  UNL1        0.1845
     16 C         -10.1930  -18.8461   24.2932 C.3     1  UNL1        0.4355
     17 F          -8.9743  -19.3449   25.0115 F       1  UNL1       -0.1645
     18 F          -9.9591  -17.9048   25.2320 F       1  UNL1       -0.1645
     19 F         -10.1569  -20.0485   23.3971 F       1  UNL1       -0.1645
     20 C          -6.0075  -19.9175   20.7815 C.3     1  UNL1        0.0980
     21 C          -5.6336  -21.3161   20.3893 C.3     1  UNL1        0.0196
     22 C          -6.7683  -21.0824   21.3420 C.3     1  UNL1        0.0196
     23 C          -4.9947  -19.1452   19.9892 C.1     1  UNL1        0.0752
     24 N          -3.9819  -18.3729   19.1969 N.1     1  UNL1       -0.1956
     25 C          -6.0530  -15.9716   24.1621 C.3     1  UNL1        0.0476
     26 C          -4.5540  -15.9483   24.2126 C.3     1  UNL1        0.0941
     27 C          -1.9244  -16.3697   21.2703 C.3     1  UNL1        0.0946
     28 C          -2.7127  -16.6435   22.5167 C.2     1  UNL1        0.2230
     29 O          -2.4480  -17.8865   23.3136 O.2     1  UNL1       -0.2751
     30 N          -3.7657  -15.6745   22.9662 N.am    1  UNL1       -0.3040
     31 H          -3.9394  -14.8587   22.4431 H       1  UNL1        0.1494
@<TRIPOS>BOND
     1    27    28    1
     2    28    29    2
     3    28    30   am
     4    30    26    1
     5    26    25    1
     6    25     1    1
     7     1     2   ar
     8     2     3   ar
     9     3     7    1
    10     7     8    2
    11     8     9    1
    12     9    10    2
    13    10    11    1
    14    11    12    2
    15    12    13    1
    16    13    14    2
    17    14    16    1
    18    16    17    1
    19    16    18    1
    20    16    19    1
    21    14    15    1
    22     3     4   ar
    23     4     5   ar
    24     5    20    1
    25    20    23    1
    26    23    24    3
    27    20    21    1
    28    21    22    1
    29     5     6   ar
    30     6     1   ar
    31    15     7    1
    32    22    20    1
    33    15    11    1
    34    30    31    1
@<TRIPOS>MOLECULE
*****
 31 34 0 0 0
SMALL
GASTEIGER

@<TRIPOS>ATOM
      1 C          -6.8063  -19.1028   22.0943 C.ar    1  UNL1       -0.0208
      2 C          -8.2121  -18.7659   21.6938 C.ar    1  UNL1       -0.0045
      3 C          -8.8244  -17.4668   22.1269 C.ar    1  UNL1       -0.0035
      4 C          -8.0310  -16.5047   22.9604 C.ar    1  UNL1       -0.0036
      5 C          -6.6253  -16.8416   23.3609 C.ar    1  UNL1       -0.0100
      6 C          -6.0129  -18.1407   22.9279 C.ar    1  UNL1       -0.0075
      7 C         -10.2302  -17.1299   21.7264 C.2     1  UNL1       -0.0011
      8 C         -10.4861  -16.3537   20.4686 C.2     1  UNL1        0.0472
      9 C         -11.8918  -16.0168   20.0682 C.2     1  UNL1        0.2354
     10 N         -13.0416  -16.4561   20.9255 N.2     1  UNL1       -0.0320
     11 C         -12.7857  -17.2322   22.1833 C.2     1  UNL1        0.3872
     12 N         -13.7109  -17.7955   23.2209 N.2     1  UNL1        0.0820
     13 N         -12.8769  -18.4805   24.2627 N.2     1  UNL1       -0.0337
     14 C         -11.4363  -18.3407   23.8689 C.2     1  UNL1        0.1921
     15 C         -11.3800  -17.5691   22.5837 C.3     1  UNL1        0.1845
     16 C         -10.2589  -18.8779   24.6271 C.3     1  UNL1        0.4355
     17 F          -9.0814  -19.4151   25.3853 F       1  UNL1       -0.1645
     18 F         -10.2132  -20.1814   24.2790 F       1  UNL1       -0.1645
     19 F         -10.0175  -17.5192   25.2149 F       1  UNL1       -0.1645
     20 C          -5.8319  -15.8795   24.1945 C.3     1  UNL1        0.0980
     21 C          -5.4608  -14.9703   25.3283 C.3     1  UNL1        0.0196
     22 C          -6.7724  -15.6978   25.3488 C.3     1  UNL1        0.0196
     23 C          -4.6158  -15.7270   23.3298 C.1     1  UNL1        0.0752
     24 N          -3.3996  -15.5746   22.4651 N.1     1  UNL1       -0.1956
     25 C          -6.1940  -20.4018   21.6612 C.3     1  UNL1        0.0476
     26 C          -5.9274  -20.6575   20.2075 C.3     1  UNL1        0.0941
     27 C          -8.9793  -21.5370   17.8280 C.3     1  UNL1        0.0946
     28 C          -7.9993  -20.7456   18.6424 C.2     1  UNL1        0.2230
     29 O          -8.1111  -19.2512   18.7062 O.2     1  UNL1       -0.2751
     30 N          -6.9075  -21.4488   19.3930 N.am    1  UNL1       -0.3040
     31 H          -6.8341  -22.4296   19.3511 H       1  UNL1        0.1494
@<TRIPOS>BOND
     1    27    28    1
     2    28    29    2
     3    28    30   am
     4    30    26    1
     5    26    25    1
     6    25     1    1
     7     1     2   ar
     8     2     3   ar
     9     3     7    1
    10     7     8    2
    11     8     9    1
    12     9    10    2
    13    10    11    1
    14    11    12    2
    15    12    13    1
    16    13    14    2
    17    14    16    1
    18    16    17    1
    19    16    18    1
    20    16    19    1
    21    14    15    1
    22     3     4   ar
    23     4     5   ar
    24     5    20    1
    25    20    23    1
    26    23    24    3
    27    20    21    1
    28    21    22    1
    29     5     6   ar
    30     6     1   ar
    31    15     7    1
    32    22    20    1
    33    15    11    1
    34    30    31    1
@<TRIPOS>MOLECULE
*****
 31 34 0 0 0
SMALL
GASTEIGER

@<TRIPOS>ATOM
      1 C           4.0047   -1.9406   22.6295 C.ar    1  UNL1       -0.0208
      2 C           3.1595   -0.7934   22.1608 C.ar    1  UNL1       -0.0045
      3 C           2.7419   -0.7080   20.7226 C.ar    1  UNL1       -0.0035
      4 C           3.1695   -1.7698   19.7532 C.ar    1  UNL1       -0.0036
      5 C           4.0147   -2.9169   20.2218 C.ar    1  UNL1       -0.0100
      6 C           4.4323   -3.0024   21.6601 C.ar    1  UNL1       -0.0075
      7 C           1.8967    0.4392   20.2539 C.2     1  UNL1       -0.0011
      8 C           0.4254    0.4547   20.5449 C.2     1  UNL1        0.0472
      9 C          -0.4198    1.6019   20.0762 C.2     1  UNL1        0.2354
     10 N           0.2065    2.7335   19.3164 N.2     1  UNL1       -0.0320
     11 C           1.6779    2.7179   19.0254 C.2     1  UNL1        0.3872
     12 N           2.5686    3.6852   18.3035 N.2     1  UNL1        0.0820
     13 N           3.9642    3.1359   18.3262 N.2     1  UNL1       -0.0337
     14 C           3.9361    1.8291   19.0620 C.2     1  UNL1        0.1921
     15 C           2.5230    1.5708   19.4941 C.3     1  UNL1        0.1845
     16 C           5.1141    0.9371   19.3203 C.3     1  UNL1        0.4355
     17 F           6.2920    0.0452   19.5786 F       1  UNL1       -0.1645
     18 F           5.4572    1.2107   20.5969 F       1  UNL1       -0.1645
     19 F           5.0148    0.4015   17.9228 F       1  UNL1       -0.1645
     20 C           4.4422   -3.9787   19.2524 C.3     1  UNL1        0.0980
     21 C           4.5243   -5.3094   18.5652 C.3     1  UNL1        0.0196
     22 C           3.5960   -5.1221   19.7284 C.3     1  UNL1        0.0196
     23 C           5.4369   -3.2041   18.4397 C.1     1  UNL1        0.0752
     24 N           6.4317   -2.4295   17.6270 N.1     1  UNL1       -0.1956
     25 C           4.4223   -2.0260   24.0676 C.3     1  UNL1        0.0476
     26 C           5.8580   -2.2835   24.4177 C.3     1  UNL1        0.0941
     27 C           7.1217   -5.7504   25.8784 C.3     1  UNL1        0.0946
     28 C           6.7704   -4.6674   24.9018 C.2     1  UNL1        0.2230
     29 O           6.9803   -4.8854   23.4326 O.2     1  UNL1       -0.2751
     30 N           6.2093   -3.3665   25.3943 N.am    1  UNL1       -0.3040
     31 H           6.0715   -3.2234   26.3586 H       1  UNL1        0.1494
@<TRIPOS>BOND
     1    27    28    1
     2    28    29    2
     3    28    30   am
     4    30    26    1
     5    26    25    1
     6    25     1    1
     7     1     2   ar
     8     2     3   ar
     9     3     7    1
    10     7     8    2
    11     8     9    1
    12     9    10    2
    13    10    11    1
    14    11    12    2
    15    12    13    1
    16    13    14    2
    17    14    16    1
    18    16    17    1
    19    16    18    1
    20    16    19    1
    21    14    15    1
    22     3     4   ar
    23     4     5   ar
    24     5    20    1
    25    20    23    1
    26    23    24    3
    27    20    21    1
    28    21    22    1
    29     5     6   ar
    30     6     1   ar
    31    15     7    1
    32    22    20    1
    33    15    11    1
    34    30    31    1
@<TRIPOS>MOLECULE
*****
 31 34 0 0 0
SMALL
GASTEIGER

@<TRIPOS>ATOM
      1 C           3.9622   -1.9314   22.6288 C.ar    1  UNL1       -0.0208
      2 C           3.1249   -0.7821   22.1510 C.ar    1  UNL1       -0.0045
      3 C           2.7236   -0.6954   20.7083 C.ar    1  UNL1       -0.0035
      4 C           3.1595   -1.7579   19.7434 C.ar    1  UNL1       -0.0036
      5 C           3.9966   -2.9072   20.2211 C.ar    1  UNL1       -0.0100
      6 C           4.3980   -2.9940   21.6639 C.ar    1  UNL1       -0.0075
      7 C           1.8864    0.4539   20.2305 C.2     1  UNL1       -0.0011
      8 C           0.4126    0.4750   20.5088 C.2     1  UNL1        0.0472
      9 C          -0.4245    1.6242   20.0309 C.2     1  UNL1        0.2354
     10 N           0.2122    2.7525   19.2749 N.2     1  UNL1       -0.0320
     11 C           1.6860    2.7315   18.9966 C.2     1  UNL1        0.3872
     12 N           2.5861    3.6946   18.2810 N.2     1  UNL1        0.0820
     13 N           3.9796    3.1405   18.3165 N.2     1  UNL1       -0.0337
     14 C           3.9407    1.8350   19.0541 C.2     1  UNL1        0.1921
     15 C           2.5231    1.5822   19.4744 C.3     1  UNL1        0.1845
     16 C           5.1134    0.9395   19.3240 C.3     1  UNL1        0.4355
     17 F           6.2860    0.0439   19.5938 F       1  UNL1       -0.1645
     18 F           5.4445    1.2117   20.6040 F       1  UNL1       -0.1645
     19 F           5.0265    0.4044   17.9254 F       1  UNL1       -0.1645
     20 C           4.4324   -3.9697   19.2562 C.3     1  UNL1        0.0980
     21 C           4.5222   -5.3017   18.5723 C.3     1  UNL1        0.0196
     22 C           3.5872   -5.1146   19.7302 C.3     1  UNL1        0.0196
     23 C           5.4290   -3.1938   18.4470 C.1     1  UNL1        0.0752
     24 N           6.4255   -2.4179   17.6377 N.1     1  UNL1       -0.1956
     25 C           4.3635   -2.0182   24.0715 C.3     1  UNL1        0.0476
     26 C           4.3209   -0.7936   24.9367 C.3     1  UNL1        0.0941
     27 C           2.4162   -0.7208   28.4176 C.3     1  UNL1        0.0946
     28 C           3.5087   -0.8845   27.4029 C.2     1  UNL1        0.2230
     29 O           4.8814   -1.3027   27.8396 O.2     1  UNL1       -0.2751
     30 N           3.2284   -0.6300   25.9515 N.am    1  UNL1       -0.3040
     31 H           2.3274   -0.3555   25.6649 H       1  UNL1        0.1494
@<TRIPOS>BOND
     1    27    28    1
     2    28    29    2
     3    28    30   am
     4    30    26    1
     5    26    25    1
     6    25     1    1
     7     1     2   ar
     8     2     3   ar
     9     3     7    1
    10     7     8    2
    11     8     9    1
    12     9    10    2
    13    10    11    1
    14    11    12    2
    15    12    13    1
    16    13    14    2
    17    14    16    1
    18    16    17    1
    19    16    18    1
    20    16    19    1
    21    14    15    1
    22     3     4   ar
    23     4     5   ar
    24     5    20    1
    25    20    23    1
    26    23    24    3
    27    20    21    1
    28    21    22    1
    29     5     6   ar
    30     6     1   ar
    31    15     7    1
    32    22    20    1
    33    15    11    1
    34    30    31    1
@<TRIPOS>MOLECULE
*****
 31 34 0 0 0
SMALL
GASTEIGER

@<TRIPOS>ATOM
      1 C           2.1017   -0.9083   20.4604 C.ar    1  UNL1       -0.0208
      2 C           2.7267   -0.5910   21.7866 C.ar    1  UNL1       -0.0045
      3 C           3.9218   -1.3659   22.2571 C.ar    1  UNL1       -0.0035
      4 C           4.4919   -2.4580   21.4014 C.ar    1  UNL1       -0.0036
      5 C           3.8669   -2.7753   20.0753 C.ar    1  UNL1       -0.0100
      6 C           2.6718   -2.0004   19.6048 C.ar    1  UNL1       -0.0075
      7 C           4.5469   -1.0486   23.5833 C.2     1  UNL1       -0.0011
      8 C           3.9259   -1.5641   24.8476 C.2     1  UNL1        0.0472
      9 C           4.5509   -1.2468   26.1737 C.2     1  UNL1        0.2354
     10 N           5.7969   -0.4140   26.2355 N.2     1  UNL1       -0.0320
     11 C           6.4179    0.1015   24.9712 C.2     1  UNL1        0.3872
     12 N           7.6362    0.9399   24.7206 N.2     1  UNL1        0.0820
     13 N           7.7642    1.1408   23.2396 N.2     1  UNL1       -0.0337
     14 C           6.6249    0.4265   22.5749 C.2     1  UNL1        0.1921
     15 C           5.7929   -0.2158   23.6451 C.3     1  UNL1        0.1845
     16 C           6.3635    0.3653   21.0991 C.3     1  UNL1        0.4355
     17 F           6.1021    0.3042   19.6233 F       1  UNL1       -0.1645
     18 F           7.1704   -0.6261   20.6653 F       1  UNL1       -0.1645
     19 F           5.3743    1.4855   21.2279 F       1  UNL1       -0.1645
     20 C           4.4370   -3.8675   19.2196 C.3     1  UNL1        0.0980
     21 C           4.6604   -5.2329   18.6404 C.3     1  UNL1        0.0196
     22 C           3.6367   -5.0339   19.7185 C.3     1  UNL1        0.0196
     23 C           5.4354   -3.0804   18.4235 C.1     1  UNL1        0.0752
     24 N           6.4338   -2.2934   17.6274 N.1     1  UNL1       -0.1956
     25 C           0.9066   -0.1335   19.9900 C.3     1  UNL1        0.0476
     26 C           1.0271    0.7903   18.8144 C.3     1  UNL1        0.0941
     27 C           4.3172    2.9560   18.3299 C.3     1  UNL1        0.0946
     28 C           3.3601    1.8021   18.2820 C.2     1  UNL1        0.2230
     29 O           3.7789    0.5059   17.6539 O.2     1  UNL1       -0.2751
     30 N           1.9842    1.9443   18.8622 N.am    1  UNL1       -0.3040
     31 H           1.7094    2.7950   19.2744 H       1  UNL1        0.1494
@<TRIPOS>BOND
     1    27    28    1
     2    28    29    2
     3    28    30   am
     4    30    26    1
     5    26    25    1
     6    25     1    1
     7     1     2   ar
     8     2     3   ar
     9     3     7    1
    10     7     8    2
    11     8     9    1
    12     9    10    2
    13    10    11    1
    14    11    12    2
    15    12    13    1
    16    13    14    2
    17    14    16    1
    18    16    17    1
    19    16    18    1
    20    16    19    1
    21    14    15    1
    22     3     4   ar
    23     4     5   ar
    24     5    20    1
    25    20    23    1
    26    23    24    3
    27    20    21    1
    28    21    22    1
    29     5     6   ar
    30     6     1   ar
    31    15     7    1
    32    22    20    1
    33    15    11    1
    34    30    31    1
@<TRIPOS>MOLECULE
*****
 31 34 0 0 0
SMALL
GASTEIGER

@<TRIPOS>ATOM
      1 C           4.0348   -1.8961   22.6144 C.ar    1  UNL1       -0.0208
      2 C           3.1799   -0.7550   22.1482 C.ar    1  UNL1       -0.0045
      3 C           2.7463   -0.6797   20.7143 C.ar    1  UNL1       -0.0035
      4 C           3.1675   -1.7455   19.7464 C.ar    1  UNL1       -0.0036
      5 C           4.0223   -2.8865   20.2125 C.ar    1  UNL1       -0.0100
      6 C           4.4560   -2.9618   21.6466 C.ar    1  UNL1       -0.0075
      7 C           1.8915    0.4614   20.2481 C.2     1  UNL1       -0.0011
      8 C           0.4181    0.4584   20.5292 C.2     1  UNL1        0.0472
      9 C          -0.4367    1.5994   20.0631 C.2     1  UNL1        0.2354
     10 N           0.1819    2.7435   19.3158 N.2     1  UNL1       -0.0320
     11 C           1.6553    2.7465   19.0347 C.2     1  UNL1        0.3872
     12 N           2.5399    3.7289   18.3259 N.2     1  UNL1        0.0820
     13 N           3.9414    3.1950   18.3541 N.2     1  UNL1       -0.0337
     14 C           3.9230    1.8826   19.0802 C.2     1  UNL1        0.1921
     15 C           2.5101    1.6054   19.5008 C.3     1  UNL1        0.1845
     16 C           5.1092    1.0020   19.3401 C.3     1  UNL1        0.4355
     17 F           6.2954    0.1215   19.6001 F       1  UNL1       -0.1645
     18 F           5.2880    0.3427   18.1758 F       1  UNL1       -0.1645
     19 F           5.2003    1.5375   20.7383 F       1  UNL1       -0.1645
     20 C           4.4435   -3.9523   19.2447 C.3     1  UNL1        0.0980
     21 C           4.5135   -5.2829   18.5560 C.3     1  UNL1        0.0196
     22 C           3.5787   -5.0852   19.7122 C.3     1  UNL1        0.0196
     23 C           5.4546   -3.1895   18.4410 C.1     1  UNL1        0.0752
     24 N           6.4657   -2.4268   17.6374 N.1     1  UNL1       -0.1956
     25 C           4.4684   -1.9713   24.0484 C.3     1  UNL1        0.0476
     26 C           5.7937   -1.4036   24.4619 C.3     1  UNL1        0.0941
     27 C           8.0818    1.0010   22.2865 C.3     1  UNL1        0.0946
     28 C           7.1114    0.5268   23.3273 C.2     1  UNL1        0.2230
     29 O           6.4883    1.5089   24.2746 O.2     1  UNL1       -0.2751
     30 N           6.7642   -0.9294   23.4210 N.am    1  UNL1       -0.3040
     31 H           7.1732   -1.5739   22.7993 H       1  UNL1        0.1494
@<TRIPOS>BOND
     1    27    28    1
     2    28    29    2
     3    28    30   am
     4    30    26    1
     5    26    25    1
     6    25     1    1
     7     1     2   ar
     8     2     3   ar
     9     3     7    1
    10     7     8    2
    11     8     9    1
    12     9    10    2
    13    10    11    1
    14    11    12    2
    15    12    13    1
    16    13    14    2
    17    14    16    1
    18    16    17    1
    19    16    18    1
    20    16    19    1
    21    14    15    1
    22     3     4   ar
    23     4     5   ar
    24     5    20    1
    25    20    23    1
    26    23    24    3
    27    20    21    1
    28    21    22    1
    29     5     6   ar
    30     6     1   ar
    31    15     7    1
    32    22    20    1
    33    15    11    1
    34    30    31    1
