@<TRIPOS>MOLECULE
*****
 27 31 0 0 0
SMALL
GASTEIGER

@<TRIPOS>ATOM
      1 O         -12.5211  -16.7219   20.4507 O.3     1  UNL1       -0.3601
      2 C         -11.4268  -17.7468   20.4945 C.3     1  UNL1        0.2320
      3 O         -11.0278  -18.6591   19.3726 O.3     1  UNL1       -0.3306
      4 C          -9.8937  -19.5155   19.8526 C.3     1  UNL1        0.1452
      5 C          -9.5917  -19.1325   21.2711 C.3     1  UNL1        0.0393
      6 C         -10.5392  -18.0394   21.6678 C.3     1  UNL1        0.0634
      7 H         -12.9411  -16.7345   19.5764 H       1  UNL1        0.2129
      8 C          -8.5289  -19.7366   22.1402 C.3     1  UNL1        0.0291
      9 C          -7.0905  -19.6741   21.7191 C.ar    1  UNL1       -0.0189
     10 C          -6.5598  -20.6535   20.7147 C.ar    1  UNL1       -0.0009
     11 C          -5.1215  -20.5910   20.2936 C.ar    1  UNL1        0.0399
     12 C          -4.2138  -19.5490   20.8770 C.ar    1  UNL1        0.1764
     13 C          -4.7445  -18.5695   21.8815 C.ar    1  UNL1        0.1761
     14 C          -6.1828  -18.6320   22.3026 C.ar    1  UNL1        0.0359
     15 O          -3.6203  -17.6603   22.2811 O.3     1  UNL1       -0.4346
     16 C          -2.3949  -18.0779   21.5235 C.3     1  UNL1        0.4294
     17 O          -2.7617  -19.2452   20.6558 O.3     1  UNL1       -0.4346
     18 C         -10.5901  -17.3584   23.0033 C.3     1  UNL1        0.0316
     19 C          -9.3739  -16.6607   23.5364 C.ar    1  UNL1       -0.0188
     20 C          -8.4883  -15.8831   22.6085 C.ar    1  UNL1       -0.0009
     21 C          -7.2721  -15.1855   23.1414 C.ar    1  UNL1        0.0399
     22 C          -6.9415  -15.2655   24.6023 C.ar    1  UNL1        0.1764
     23 C          -7.8271  -16.0430   25.5302 C.ar    1  UNL1        0.1761
     24 C          -9.0433  -16.7407   24.9973 C.ar    1  UNL1        0.0359
     25 O          -7.2514  -15.9441   26.9118 O.3     1  UNL1       -0.4346
     26 C          -6.0100  -15.1054   26.8378 C.3     1  UNL1        0.4294
     27 O          -5.8185  -14.6860   25.4104 O.3     1  UNL1       -0.4346
@<TRIPOS>BOND
     1     2     1    1
     2     2     3    1
     3     3     4    1
     4     4     5    1
     5     5     8    1
     6     8     9    1
     7     9    10   ar
     8    10    11   ar
     9    11    12   ar
    10    12    13   ar
    11    13    14   ar
    12    13    15    1
    13    15    16    1
    14    16    17    1
    15     5     6    1
    16     6    18    1
    17    18    19    1
    18    19    20   ar
    19    20    21   ar
    20    21    22   ar
    21    22    23   ar
    22    23    24   ar
    23    23    25    1
    24    25    26    1
    25    26    27    1
    26     6     2    1
    27    24    19   ar
    28    14     9   ar
    29    27    22    1
    30    17    12    1
    31     1     7    1
@<TRIPOS>MOLECULE
*****
 27 31 0 0 0
SMALL
GASTEIGER

@<TRIPOS>ATOM
      1 O          -9.2402  -20.3252   18.7956 O.3     1  UNL1       -0.3601
      2 C          -9.9112  -19.3219   19.6860 C.3     1  UNL1        0.2320
      3 O         -10.9990  -18.3718   19.2809 O.3     1  UNL1       -0.3306
      4 C         -11.3724  -17.5551   20.4824 C.3     1  UNL1        0.1452
      5 C         -10.5155  -18.0005   21.6301 C.3     1  UNL1        0.0393
      6 C          -9.6124  -19.0924   21.1380 C.3     1  UNL1        0.0634
      7 H          -9.6180  -20.2700   17.9039 H       1  UNL1        0.2129
      8 C         -10.5548  -17.4505   23.0251 C.3     1  UNL1        0.0291
      9 C          -9.3652  -16.7230   23.5783 C.ar    1  UNL1       -0.0189
     10 C          -8.4846  -15.9225   22.6654 C.ar    1  UNL1       -0.0009
     11 C          -7.2951  -15.1950   23.2185 C.ar    1  UNL1        0.0399
     12 C          -6.9863  -15.2682   24.6846 C.ar    1  UNL1        0.1764
     13 C          -7.8670  -16.0689   25.5975 C.ar    1  UNL1        0.1761
     14 C          -9.0565  -16.7963   25.0444 C.ar    1  UNL1        0.0359
     15 O          -7.3165  -15.9571   26.9883 O.3     1  UNL1       -0.4346
     16 C          -6.0955  -15.0873   26.9350 C.3     1  UNL1        0.4294
     17 O          -5.8915  -14.6616   25.5112 O.3     1  UNL1       -0.4346
     18 C          -8.5901  -19.8261   21.9544 C.3     1  UNL1        0.0316
     19 C          -7.1314  -19.6806   21.6364 C.ar    1  UNL1       -0.0188
     20 C          -6.4935  -20.5756   20.6156 C.ar    1  UNL1       -0.0009
     21 C          -5.0348  -20.4302   20.2975 C.ar    1  UNL1        0.0399
     22 C          -4.2141  -19.3898   21.0004 C.ar    1  UNL1        0.1764
     23 C          -4.8520  -18.4949   22.0212 C.ar    1  UNL1        0.1761
     24 C          -6.3106  -18.6403   22.3393 C.ar    1  UNL1        0.0359
     25 O          -3.7975  -17.5672   22.5480 O.3     1  UNL1       -0.4346
     26 C          -2.5078  -17.8888   21.8527 C.3     1  UNL1        0.4294
     27 O          -2.7653  -19.0153   20.8962 O.3     1  UNL1       -0.4346
@<TRIPOS>BOND
     1     2     1    1
     2     2     3    1
     3     3     4    1
     4     4     5    1
     5     5     8    1
     6     8     9    1
     7     9    10   ar
     8    10    11   ar
     9    11    12   ar
    10    12    13   ar
    11    13    14   ar
    12    13    15    1
    13    15    16    1
    14    16    17    1
    15     5     6    1
    16     6    18    1
    17    18    19    1
    18    19    20   ar
    19    20    21   ar
    20    21    22   ar
    21    22    23   ar
    22    23    24   ar
    23    23    25    1
    24    25    26    1
    25    26    27    1
    26     6     2    1
    27    24    19   ar
    28    14     9   ar
    29    27    22    1
    30    17    12    1
    31     1     7    1
@<TRIPOS>MOLECULE
*****
 27 31 0 0 0
SMALL
GASTEIGER

@<TRIPOS>ATOM
      1 O          -4.5743  -15.6626   26.5105 O.3     1  UNL1       -0.3601
      2 C          -6.0738  -15.6630   26.4788 C.3     1  UNL1        0.2320
      3 O          -6.9810  -15.7293   27.6716 O.3     1  UNL1       -0.3306
      4 C          -8.3975  -15.7044   27.1787 C.3     1  UNL1        0.1452
      5 C          -8.3658  -15.6226   25.6812 C.3     1  UNL1        0.0393
      6 C          -6.9298  -15.5970   25.2486 C.3     1  UNL1        0.0634
      7 H          -4.2703  -15.7125   27.4303 H       1  UNL1        0.2129
      8 C          -9.5605  -15.5747   24.7754 C.3     1  UNL1        0.0291
      9 C          -9.8401  -16.7152   23.8419 C.ar    1  UNL1       -0.0189
     10 C         -10.0450  -18.0975   24.3869 C.ar    1  UNL1       -0.0009
     11 C         -10.3245  -19.2379   23.4535 C.ar    1  UNL1        0.0399
     12 C         -10.3992  -18.9959   21.9750 C.ar    1  UNL1        0.1764
     13 C         -10.1943  -17.6135   21.4300 C.ar    1  UNL1        0.1761
     14 C          -9.9147  -16.4731   22.3634 C.ar    1  UNL1        0.0359
     15 O         -10.3255  -17.6796   19.9372 O.3     1  UNL1       -0.4346
     16 C         -10.6115  -19.1029   19.5596 C.3     1  UNL1        0.4294
     17 O         -10.6570  -19.9164   20.8190 O.3     1  UNL1       -0.4346
     18 C          -6.4362  -15.5190   23.8343 C.3     1  UNL1        0.0316
     19 C          -5.7792  -16.7104   23.2025 C.ar    1  UNL1       -0.0188
     20 C          -6.6185  -17.8068   22.6165 C.ar    1  UNL1       -0.0009
     21 C          -5.9616  -18.9981   21.9847 C.ar    1  UNL1        0.0399
     22 C          -4.4653  -19.0930   21.9390 C.ar    1  UNL1        0.1764
     23 C          -3.6260  -17.9966   22.5250 C.ar    1  UNL1        0.1761
     24 C          -4.2829  -16.8053   23.1568 C.ar    1  UNL1        0.0359
     25 O          -2.1843  -18.3640   22.3341 O.3     1  UNL1       -0.4346
     26 C          -2.1325  -19.6875   21.6301 C.3     1  UNL1        0.4294
     27 O          -3.5423  -20.1380   21.3859 O.3     1  UNL1       -0.4346
@<TRIPOS>BOND
     1     2     1    1
     2     2     3    1
     3     3     4    1
     4     4     5    1
     5     5     8    1
     6     8     9    1
     7     9    10   ar
     8    10    11   ar
     9    11    12   ar
    10    12    13   ar
    11    13    14   ar
    12    13    15    1
    13    15    16    1
    14    16    17    1
    15     5     6    1
    16     6    18    1
    17    18    19    1
    18    19    20   ar
    19    20    21   ar
    20    21    22   ar
    21    22    23   ar
    22    23    24   ar
    23    23    25    1
    24    25    26    1
    25    26    27    1
    26     6     2    1
    27    24    19   ar
    28    14     9   ar
    29    27    22    1
    30    17    12    1
    31     1     7    1
@<TRIPOS>MOLECULE
*****
 27 31 0 0 0
SMALL
GASTEIGER

@<TRIPOS>ATOM
      1 O          -8.0571  -14.1617   24.1064 O.3     1  UNL1       -0.3601
      2 C          -6.8039  -14.8856   24.5002 C.3     1  UNL1        0.2320
      3 O          -5.8063  -14.4290   25.5232 O.3     1  UNL1       -0.3306
      4 C          -4.7140  -15.4545   25.5955 C.3     1  UNL1        0.1452
      5 C          -5.0365  -16.5450   24.6173 C.3     1  UNL1        0.0393
      6 C          -6.3281  -16.1934   23.9404 C.3     1  UNL1        0.0634
      7 H          -8.1306  -13.3408   24.6179 H       1  UNL1        0.2129
      8 C          -4.2121  -17.7717   24.3610 C.3     1  UNL1        0.0291
      9 C          -3.6967  -18.0540   22.9809 C.ar    1  UNL1       -0.0189
     10 C          -4.2802  -19.1785   22.1778 C.ar    1  UNL1       -0.0009
     11 C          -3.7647  -19.4609   20.7978 C.ar    1  UNL1        0.0399
     12 C          -2.6657  -18.6187   20.2208 C.ar    1  UNL1        0.1764
     13 C          -2.0822  -17.4942   21.0238 C.ar    1  UNL1        0.1761
     14 C          -2.5976  -17.2118   22.4039 C.ar    1  UNL1        0.0359
     15 O          -1.0153  -16.8393   20.1974 O.3     1  UNL1       -0.4346
     16 C          -0.9396  -17.5590   18.8836 C.3     1  UNL1        0.4294
     17 O          -1.9595  -18.6588   18.8980 O.3     1  UNL1       -0.4346
     18 C          -7.0221  -17.0068   22.8883 C.3     1  UNL1        0.0316
     19 C          -8.5207  -17.0325   22.8274 C.ar    1  UNL1       -0.0188
     20 C          -9.2421  -16.2450   21.7742 C.ar    1  UNL1       -0.0009
     21 C         -10.7406  -16.2706   21.7133 C.ar    1  UNL1        0.0399
     22 C         -11.5177  -17.0838   22.7056 C.ar    1  UNL1        0.1764
     23 C         -10.7963  -17.8714   23.7588 C.ar    1  UNL1        0.1761
     24 C          -9.2978  -17.8457   23.8198 C.ar    1  UNL1        0.0359
     25 O         -11.8230  -18.5754   24.5957 O.3     1  UNL1       -0.4346
     26 C         -13.1789  -18.2230   24.0598 C.3     1  UNL1        0.4294
     27 O         -12.9902  -17.3011   22.8916 O.3     1  UNL1       -0.4346
@<TRIPOS>BOND
     1     2     1    1
     2     2     3    1
     3     3     4    1
     4     4     5    1
     5     5     8    1
     6     8     9    1
     7     9    10   ar
     8    10    11   ar
     9    11    12   ar
    10    12    13   ar
    11    13    14   ar
    12    13    15    1
    13    15    16    1
    14    16    17    1
    15     5     6    1
    16     6    18    1
    17    18    19    1
    18    19    20   ar
    19    20    21   ar
    20    21    22   ar
    21    22    23   ar
    22    23    24   ar
    23    23    25    1
    24    25    26    1
    25    26    27    1
    26     6     2    1
    27    24    19   ar
    28    14     9   ar
    29    27    22    1
    30    17    12    1
    31     1     7    1
@<TRIPOS>MOLECULE
*****
 27 31 0 0 0
SMALL
GASTEIGER

@<TRIPOS>ATOM
      1 O          -8.7296  -16.0948   27.5651 O.3     1  UNL1       -0.3601
      2 C          -7.4282  -15.9433   26.8349 C.3     1  UNL1        0.2320
      3 O          -6.0600  -16.0923   27.4314 O.3     1  UNL1       -0.3306
      4 C          -5.0526  -15.8573   26.3452 C.3     1  UNL1        0.1452
      5 C          -5.7982  -15.5630   25.0773 C.3     1  UNL1        0.0393
      6 C          -7.2664  -15.6162   25.3799 C.3     1  UNL1        0.0634
      7 H          -8.5556  -16.3069   28.4955 H       1  UNL1        0.2129
      8 C          -5.1834  -15.2675   23.7414 C.3     1  UNL1        0.0291
      9 C          -4.2869  -16.2775   23.0883 C.ar    1  UNL1       -0.0189
     10 C          -4.5476  -17.7429   23.2741 C.ar    1  UNL1       -0.0009
     11 C          -3.6511  -18.7528   22.6211 C.ar    1  UNL1        0.0399
     12 C          -2.4940  -18.2973   21.7823 C.ar    1  UNL1        0.1764
     13 C          -2.2334  -16.8319   21.5965 C.ar    1  UNL1        0.1761
     14 C          -3.1298  -15.8219   22.2495 C.ar    1  UNL1        0.0359
     15 O          -1.0252  -16.6834   20.7200 O.3     1  UNL1       -0.4346
     16 C          -0.5392  -18.0571   20.3641 C.3     1  UNL1        0.4294
     17 O          -1.4470  -19.0546   21.0206 O.3     1  UNL1       -0.4346
     18 C          -8.3776  -15.3832   24.3997 C.3     1  UNL1        0.0316
     19 C          -9.0073  -16.5449   23.6897 C.ar    1  UNL1       -0.0188
     20 C          -9.6620  -17.6402   24.4780 C.ar    1  UNL1       -0.0009
     21 C         -10.2917  -18.8019   23.7681 C.ar    1  UNL1        0.0399
     22 C         -10.2665  -18.8682   22.2698 C.ar    1  UNL1        0.1764
     23 C          -9.6118  -17.7728   21.4814 C.ar    1  UNL1        0.1761
     24 C          -8.9822  -16.6112   22.1914 C.ar    1  UNL1        0.0359
     25 O          -9.7414  -18.1086   20.0253 O.3     1  UNL1       -0.4346
     26 C         -10.4763  -19.4115   19.9136 C.3     1  UNL1        0.4294
     27 O         -10.8008  -19.8809   21.3008 O.3     1  UNL1       -0.4346
@<TRIPOS>BOND
     1     2     1    1
     2     2     3    1
     3     3     4    1
     4     4     5    1
     5     5     8    1
     6     8     9    1
     7     9    10   ar
     8    10    11   ar
     9    11    12   ar
    10    12    13   ar
    11    13    14   ar
    12    13    15    1
    13    15    16    1
    14    16    17    1
    15     5     6    1
    16     6    18    1
    17    18    19    1
    18    19    20   ar
    19    20    21   ar
    20    21    22   ar
    21    22    23   ar
    22    23    24   ar
    23    23    25    1
    24    25    26    1
    25    26    27    1
    26     6     2    1
    27    24    19   ar
    28    14     9   ar
    29    27    22    1
    30    17    12    1
    31     1     7    1
@<TRIPOS>MOLECULE
*****
 27 31 0 0 0
SMALL
GASTEIGER

@<TRIPOS>ATOM
      1 O          -4.0870  -17.7776   22.0166 O.3     1  UNL1       -0.3601
      2 C          -5.1710  -18.7376   21.6254 C.3     1  UNL1        0.2320
      3 O          -4.9905  -20.1955   21.3222 O.3     1  UNL1       -0.3306
      4 C          -6.3339  -20.7673   20.9782 C.3     1  UNL1        0.1452
      5 C          -7.3447  -19.6628   21.0688 C.3     1  UNL1        0.0393
      6 C          -6.6261  -18.4084   21.4688 C.3     1  UNL1        0.0634
      7 H          -3.2370  -18.2440   22.0456 H       1  UNL1        0.2129
      8 C          -8.8159  -19.7904   20.8056 C.3     1  UNL1        0.0291
      9 C          -9.7993  -19.5544   21.9136 C.ar    1  UNL1       -0.0189
     10 C          -9.5199  -20.0823   23.2894 C.ar    1  UNL1       -0.0009
     11 C         -10.5032  -19.8463   24.3973 C.ar    1  UNL1        0.0399
     12 C         -11.7660  -19.0824   24.1293 C.ar    1  UNL1        0.1764
     13 C         -12.0454  -18.5545   22.7533 C.ar    1  UNL1        0.1761
     14 C         -11.0621  -18.7904   21.6454 C.ar    1  UNL1        0.0359
     15 O         -13.3651  -17.8423   22.7892 O.3     1  UNL1       -0.4346
     16 C         -13.9012  -17.9301   24.1874 C.3     1  UNL1        0.4294
     17 O         -12.9129  -18.6965   25.0156 O.3     1  UNL1       -0.4346
     18 C          -7.2525  -17.0612   21.6758 C.3     1  UNL1        0.0316
     19 C          -7.5597  -16.5823   23.0638 C.ar    1  UNL1       -0.0188
     20 C          -8.9822  -16.5077   23.5337 C.ar    1  UNL1       -0.0009
     21 C          -9.2894  -16.0287   24.9216 C.ar    1  UNL1        0.0399
     22 C          -8.1741  -15.6244   25.8395 C.ar    1  UNL1        0.1764
     23 C          -6.7516  -15.6991   25.3695 C.ar    1  UNL1        0.1761
     24 C          -6.4444  -16.1780   23.9817 C.ar    1  UNL1        0.0359
     25 O          -5.8683  -15.2371   26.4905 O.3     1  UNL1       -0.4346
     26 C          -6.7449  -14.8770   27.6532 C.3     1  UNL1        0.4294
     27 O          -8.1700  -15.1164   27.2508 O.3     1  UNL1       -0.4346
@<TRIPOS>BOND
     1     2     1    1
     2     2     3    1
     3     3     4    1
     4     4     5    1
     5     5     8    1
     6     8     9    1
     7     9    10   ar
     8    10    11   ar
     9    11    12   ar
    10    12    13   ar
    11    13    14   ar
    12    13    15    1
    13    15    16    1
    14    16    17    1
    15     5     6    1
    16     6    18    1
    17    18    19    1
    18    19    20   ar
    19    20    21   ar
    20    21    22   ar
    21    22    23   ar
    22    23    24   ar
    23    23    25    1
    24    25    26    1
    25    26    27    1
    26     6     2    1
    27    24    19   ar
    28    14     9   ar
    29    27    22    1
    30    17    12    1
    31     1     7    1
@<TRIPOS>MOLECULE
*****
 27 31 0 0 0
SMALL
GASTEIGER

@<TRIPOS>ATOM
      1 O          -4.7381  -18.0417   22.3643 O.3     1  UNL1       -0.3601
      2 C          -5.7368  -18.8427   21.5828 C.3     1  UNL1        0.2320
      3 O          -5.5115  -20.2065   21.0003 O.3     1  UNL1       -0.3306
      4 C          -6.7717  -20.6273   20.3040 C.3     1  UNL1        0.1452
      5 C          -7.7760  -19.5235   20.4561 C.3     1  UNL1        0.0393
      6 C          -7.1364  -18.4206   21.2464 C.3     1  UNL1        0.0634
      7 H          -3.9105  -18.5420   22.4400 H       1  UNL1        0.2129
      8 C          -9.1743  -19.5228   19.9132 C.3     1  UNL1        0.0291
      9 C         -10.3028  -18.9945   20.7484 C.ar    1  UNL1       -0.0189
     10 C         -11.2447  -17.9758   20.1785 C.ar    1  UNL1       -0.0009
     11 C         -12.3732  -17.4476   21.0136 C.ar    1  UNL1        0.0399
     12 C         -12.5598  -17.9382   22.4188 C.ar    1  UNL1        0.1764
     13 C         -11.6179  -18.9569   22.9888 C.ar    1  UNL1        0.1761
     14 C         -10.4894  -19.4851   22.1537 C.ar    1  UNL1        0.0359
     15 O         -12.0489  -19.2511   24.3951 O.3     1  UNL1       -0.4346
     16 C         -13.2572  -18.4141   24.6942 C.3     1  UNL1        0.4294
     17 O         -13.5730  -17.6027   23.4728 O.3     1  UNL1       -0.4346
     18 C          -7.7829  -17.1233   21.6326 C.3     1  UNL1        0.0316
     19 C          -7.6535  -16.6093   23.0359 C.ar    1  UNL1       -0.0188
     20 C          -6.7056  -15.4870   23.3392 C.ar    1  UNL1       -0.0009
     21 C          -6.5762  -14.9731   24.7424 C.ar    1  UNL1        0.0399
     22 C          -7.3947  -15.5814   25.8423 C.ar    1  UNL1        0.1764
     23 C          -8.3426  -16.7037   25.5391 C.ar    1  UNL1        0.1761
     24 C          -8.4720  -17.2177   24.1359 C.ar    1  UNL1        0.0359
     25 O          -9.0139  -17.1024   26.8199 O.3     1  UNL1       -0.4346
     26 C          -8.4809  -16.2265   27.9147 C.3     1  UNL1        0.4294
     27 O          -7.4802  -15.2865   27.3106 O.3     1  UNL1       -0.4346
@<TRIPOS>BOND
     1     2     1    1
     2     2     3    1
     3     3     4    1
     4     4     5    1
     5     5     8    1
     6     8     9    1
     7     9    10   ar
     8    10    11   ar
     9    11    12   ar
    10    12    13   ar
    11    13    14   ar
    12    13    15    1
    13    15    16    1
    14    16    17    1
    15     5     6    1
    16     6    18    1
    17    18    19    1
    18    19    20   ar
    19    20    21   ar
    20    21    22   ar
    21    22    23   ar
    22    23    24   ar
    23    23    25    1
    24    25    26    1
    25    26    27    1
    26     6     2    1
    27    24    19   ar
    28    14     9   ar
    29    27    22    1
    30    17    12    1
    31     1     7    1
@<TRIPOS>MOLECULE
*****
 27 31 0 0 0
SMALL
GASTEIGER

@<TRIPOS>ATOM
      1 O          -8.1173  -14.1639   24.5621 O.3     1  UNL1       -0.3601
      2 C          -6.8559  -14.9583   24.7281 C.3     1  UNL1        0.2320
      3 O          -5.8030  -14.7332   25.7725 O.3     1  UNL1       -0.3306
      4 C          -4.7222  -15.7531   25.5686 C.3     1  UNL1        0.1452
      5 C          -5.1071  -16.6087   24.3982 C.3     1  UNL1        0.0393
      6 C          -6.4258  -16.1176   23.8787 C.3     1  UNL1        0.0634
      7 H          -8.1545  -13.4710   25.2399 H       1  UNL1        0.2129
      8 C          -4.3128  -17.7544   23.8446 C.3     1  UNL1        0.0291
      9 C          -3.2583  -17.5041   22.8075 C.ar    1  UNL1       -0.0189
     10 C          -2.8395  -16.0998   22.4875 C.ar    1  UNL1       -0.0009
     11 C          -1.7850  -15.8495   21.4505 C.ar    1  UNL1        0.0399
     12 C          -1.1494  -17.0035   20.7334 C.ar    1  UNL1        0.1764
     13 C          -1.5682  -18.4079   21.0534 C.ar    1  UNL1        0.1761
     14 C          -2.6227  -18.6582   22.0904 C.ar    1  UNL1        0.0359
     15 O          -0.7697  -19.3381   20.1891 O.3     1  UNL1       -0.4346
     16 C           0.1427  -18.5086   19.3350 C.3     1  UNL1        0.4294
     17 O          -0.0919  -17.0658   19.6714 O.3     1  UNL1       -0.4346
     18 C          -7.1817  -16.6858   22.7144 C.3     1  UNL1        0.0316
     19 C          -8.6225  -17.0722   22.8721 C.ar    1  UNL1       -0.0188
     20 C          -9.0977  -17.6882   24.1545 C.ar    1  UNL1       -0.0009
     21 C         -10.5385  -18.0746   24.3123 C.ar    1  UNL1        0.0399
     22 C         -11.5040  -17.8449   23.1876 C.ar    1  UNL1        0.1764
     23 C         -11.0288  -17.2288   21.9052 C.ar    1  UNL1        0.1761
     24 C          -9.5880  -16.8425   21.7474 C.ar    1  UNL1        0.0359
     25 O         -12.2033  -17.1244   20.9780 O.3     1  UNL1       -0.4346
     26 C         -13.4044  -17.6760   21.6873 C.3     1  UNL1        0.4294
     27 O         -12.9722  -18.1212   23.0529 O.3     1  UNL1       -0.4346
@<TRIPOS>BOND
     1     2     1    1
     2     2     3    1
     3     3     4    1
     4     4     5    1
     5     5     8    1
     6     8     9    1
     7     9    10   ar
     8    10    11   ar
     9    11    12   ar
    10    12    13   ar
    11    13    14   ar
    12    13    15    1
    13    15    16    1
    14    16    17    1
    15     5     6    1
    16     6    18    1
    17    18    19    1
    18    19    20   ar
    19    20    21   ar
    20    21    22   ar
    21    22    23   ar
    22    23    24   ar
    23    23    25    1
    24    25    26    1
    25    26    27    1
    26     6     2    1
    27    24    19   ar
    28    14     9   ar
    29    27    22    1
    30    17    12    1
    31     1     7    1
@<TRIPOS>MOLECULE
*****
 27 31 0 0 0
SMALL
GASTEIGER

@<TRIPOS>ATOM
      1 O          -2.5266  -15.9911   21.9843 O.3     1  UNL1       -0.3601
      2 C          -2.9773  -17.4217   21.9805 C.3     1  UNL1        0.2320
      3 O          -2.0992  -18.6223   21.7869 O.3     1  UNL1       -0.3306
      4 C          -2.9644  -19.8456   21.8564 C.3     1  UNL1        0.1452
      5 C          -4.3774  -19.4011   22.0929 C.3     1  UNL1        0.0393
      6 C          -4.3854  -17.9031   22.1697 C.3     1  UNL1        0.0634
      7 H          -1.5680  -15.9537   21.8409 H       1  UNL1        0.2129
      8 C          -5.5725  -20.2973   22.2289 C.3     1  UNL1        0.0291
      9 C          -6.8674  -19.9261   21.5686 C.ar    1  UNL1       -0.0189
     10 C          -6.9630  -19.8909   20.0722 C.ar    1  UNL1       -0.0009
     11 C          -8.2578  -19.5198   19.4119 C.ar    1  UNL1        0.0399
     12 C          -9.4568  -19.1838   20.2482 C.ar    1  UNL1        0.1764
     13 C          -9.3611  -19.2189   21.7447 C.ar    1  UNL1        0.1761
     14 C          -8.0664  -19.5901   22.4050 C.ar    1  UNL1        0.0359
     15 O         -10.7008  -18.8415   22.3039 O.3     1  UNL1       -0.4346
     16 C         -11.6245  -18.5731   21.1529 C.3     1  UNL1        0.4294
     17 O         -10.8557  -18.7846   19.8824 O.3     1  UNL1       -0.4346
     18 C          -5.5899  -17.0382   22.3958 C.3     1  UNL1        0.0316
     19 C          -5.8829  -16.5039   23.7665 C.ar    1  UNL1       -0.0188
     20 C          -4.7567  -16.2023   24.7104 C.ar    1  UNL1       -0.0009
     21 C          -5.0496  -15.6680   26.0810 C.ar    1  UNL1        0.0399
     22 C          -6.4686  -15.4352   26.5078 C.ar    1  UNL1        0.1764
     23 C          -7.5948  -15.7367   25.5639 C.ar    1  UNL1        0.1761
     24 C          -7.3019  -16.2710   24.1933 C.ar    1  UNL1        0.0359
     25 O          -8.8828  -15.4086   26.2592 O.3     1  UNL1       -0.4346
     26 C          -8.5527  -14.9044   27.6328 C.3     1  UNL1        0.4294
     27 O          -7.0607  -14.9208   27.7864 O.3     1  UNL1       -0.4346
@<TRIPOS>BOND
     1     2     1    1
     2     2     3    1
     3     3     4    1
     4     4     5    1
     5     5     8    1
     6     8     9    1
     7     9    10   ar
     8    10    11   ar
     9    11    12   ar
    10    12    13   ar
    11    13    14   ar
    12    13    15    1
    13    15    16    1
    14    16    17    1
    15     5     6    1
    16     6    18    1
    17    18    19    1
    18    19    20   ar
    19    20    21   ar
    20    21    22   ar
    21    22    23   ar
    22    23    24   ar
    23    23    25    1
    24    25    26    1
    25    26    27    1
    26     6     2    1
    27    24    19   ar
    28    14     9   ar
    29    27    22    1
    30    17    12    1
    31     1     7    1
