@<TRIPOS>MOLECULE
*****
 22 24 0 0 0
SMALL
GASTEIGER

@<TRIPOS>ATOM
      1 C          -4.0037  -17.7044   23.1325 C.2     1  UNL1       -0.0005
      2 C          -2.6090  -18.0510   22.7029 C.2     1  UNL1        0.0942
      3 N          -2.7014  -19.0777   21.6132 N.2     1  UNL1       -0.2482
      4 C          -4.1532  -19.3657   21.3695 C.2     1  UNL1        0.0633
      5 C          -4.8462  -20.2911   20.4139 C.3     1  UNL1        0.0749
      6 C          -6.3441  -20.3678   20.3972 C.2     1  UNL1        0.0171
      7 C          -7.1490  -19.5190   21.3362 C.2     1  UNL1        0.1352
      8 C          -6.4560  -18.5936   22.2918 C.2     1  UNL1        0.0375
      9 C          -4.9581  -18.5170   22.3085 C.2     1  UNL1        0.0145
     10 C          -4.3784  -16.7184   24.1990 C.3     1  UNL1        0.0434
     11 C          -6.5338  -15.2988   24.4980 C.3     1  UNL1        0.0172
     12 C          -5.1977  -15.5113   23.8501 C.3     1  UNL1        0.0553
     13 N          -4.6809  -14.5167   22.8532 N.3     1  UNL1       -0.3219
     14 H          -3.7660  -14.8167   22.5166 H       1  UNL1        0.1188
     15 H          -4.5967  -13.6024   23.2974 H       1  UNL1        0.1188
     16 O          -8.6470  -19.5957   21.3195 O.2     1  UNL1       -0.4704
     17 C          -9.4298  -19.2434   22.5496 C.3     1  UNL1        0.2384
     18 C         -10.7832  -18.6094   22.4214 C.ar    1  UNL1        0.0507
     19 C         -11.7843  -18.4376   23.5251 C.ar    1  UNL1        0.0063
     20 C         -12.9930  -17.7579   22.9529 C.ar    1  UNL1        0.0073
     21 C         -12.7387  -17.5098   21.4955 C.ar    1  UNL1        0.0352
     22 S         -11.3730  -18.0361   21.1671 S.2     1  UNL1       -0.0871
@<TRIPOS>BOND
     1    11    12    1
     2    12    13    1
     3    12    10    1
     4    10     1    1
     5     1     2    2
     6     2     3    1
     7     3     4    2
     8     4     5    1
     9     5     6    1
    10     6     7    2
    11     7    16    1
    12    16    17    1
    13    17    18    1
    14    18    19   ar
    15    19    20   ar
    16    20    21   ar
    17    21    22   ar
    18     7     8    1
    19     8     9    2
    20     9     1    1
    21     9     4    1
    22    22    18   ar
    23    13    14    1
    24    13    15    1
@<TRIPOS>MOLECULE
*****
 22 24 0 0 0
SMALL
GASTEIGER

@<TRIPOS>ATOM
      1 C          -9.8787  -16.7908   22.8776 C.2     1  UNL1       -0.0005
      2 C         -11.3019  -16.3953   22.6169 C.2     1  UNL1        0.0942
      3 N         -11.7628  -17.1105   21.3815 N.2     1  UNL1       -0.2482
      4 C         -10.6245  -17.9480   20.8788 C.2     1  UNL1        0.0633
      5 C         -10.4978  -18.8650   19.6985 C.3     1  UNL1        0.0749
      6 C          -9.2067  -19.5844   19.4429 C.2     1  UNL1        0.0171
      7 C          -8.0422  -19.3868   20.3675 C.2     1  UNL1        0.1352
      8 C          -8.1689  -18.4698   21.5478 C.2     1  UNL1        0.0375
      9 C          -9.4600  -17.7504   21.8034 C.2     1  UNL1        0.0145
     10 C          -9.0241  -16.3109   24.0131 C.3     1  UNL1        0.0434
     11 C          -6.7870  -15.2505   24.8011 C.3     1  UNL1        0.0172
     12 C          -7.8276  -15.4487   23.7391 C.3     1  UNL1        0.0553
     13 N          -7.6717  -14.7848   22.4031 N.3     1  UNL1       -0.3219
     14 H          -8.4645  -15.0269   21.8086 H       1  UNL1        0.1188
     15 H          -6.8078  -15.1030   21.9640 H       1  UNL1        0.1188
     16 O          -6.7510  -20.1063   20.1118 O.2     1  UNL1       -0.4704
     17 C          -5.6605  -20.0788   21.1414 C.3     1  UNL1        0.2384
     18 C          -4.3063  -19.5407   20.7854 C.ar    1  UNL1        0.0507
     19 C          -3.9128  -18.9466   19.4655 C.ar    1  UNL1        0.0063
     20 C          -2.4712  -18.5409   19.5512 C.ar    1  UNL1        0.0073
     21 C          -1.9738  -18.8844   20.9241 C.ar    1  UNL1        0.0352
     22 S          -3.1080  -19.5023   21.6869 S.2     1  UNL1       -0.0871
@<TRIPOS>BOND
     1    11    12    1
     2    12    13    1
     3    12    10    1
     4    10     1    1
     5     1     2    2
     6     2     3    1
     7     3     4    2
     8     4     5    1
     9     5     6    1
    10     6     7    2
    11     7    16    1
    12    16    17    1
    13    17    18    1
    14    18    19   ar
    15    19    20   ar
    16    20    21   ar
    17    21    22   ar
    18     7     8    1
    19     8     9    2
    20     9     1    1
    21     9     4    1
    22    22    18   ar
    23    13    14    1
    24    13    15    1
@<TRIPOS>MOLECULE
*****
 22 24 0 0 0
SMALL
GASTEIGER

@<TRIPOS>ATOM
      1 C         -10.6209  -18.3007   21.9406 C.2     1  UNL1       -0.0005
      2 C         -11.4038  -18.9267   20.8247 C.2     1  UNL1        0.0942
      3 N         -10.4293  -19.5184   19.8499 N.2     1  UNL1       -0.2482
      4 C          -9.0442  -19.2581   20.3633 C.2     1  UNL1        0.0633
      5 C          -7.6904  -19.6092   19.8211 C.3     1  UNL1        0.0749
      6 C          -6.4550  -19.2076   20.5711 C.2     1  UNL1        0.0171
      7 C          -6.5733  -18.4550   21.8632 C.2     1  UNL1        0.1352
      8 C          -7.9271  -18.1040   22.4054 C.2     1  UNL1        0.0375
      9 C          -9.1625  -18.5055   21.6554 C.2     1  UNL1        0.0145
     10 C         -11.1954  -17.5940   23.1324 C.3     1  UNL1        0.0434
     11 C         -13.5814  -18.0930   24.0314 C.3     1  UNL1        0.0172
     12 C         -12.1008  -18.3291   24.0759 C.3     1  UNL1        0.0553
     13 N         -11.5255  -19.3002   25.0637 N.3     1  UNL1       -0.3219
     14 H         -10.5119  -19.3357   24.9549 H       1  UNL1        0.1188
     15 H         -11.9179  -20.2269   24.8975 H       1  UNL1        0.1188
     16 O          -5.3378  -18.0535   22.6132 O.2     1  UNL1       -0.4704
     17 C          -4.0600  -18.8136   22.4151 C.3     1  UNL1        0.2384
     18 C          -2.9393  -18.2040   21.6260 C.ar    1  UNL1        0.0507
     19 C          -2.3491  -16.8418   21.8407 C.ar    1  UNL1        0.0063
     20 C          -1.2571  -16.6455   20.8311 C.ar    1  UNL1        0.0073
     21 C          -1.1725  -17.8865   19.9926 C.ar    1  UNL1        0.0352
     22 S          -2.2122  -18.8496   20.4839 S.2     1  UNL1       -0.0871
@<TRIPOS>BOND
     1    11    12    1
     2    12    13    1
     3    12    10    1
     4    10     1    1
     5     1     2    2
     6     2     3    1
     7     3     4    2
     8     4     5    1
     9     5     6    1
    10     6     7    2
    11     7    16    1
    12    16    17    1
    13    17    18    1
    14    18    19   ar
    15    19    20   ar
    16    20    21   ar
    17    21    22   ar
    18     7     8    1
    19     8     9    2
    20     9     1    1
    21     9     4    1
    22    22    18   ar
    23    13    14    1
    24    13    15    1
@<TRIPOS>MOLECULE
*****
 22 24 0 0 0
SMALL
GASTEIGER

@<TRIPOS>ATOM
      1 C         -12.2575  -17.3242   22.8126 C.2     1  UNL1       -0.0005
      2 C         -13.3014  -17.5590   23.8639 C.2     1  UNL1        0.0942
      3 N         -12.8310  -18.6806   24.7417 N.2     1  UNL1       -0.2482
      4 C         -11.4964  -19.1391   24.2329 C.2     1  UNL1        0.0633
      5 C         -10.5582  -20.2116   24.7013 C.3     1  UNL1        0.0749
      6 C          -9.2655  -20.4457   23.9773 C.2     1  UNL1        0.0171
      7 C          -8.9111  -19.6074   22.7850 C.2     1  UNL1        0.1352
      8 C          -9.8493  -18.5349   22.3167 C.2     1  UNL1        0.0375
      9 C         -11.1420  -18.3007   23.0406 C.2     1  UNL1        0.0145
     10 C         -12.3185  -16.2937   21.7242 C.3     1  UNL1        0.0434
     11 C         -11.3113  -17.0504   19.4519 C.3     1  UNL1        0.0172
     12 C         -11.2262  -16.2206   20.6986 C.3     1  UNL1        0.0553
     13 N         -10.0490  -15.3177   20.9196 N.3     1  UNL1       -0.3219
     14 H         -10.1550  -14.8329   21.8108 H       1  UNL1        0.1188
     15 H          -9.9985  -14.6338   20.1645 H       1  UNL1        0.1188
     16 O          -7.6184  -19.8416   22.0611 O.2     1  UNL1       -0.4704
     17 C          -6.5435  -18.7956   22.0880 C.3     1  UNL1        0.2384
     18 C          -5.1395  -19.1528   21.6991 C.ar    1  UNL1        0.0507
     19 C          -4.7203  -19.8147   20.4199 C.ar    1  UNL1        0.0063
     20 C          -3.2299  -19.9818   20.4513 C.ar    1  UNL1        0.0073
     21 C          -2.7281  -19.4231   21.7499 C.ar    1  UNL1        0.0352
     22 S          -3.9083  -18.9108   22.5210 S.2     1  UNL1       -0.0871
@<TRIPOS>BOND
     1    11    12    1
     2    12    13    1
     3    12    10    1
     4    10     1    1
     5     1     2    2
     6     2     3    1
     7     3     4    2
     8     4     5    1
     9     5     6    1
    10     6     7    2
    11     7    16    1
    12    16    17    1
    13    17    18    1
    14    18    19   ar
    15    19    20   ar
    16    20    21   ar
    17    21    22   ar
    18     7     8    1
    19     8     9    2
    20     9     1    1
    21     9     4    1
    22    22    18   ar
    23    13    14    1
    24    13    15    1
@<TRIPOS>MOLECULE
*****
 22 24 0 0 0
SMALL
GASTEIGER

@<TRIPOS>ATOM
      1 C          -6.2060  -16.2549   23.6332 C.2     1  UNL1       -0.0005
      2 C          -4.7739  -16.3876   24.0593 C.2     1  UNL1        0.0942
      3 N          -4.2224  -17.6408   23.4466 N.2     1  UNL1       -0.2482
      4 C          -5.3135  -18.2825   22.6419 C.2     1  UNL1        0.0633
      5 C          -5.3492  -19.5361   21.8190 C.3     1  UNL1        0.0749
      6 C          -6.6108  -19.9332   21.1115 C.2     1  UNL1        0.0171
      7 C          -7.8368  -19.0766   21.2269 C.2     1  UNL1        0.1352
      8 C          -7.8011  -17.8230   22.0497 C.2     1  UNL1        0.0375
      9 C          -6.5395  -17.4260   22.7572 C.2     1  UNL1        0.0145
     10 C          -7.1405  -15.1458   24.0159 C.3     1  UNL1        0.0434
     11 C          -8.2632  -15.5291   26.3275 C.3     1  UNL1        0.0172
     12 C          -8.3628  -15.4432   24.8332 C.3     1  UNL1        0.0553
     13 N          -9.6845  -15.6548   24.1562 N.3     1  UNL1       -0.3219
     14 H          -9.5685  -15.5608   23.1472 H       1  UNL1        0.1188
     15 H         -10.3518  -14.9584   24.4881 H       1  UNL1        0.1188
     16 O          -9.0984  -19.4738   20.5193 O.2     1  UNL1       -0.4704
     17 C         -10.3611  -19.6868   21.3004 C.3     1  UNL1        0.2384
     18 C         -11.2439  -18.5201   21.6318 C.ar    1  UNL1        0.0507
     19 C         -12.0443  -18.3493   22.8889 C.ar    1  UNL1        0.0063
     20 C         -12.7763  -17.0431   22.7984 C.ar    1  UNL1        0.0073
     21 C         -12.4283  -16.4068   21.4853 C.ar    1  UNL1        0.0352
     22 S         -11.4813  -17.3197   20.7644 S.2     1  UNL1       -0.0871
@<TRIPOS>BOND
     1    11    12    1
     2    12    13    1
     3    12    10    1
     4    10     1    1
     5     1     2    2
     6     2     3    1
     7     3     4    2
     8     4     5    1
     9     5     6    1
    10     6     7    2
    11     7    16    1
    12    16    17    1
    13    17    18    1
    14    18    19   ar
    15    19    20   ar
    16    20    21   ar
    17    21    22   ar
    18     7     8    1
    19     8     9    2
    20     9     1    1
    21     9     4    1
    22    22    18   ar
    23    13    14    1
    24    13    15    1
@<TRIPOS>MOLECULE
*****
 22 24 0 0 0
SMALL
GASTEIGER

@<TRIPOS>ATOM
      1 C          -5.4517  -16.6216   23.4872 C.2     1  UNL1       -0.0005
      2 C          -4.0436  -17.0850   23.7162 C.2     1  UNL1        0.0942
      3 N          -3.8739  -18.4083   23.0307 N.2     1  UNL1       -0.2482
      4 C          -5.1772  -18.7628   22.3781 C.2     1  UNL1        0.0633
      5 C          -5.6020  -19.9484   21.5634 C.3     1  UNL1        0.0749
      6 C          -7.0019  -20.0298   21.0308 C.2     1  UNL1        0.0171
      7 C          -7.9770  -18.9254   21.3130 C.2     1  UNL1        0.1352
      8 C          -7.5522  -17.7398   22.1277 C.2     1  UNL1        0.0375
      9 C          -6.1523  -17.6585   22.6602 C.2     1  UNL1        0.0145
     10 C          -6.0536  -15.3453   23.9960 C.3     1  UNL1        0.0434
     11 C          -8.3183  -15.7344   25.2085 C.3     1  UNL1        0.0172
     12 C          -6.8690  -15.3502   25.2550 C.3     1  UNL1        0.0553
     13 N          -6.2353  -14.9709   26.5606 N.3     1  UNL1       -0.3219
     14 H          -5.2534  -14.7409   26.4077 H       1  UNL1        0.1188
     15 H          -6.3039  -15.7530   27.2117 H       1  UNL1        0.1188
     16 O          -9.3769  -19.0068   20.7804 O.2     1  UNL1       -0.4704
     17 C         -10.3535  -17.9048   21.0665 C.3     1  UNL1        0.2384
     18 C         -11.3270  -18.0407   22.1996 C.ar    1  UNL1        0.0507
     19 C         -12.7618  -17.6036   22.1863 C.ar    1  UNL1        0.0063
     20 C         -13.3583  -17.9304   23.5234 C.ar    1  UNL1        0.0073
     21 C         -12.2920  -18.5695   24.3629 C.ar    1  UNL1        0.0352
     22 S         -11.0366  -18.6377   23.5447 S.2     1  UNL1       -0.0871
@<TRIPOS>BOND
     1    11    12    1
     2    12    13    1
     3    12    10    1
     4    10     1    1
     5     1     2    2
     6     2     3    1
     7     3     4    2
     8     4     5    1
     9     5     6    1
    10     6     7    2
    11     7    16    1
    12    16    17    1
    13    17    18    1
    14    18    19   ar
    15    19    20   ar
    16    20    21   ar
    17    21    22   ar
    18     7     8    1
    19     8     9    2
    20     9     1    1
    21     9     4    1
    22    22    18   ar
    23    13    14    1
    24    13    15    1
@<TRIPOS>MOLECULE
*****
 22 24 0 0 0
SMALL
GASTEIGER

@<TRIPOS>ATOM
      1 C          -9.2847  -17.0103   23.3735 C.2     1  UNL1       -0.0005
      2 C          -9.3872  -15.7802   24.2256 C.2     1  UNL1        0.0942
      3 N          -7.9956  -15.3242   24.5507 N.2     1  UNL1       -0.2482
      4 C          -7.0331  -16.2726   23.8994 C.2     1  UNL1        0.0633
      5 C          -5.5341  -16.3219   23.8748 C.3     1  UNL1        0.0749
      6 C          -4.8318  -17.4132   23.1228 C.2     1  UNL1        0.0171
      7 C          -5.6285  -18.4553   22.3952 C.2     1  UNL1        0.1352
      8 C          -7.1275  -18.4061   22.4197 C.2     1  UNL1        0.0375
      9 C          -7.8298  -17.3147   23.1718 C.2     1  UNL1        0.0145
     10 C         -10.4351  -17.7979   22.8201 C.3     1  UNL1        0.0434
     11 C         -12.9736  -17.8539   23.3707 C.3     1  UNL1        0.0172
     12 C         -11.5603  -18.2152   23.7201 C.3     1  UNL1        0.0553
     13 N         -11.2721  -18.9938   24.9694 N.3     1  UNL1       -0.3219
     14 H         -10.2672  -19.1496   25.0488 H       1  UNL1        0.1188
     15 H         -11.7533  -19.8923   24.9287 H       1  UNL1        0.1188
     16 O          -4.9262  -19.5467   21.6431 O.2     1  UNL1       -0.4704
     17 C          -3.4287  -19.6298   21.6662 C.3     1  UNL1        0.2384
     18 C          -2.6185  -18.8416   20.6800 C.ar    1  UNL1        0.0507
     19 C          -2.8972  -18.7146   19.2116 C.ar    1  UNL1        0.0063
     20 C          -1.8383  -17.8366   18.6132 C.ar    1  UNL1        0.0073
     21 C          -0.9053  -17.4210   19.7118 C.ar    1  UNL1        0.0352
     22 S          -1.3876  -18.0421   20.9892 S.2     1  UNL1       -0.0871
@<TRIPOS>BOND
     1    11    12    1
     2    12    13    1
     3    12    10    1
     4    10     1    1
     5     1     2    2
     6     2     3    1
     7     3     4    2
     8     4     5    1
     9     5     6    1
    10     6     7    2
    11     7    16    1
    12    16    17    1
    13    17    18    1
    14    18    19   ar
    15    19    20   ar
    16    20    21   ar
    17    21    22   ar
    18     7     8    1
    19     8     9    2
    20     9     1    1
    21     9     4    1
    22    22    18   ar
    23    13    14    1
    24    13    15    1
@<TRIPOS>MOLECULE
*****
 22 24 0 0 0
SMALL
GASTEIGER

@<TRIPOS>ATOM
      1 C          -9.2267  -18.2412   22.6510 C.2     1  UNL1       -0.0005
      2 C         -10.5534  -17.7491   23.1485 C.2     1  UNL1        0.0942
      3 N         -10.3133  -16.5126   23.9630 N.2     1  UNL1       -0.2482
      4 C          -8.8381  -16.2406   23.9689 C.2     1  UNL1        0.0633
      5 C          -8.0197  -15.1581   24.6079 C.3     1  UNL1        0.0749
      6 C          -6.5297  -15.1440   24.4359 C.2     1  UNL1        0.0171
      7 C          -5.8581  -16.2124   23.6250 C.2     1  UNL1        0.1352
      8 C          -6.6766  -17.2949   22.9861 C.2     1  UNL1        0.0375
      9 C          -8.1666  -17.3090   23.1580 C.2     1  UNL1        0.0145
     10 C          -8.9999  -19.4530   21.7964 C.3     1  UNL1        0.0434
     11 C          -7.1219  -19.5434   20.0032 C.3     1  UNL1        0.0172
     12 C          -8.5541  -19.2941   20.3729 C.3     1  UNL1        0.0553
     13 N          -9.5406  -18.8860   19.3192 N.3     1  UNL1       -0.3219
     14 H         -10.4593  -18.7600   19.7441 H       1  UNL1        0.1188
     15 H          -9.5934  -19.6111   18.6038 H       1  UNL1        0.1188
     16 O          -4.3680  -16.1983   23.4531 O.2     1  UNL1       -0.4704
     17 C          -3.6303  -17.4792   23.1982 C.3     1  UNL1        0.2384
     18 C          -2.6562  -17.5702   22.0611 C.ar    1  UNL1        0.0507
     19 C          -1.9061  -16.4245   21.4490 C.ar    1  UNL1        0.0063
     20 C          -1.0475  -16.9691   20.3460 C.ar    1  UNL1        0.0073
     21 C          -1.2672  -18.4514   20.2766 C.ar    1  UNL1        0.0352
     22 S          -2.2614  -18.8229   21.3365 S.2     1  UNL1       -0.0871
@<TRIPOS>BOND
     1    11    12    1
     2    12    13    1
     3    12    10    1
     4    10     1    1
     5     1     2    2
     6     2     3    1
     7     3     4    2
     8     4     5    1
     9     5     6    1
    10     6     7    2
    11     7    16    1
    12    16    17    1
    13    17    18    1
    14    18    19   ar
    15    19    20   ar
    16    20    21   ar
    17    21    22   ar
    18     7     8    1
    19     8     9    2
    20     9     1    1
    21     9     4    1
    22    22    18   ar
    23    13    14    1
    24    13    15    1
@<TRIPOS>MOLECULE
*****
 22 24 0 0 0
SMALL
GASTEIGER

@<TRIPOS>ATOM
      1 C          -8.6967  -17.6213   22.4597 C.2     1  UNL1       -0.0005
      2 C          -9.2079  -16.3053   22.9665 C.2     1  UNL1        0.0942
      3 N          -8.0487  -15.5499   23.5458 N.2     1  UNL1       -0.2482
      4 C          -6.8211  -16.3990   23.3971 C.2     1  UNL1        0.0633
      5 C          -5.3904  -16.1719   23.7862 C.3     1  UNL1        0.0749
      6 C          -4.3603  -17.2250   23.5041 C.2     1  UNL1        0.0171
      7 C          -4.7608  -18.5052   22.8328 C.2     1  UNL1        0.1352
      8 C          -6.1915  -18.7323   22.4437 C.2     1  UNL1        0.0375
      9 C          -7.2217  -17.6792   22.7259 C.2     1  UNL1        0.0145
     10 C          -9.5167  -18.6915   21.8022 C.3     1  UNL1        0.0434
     11 C         -11.0214  -18.1102   19.7655 C.3     1  UNL1        0.0172
     12 C          -9.7405  -18.6602   20.3192 C.3     1  UNL1        0.0553
     13 N          -8.6833  -19.1790   19.3901 N.3     1  UNL1       -0.3219
     14 H          -7.8867  -19.5118   19.9334 H       1  UNL1        0.1188
     15 H          -8.3809  -18.4301   18.7671 H       1  UNL1        0.1188
     16 O          -3.7305  -19.5583   22.5506 O.2     1  UNL1       -0.4704
     17 C          -3.3891  -19.9130   21.1338 C.3     1  UNL1        0.2384
     18 C          -2.5177  -19.0013   20.3215 C.ar    1  UNL1        0.0507
     19 C          -1.2059  -18.4177   20.7557 C.ar    1  UNL1        0.0063
     20 C          -0.6826  -17.5689   19.6350 C.ar    1  UNL1        0.0073
     21 C          -1.6711  -17.6280   18.5083 C.ar    1  UNL1        0.0352
     22 S          -2.8052  -18.5133   18.9326 S.2     1  UNL1       -0.0871
@<TRIPOS>BOND
     1    11    12    1
     2    12    13    1
     3    12    10    1
     4    10     1    1
     5     1     2    2
     6     2     3    1
     7     3     4    2
     8     4     5    1
     9     5     6    1
    10     6     7    2
    11     7    16    1
    12    16    17    1
    13    17    18    1
    14    18    19   ar
    15    19    20   ar
    16    20    21   ar
    17    21    22   ar
    18     7     8    1
    19     8     9    2
    20     9     1    1
    21     9     4    1
    22    22    18   ar
    23    13    14    1
    24    13    15    1
