@<TRIPOS>MOLECULE
*****
 42 45 0 0 0
SMALL
GASTEIGER

@<TRIPOS>ATOM
      1 N           3.4463   -1.9504   18.9620 N.am    1  UNL1       -0.2888
      2 C           3.2824   -1.1849   20.2415 C.2     1  UNL1        0.3040
      3 O           3.9013   -1.6989   21.5075 O.2     1  UNL1       -0.2526
      4 N           2.4997    0.0946   20.2549 N.am    1  UNL1       -0.2625
      5 C           1.8808    0.6086   18.9890 C.3     1  UNL1        0.0951
      6 C           1.0980    1.8880   19.0024 C.3     1  UNL1        0.0246
      7 C           0.9342    2.6536   20.2819 C.3     1  UNL1        0.0374
      8 C           1.5530    2.1396   21.5479 C.3     1  UNL1        0.0942
      9 C           2.3358    0.8601   21.5344 C.3     1  UNL1        0.1145
     10 H           3.0401   -1.6131   18.1311 H       1  UNL1        0.1510
     11 N           1.3891    2.9051   22.8274 N.am    1  UNL1       -0.2885
     12 C           1.0778    2.1779   24.1019 C.2     1  UNL1        0.3059
     13 O           0.9303    0.6852   24.0968 O.2     1  UNL1       -0.2524
     14 N           0.9139    2.9434   25.3814 N.am    1  UNL1       -0.2485
     15 H           1.4860    3.8848   22.8308 H       1  UNL1        0.1510
     16 H           1.0107    3.9232   25.3848 H       1  UNL1        0.1583
     17 C           0.6026    2.2162   26.6558 C.ar    1  UNL1        0.1664
     18 N          -0.6582    1.4604   26.9542 N.ar    1  UNL1       -0.2282
     19 C          -0.5427    0.8942   28.3384 C.ar    1  UNL1        0.0701
     20 C          -1.5777    0.0672   29.0420 C.3     1  UNL1        0.0528
     21 C           0.7895    1.3001   28.8956 C.ar    1  UNL1        0.0803
     22 S           1.4973    2.1172   27.8557 S.2     1  UNL1       -0.0488
     23 C           1.3207    0.9504   30.2541 C.2     1  UNL1        0.1807
     24 C           1.3582    1.9897   31.3350 C.3     1  UNL1        0.0779
     25 O           1.8143   -0.4386   30.5317 O.2     1  UNL1       -0.2908
     26 C           3.5306   -4.5389   19.1698 C.3     1  UNL1        0.0230
     27 C           4.2291   -3.2299   18.9485 C.3     1  UNL1        0.0910
     28 C           0.1514    3.9331   20.2954 C.3     1  UNL1        0.0738
     29 N          -1.2951    3.9316   19.8983 N.3     1  UNL1       -0.2726
     30 C          -1.7167    4.5508   18.5987 C.3     1  UNL1        0.0721
     31 C          -3.1632    4.5494   18.2016 C.3     1  UNL1        0.0174
     32 C          -4.1880    3.9287   19.1040 C.3     1  UNL1        0.0031
     33 C          -3.7665    3.3095   20.4035 C.3     1  UNL1        0.0204
     34 C          -2.3199    3.3109   20.8007 C.3     1  UNL1        0.0724
     35 C          -4.7913    2.6888   21.3060 C.3     1  UNL1        0.0277
     36 C          -5.2037    3.3897   22.5664 C.ar    1  UNL1       -0.0220
     37 C          -4.4943    3.0951   23.8549 C.ar    1  UNL1       -0.0020
     38 C          -4.9067    3.7960   25.1152 C.ar    1  UNL1        0.0293
     39 C          -6.0284    4.7915   25.0873 C.ar    1  UNL1        0.1401
     40 F          -6.4408    5.4924   26.3476 F       1  UNL1       -0.2042
     41 C          -6.7378    5.0860   23.7989 C.ar    1  UNL1        0.0293
     42 C          -6.3254    4.3851   22.5384 C.ar    1  UNL1       -0.0020
@<TRIPOS>BOND
     1    26    27    1
     2    27     1    1
     3     1     2   am
     4     2     3    2
     5     2     4   am
     6     4     5    1
     7     5     6    1
     8     6     7    1
     9     7    28    1
    10    28    29    1
    11    29    30    1
    12    30    31    1
    13    31    32    1
    14    32    33    1
    15    33    35    1
    16    35    36    1
    17    36    37   ar
    18    37    38   ar
    19    38    39   ar
    20    39    40    1
    21    39    41   ar
    22    41    42   ar
    23    33    34    1
    24     7     8    1
    25     8    11    1
    26    11    12   am
    27    12    13    2
    28    12    14   am
    29    14    17    1
    30    17    18   ar
    31    18    19   ar
    32    19    20    1
    33    19    21   ar
    34    21    23    1
    35    23    24    1
    36    23    25    2
    37    21    22   ar
    38     8     9    1
    39     9     4    1
    40    34    29    1
    41    22    17   ar
    42    42    36   ar
    43     1    10    1
    44    11    15    1
    45    14    16    1
@<TRIPOS>MOLECULE
*****
 42 45 0 0 0
SMALL
GASTEIGER

@<TRIPOS>ATOM
      1 N           4.0764   -2.7900   20.8879 N.am    1  UNL1       -0.2888
      2 C           3.3652   -1.5360   20.4737 C.2     1  UNL1        0.3040
      3 O           2.9795   -1.3317   19.0386 O.2     1  UNL1       -0.2526
      4 N           3.0399   -0.4862   21.4945 N.am    1  UNL1       -0.2625
      5 C           3.4257   -0.6904   22.9295 C.3     1  UNL1        0.0951
      6 C           3.1003    0.3593   23.9504 C.3     1  UNL1        0.0246
      7 C           2.3892    1.6134   23.5361 C.3     1  UNL1        0.0374
      8 C           2.0034    1.8176   22.1011 C.3     1  UNL1        0.0942
      9 C           2.3287    0.7678   21.0803 C.3     1  UNL1        0.1145
     10 H           4.3296   -2.9241   21.8298 H       1  UNL1        0.1510
     11 N           1.2922    3.0717   21.6868 N.am    1  UNL1       -0.2885
     12 C           0.0007    2.9860   20.9288 C.2     1  UNL1        0.3059
     13 O          -0.5797    1.6462   20.5851 O.2     1  UNL1       -0.2524
     14 N          -0.7105    4.2401   20.5145 N.am    1  UNL1       -0.2485
     15 H           1.6731    3.9511   21.9124 H       1  UNL1        0.1510
     16 H          -0.3296    5.1194   20.7401 H       1  UNL1        0.1583
     17 C          -2.0020    4.1544   19.7566 C.ar    1  UNL1        0.1664
     18 N          -2.1449    4.0520   18.2669 N.ar    1  UNL1       -0.2282
     19 C          -3.6086    3.9904   17.9448 C.ar    1  UNL1        0.0701
     20 C          -4.2057    3.8833   16.5729 C.3     1  UNL1        0.0528
     21 C          -4.3704    4.0546   19.2354 C.ar    1  UNL1        0.0803
     22 S          -3.3774    4.1559   20.3551 S.2     1  UNL1       -0.0488
     23 C          -5.8630    4.0230   19.3808 C.2     1  UNL1        0.1807
     24 C          -6.5690    5.1274   20.1099 C.3     1  UNL1        0.0779
     25 O          -6.6495    2.8869   18.7970 O.2     1  UNL1       -0.2908
     26 C           3.5136   -5.0391   19.7152 C.3     1  UNL1        0.0230
     27 C           4.4017   -3.8398   19.8670 C.3     1  UNL1        0.0910
     28 C           2.0638    2.6632   24.5570 C.3     1  UNL1        0.0738
     29 N           0.8897    2.4808   25.4724 N.3     1  UNL1       -0.2726
     30 C           0.7871    1.2507   26.3248 C.3     1  UNL1        0.0721
     31 C          -0.3870    1.0683   27.2402 C.3     1  UNL1        0.0174
     32 C          -1.4587    2.1159   27.3033 C.3     1  UNL1        0.0031
     33 C          -1.3562    3.3459   26.4510 C.3     1  UNL1        0.0204
     34 C          -0.1820    3.5284   25.5355 C.3     1  UNL1        0.0724
     35 C          -2.4279    4.3935   26.5141 C.3     1  UNL1        0.0277
     36 C          -3.6485    4.2708   25.6509 C.ar    1  UNL1       -0.0220
     37 C          -4.8868    5.0473   25.9881 C.ar    1  UNL1       -0.0020
     38 C          -6.1074    4.9245   25.1249 C.ar    1  UNL1        0.0293
     39 C          -6.0897    4.0253   23.9245 C.ar    1  UNL1        0.1401
     40 F          -7.3102    3.9026   23.0613 F       1  UNL1       -0.2042
     41 C          -4.8515    3.2488   23.5872 C.ar    1  UNL1        0.0293
     42 C          -3.6308    3.3715   24.4504 C.ar    1  UNL1       -0.0020
@<TRIPOS>BOND
     1    26    27    1
     2    27     1    1
     3     1     2   am
     4     2     3    2
     5     2     4   am
     6     4     5    1
     7     5     6    1
     8     6     7    1
     9     7    28    1
    10    28    29    1
    11    29    30    1
    12    30    31    1
    13    31    32    1
    14    32    33    1
    15    33    35    1
    16    35    36    1
    17    36    37   ar
    18    37    38   ar
    19    38    39   ar
    20    39    40    1
    21    39    41   ar
    22    41    42   ar
    23    33    34    1
    24     7     8    1
    25     8    11    1
    26    11    12   am
    27    12    13    2
    28    12    14   am
    29    14    17    1
    30    17    18   ar
    31    18    19   ar
    32    19    20    1
    33    19    21   ar
    34    21    23    1
    35    23    24    1
    36    23    25    2
    37    21    22   ar
    38     8     9    1
    39     9     4    1
    40    34    29    1
    41    22    17   ar
    42    42    36   ar
    43     1    10    1
    44    11    15    1
    45    14    16    1
@<TRIPOS>MOLECULE
*****
 42 45 0 0 0
SMALL
GASTEIGER

@<TRIPOS>ATOM
      1 N           4.9835   -1.9563   19.2468 N.am    1  UNL1       -0.2888
      2 C           3.9672   -1.0061   18.6863 C.2     1  UNL1        0.3040
      3 O           3.3707   -1.2584   17.3333 O.2     1  UNL1       -0.2526
      4 N           3.5473    0.1963   19.4787 N.am    1  UNL1       -0.2625
      5 C           4.1437    0.4486   20.8317 C.3     1  UNL1        0.0951
      6 C           3.7238    1.6510   21.6241 C.3     1  UNL1        0.0246
      7 C           2.7075    2.6011   21.0635 C.3     1  UNL1        0.0374
      8 C           2.1111    2.3489   19.7105 C.3     1  UNL1        0.0942
      9 C           2.5310    1.1464   18.9181 C.3     1  UNL1        0.1145
     10 H           5.3750   -1.7907   20.1349 H       1  UNL1        0.1510
     11 N           1.0947    3.2990   19.1499 N.am    1  UNL1       -0.2885
     12 C          -0.3468    3.1746   19.5456 C.2     1  UNL1        0.3059
     13 O          -0.7720    2.1000   20.5019 O.2     1  UNL1       -0.2524
     14 N          -1.3632    4.1248   18.9849 N.am    1  UNL1       -0.2485
     15 H           1.3737    4.0043   18.5222 H       1  UNL1        0.1510
     16 H          -1.0841    4.8300   18.3573 H       1  UNL1        0.1583
     17 C          -2.8046    4.0003   19.3806 C.ar    1  UNL1        0.1664
     18 N          -3.9388    3.6256   18.4733 N.ar    1  UNL1       -0.2282
     19 C          -5.2002    3.6224   19.2850 C.ar    1  UNL1        0.0701
     20 C          -6.5748    3.3026   18.7769 C.3     1  UNL1        0.0528
     21 C          -4.8456    3.9953   20.6940 C.ar    1  UNL1        0.0803
     22 S          -3.3651    4.2288   20.7531 S.2     1  UNL1       -0.0488
     23 C          -5.8034    4.1137   21.8423 C.2     1  UNL1        0.1807
     24 C          -6.9311    5.1009   21.7796 C.3     1  UNL1        0.0779
     25 O          -5.6336    3.2450   23.0533 O.2     1  UNL1       -0.2908
     26 C           4.6594   -4.4526   18.6040 C.3     1  UNL1        0.0230
     27 C           5.4033   -3.1587   18.4544 C.3     1  UNL1        0.0910
     28 C           2.2876    3.8035   21.8559 C.3     1  UNL1        0.0738
     29 N           1.1445    3.7034   22.8219 N.3     1  UNL1       -0.2726
     30 C           0.1202    4.7972   22.8878 C.3     1  UNL1        0.0721
     31 C          -1.0229    4.6971   23.8538 C.3     1  UNL1        0.0174
     32 C          -1.1417    3.5031   24.7540 C.3     1  UNL1        0.0031
     33 C          -0.1175    2.4093   24.6881 C.3     1  UNL1        0.0204
     34 C           1.0257    2.5094   23.7221 C.3     1  UNL1        0.0724
     35 C          -0.2363    1.2153   25.5883 C.3     1  UNL1        0.0277
     36 C          -0.0413    1.3689   27.0676 C.ar    1  UNL1       -0.0220
     37 C          -0.8760    0.5667   28.0214 C.ar    1  UNL1       -0.0020
     38 C          -0.6810    0.7203   29.5007 C.ar    1  UNL1        0.0293
     39 C           0.3487    1.6761   30.0262 C.ar    1  UNL1        0.1401
     40 F           0.5438    1.8297   31.5055 F       1  UNL1       -0.2042
     41 C           1.1835    2.4783   29.0724 C.ar    1  UNL1        0.0293
     42 C           0.9884    2.3247   27.5931 C.ar    1  UNL1       -0.0020
@<TRIPOS>BOND
     1    26    27    1
     2    27     1    1
     3     1     2   am
     4     2     3    2
     5     2     4   am
     6     4     5    1
     7     5     6    1
     8     6     7    1
     9     7    28    1
    10    28    29    1
    11    29    30    1
    12    30    31    1
    13    31    32    1
    14    32    33    1
    15    33    35    1
    16    35    36    1
    17    36    37   ar
    18    37    38   ar
    19    38    39   ar
    20    39    40    1
    21    39    41   ar
    22    41    42   ar
    23    33    34    1
    24     7     8    1
    25     8    11    1
    26    11    12   am
    27    12    13    2
    28    12    14   am
    29    14    17    1
    30    17    18   ar
    31    18    19   ar
    32    19    20    1
    33    19    21   ar
    34    21    23    1
    35    23    24    1
    36    23    25    2
    37    21    22   ar
    38     8     9    1
    39     9     4    1
    40    34    29    1
    41    22    17   ar
    42    42    36   ar
    43     1    10    1
    44    11    15    1
    45    14    16    1
@<TRIPOS>MOLECULE
*****
 42 45 0 0 0
SMALL
GASTEIGER

@<TRIPOS>ATOM
      1 N           9.3152   -5.5793   29.3273 N.am    1  UNL1       -0.2888
      2 C           8.1048   -5.1216   28.5688 C.2     1  UNL1        0.3040
      3 O           6.8610   -4.7273   29.3085 O.2     1  UNL1       -0.2526
      4 N           8.1383   -5.0583   27.0705 N.am    1  UNL1       -0.2625
      5 C           9.3822   -5.4526   26.3307 C.3     1  UNL1        0.0951
      6 C           9.4156   -5.3893   24.8325 C.3     1  UNL1        0.0246
      7 C           8.2052   -4.9316   24.0739 C.3     1  UNL1        0.0374
      8 C           6.9613   -4.5374   24.8137 C.3     1  UNL1        0.0942
      9 C           6.9279   -4.6007   26.3119 C.3     1  UNL1        0.1145
     10 H          10.1317   -5.8381   28.8418 H       1  UNL1        0.1510
     11 N           5.7508   -4.0797   24.0551 N.am    1  UNL1       -0.2885
     12 C           5.3462   -2.6357   24.0888 C.2     1  UNL1        0.3059
     13 O           6.1521   -1.6493   24.8811 O.2     1  UNL1       -0.2524
     14 N           4.1357   -2.1781   23.3303 N.am    1  UNL1       -0.2485
     15 H           5.2219   -4.7271   23.5351 H       1  UNL1        0.1510
     16 H           3.6068   -2.8255   22.8103 H       1  UNL1        0.1583
     17 C           3.7312   -0.7341   23.3640 C.ar    1  UNL1        0.1664
     18 N           4.2950    0.3598   22.5064 N.ar    1  UNL1       -0.2282
     19 C           3.6040    1.6395   22.8736 C.ar    1  UNL1        0.0701
     20 C           3.8592    2.9858   22.2634 C.3     1  UNL1        0.0528
     21 C           2.6130    1.3365   23.9582 C.ar    1  UNL1        0.0803
     22 S           2.6916   -0.1304   24.2612 S.2     1  UNL1       -0.0488
     23 C           1.7032    2.3267   24.6229 C.2     1  UNL1        0.1807
     24 C           0.2156    2.1626   24.5234 C.3     1  UNL1        0.0779
     25 O           2.2811    3.4809   25.3871 O.2     1  UNL1       -0.2908
     26 C           9.3519   -6.9694   31.5220 C.3     1  UNL1        0.0230
     27 C           9.2818   -5.6426   30.8256 C.3     1  UNL1        0.0910
     28 C           8.2387   -4.8683   22.5756 C.3     1  UNL1        0.0738
     29 N           7.7982   -3.6215   21.8676 N.3     1  UNL1       -0.2726
     30 C           8.3805   -2.2941   22.2538 C.3     1  UNL1        0.0721
     31 C           7.9400   -1.0473   21.5458 C.3     1  UNL1        0.0174
     32 C           6.9171   -1.1277   20.4516 C.3     1  UNL1        0.0031
     33 C           6.3348   -2.4550   20.0654 C.3     1  UNL1        0.0204
     34 C           6.7753   -3.7019   20.7734 C.3     1  UNL1        0.0724
     35 C           5.3119   -2.5354   18.9712 C.3     1  UNL1        0.0277
     36 C           4.1065   -1.6434   19.0044 C.ar    1  UNL1       -0.0220
     37 C           3.9946   -0.4975   18.0429 C.ar    1  UNL1       -0.0020
     38 C           2.7892    0.3945   18.0760 C.ar    1  UNL1        0.0293
     39 C           1.6954    0.1406   19.0707 C.ar    1  UNL1        0.1401
     40 F           0.4900    1.0325   19.1038 F       1  UNL1       -0.2042
     41 C           1.8072   -1.0053   20.0321 C.ar    1  UNL1        0.0293
     42 C           3.0127   -1.8973   19.9990 C.ar    1  UNL1       -0.0020
@<TRIPOS>BOND
     1    26    27    1
     2    27     1    1
     3     1     2   am
     4     2     3    2
     5     2     4   am
     6     4     5    1
     7     5     6    1
     8     6     7    1
     9     7    28    1
    10    28    29    1
    11    29    30    1
    12    30    31    1
    13    31    32    1
    14    32    33    1
    15    33    35    1
    16    35    36    1
    17    36    37   ar
    18    37    38   ar
    19    38    39   ar
    20    39    40    1
    21    39    41   ar
    22    41    42   ar
    23    33    34    1
    24     7     8    1
    25     8    11    1
    26    11    12   am
    27    12    13    2
    28    12    14   am
    29    14    17    1
    30    17    18   ar
    31    18    19   ar
    32    19    20    1
    33    19    21   ar
    34    21    23    1
    35    23    24    1
    36    23    25    2
    37    21    22   ar
    38     8     9    1
    39     9     4    1
    40    34    29    1
    41    22    17   ar
    42    42    36   ar
    43     1    10    1
    44    11    15    1
    45    14    16    1
@<TRIPOS>MOLECULE
*****
 42 45 0 0 0
SMALL
GASTEIGER

@<TRIPOS>ATOM
      1 N           0.4935    1.0084   27.9367 N.am    1  UNL1       -0.2888
      2 C          -0.1542    1.9791   26.9943 C.2     1  UNL1        0.3040
      3 O          -1.5840    2.3834   27.1999 O.2     1  UNL1       -0.2526
      4 N           0.6278    2.5455   25.8464 N.am    1  UNL1       -0.2625
      5 C           2.0575    2.1412   25.6408 C.3     1  UNL1        0.0951
      6 C           2.8395    2.7075   24.4929 C.3     1  UNL1        0.0246
      7 C           2.1917    3.6782   23.5505 C.3     1  UNL1        0.0374
      8 C           0.7620    4.0825   23.7561 C.3     1  UNL1        0.0942
      9 C          -0.0200    3.5162   24.9040 C.3     1  UNL1        0.1145
     10 H           1.4320    0.7431   27.8018 H       1  UNL1        0.1510
     11 N           0.1141    5.0533   22.8137 N.am    1  UNL1       -0.2885
     12 C          -0.8826    4.5667   21.8039 C.2     1  UNL1        0.3059
     13 O          -1.2316    3.1094   21.7365 O.2     1  UNL1       -0.2524
     14 N          -1.5305    5.5374   20.8615 N.am    1  UNL1       -0.2485
     15 H           0.3432    6.0097   22.8579 H       1  UNL1        0.1510
     16 H          -1.3014    6.4939   20.9057 H       1  UNL1        0.1583
     17 C          -2.5272    5.0508   19.8517 C.ar    1  UNL1        0.1664
     18 N          -2.2081    4.4853   18.4996 N.ar    1  UNL1       -0.2282
     19 C          -3.5018    4.1293   17.8290 C.ar    1  UNL1        0.0701
     20 C          -3.6507    3.5325   16.4609 C.3     1  UNL1        0.0528
     21 C          -4.6205    4.4749   18.7667 C.ar    1  UNL1        0.0803
     22 S          -4.0181    5.0444   20.0168 S.2     1  UNL1       -0.0488
     23 C          -6.0844    4.2844   18.5009 C.2     1  UNL1        0.1807
     24 C          -6.9135    5.4344   18.0110 C.3     1  UNL1        0.0779
     25 O          -6.7191    2.9439   18.7250 O.2     1  UNL1       -0.2908
     26 C          -1.3474   -0.5904   28.8339 C.3     1  UNL1        0.0230
     27 C          -0.2884    0.4421   29.0846 C.3     1  UNL1        0.0910
     28 C           2.9737    4.2446   22.4026 C.3     1  UNL1        0.0738
     29 N           2.4880    4.0518   20.9966 N.3     1  UNL1       -0.2726
     30 C           2.3997    5.2250   20.0661 C.3     1  UNL1        0.0721
     31 C           1.9140    5.0323   18.6601 C.3     1  UNL1        0.0174
     32 C           1.5166    3.6663   18.1845 C.3     1  UNL1        0.0031
     33 C           1.6049    2.4931   19.1149 C.3     1  UNL1        0.0204
     34 C           2.0906    2.6858   20.5210 C.3     1  UNL1        0.0724
     35 C           1.2075    1.1271   18.6394 C.3     1  UNL1        0.0277
     36 C           2.2015    0.0041   18.6686 C.ar    1  UNL1       -0.0220
     37 C           3.2243   -0.1208   17.5785 C.ar    1  UNL1       -0.0020
     38 C           4.2183   -1.2437   17.6077 C.ar    1  UNL1        0.0293
     39 C           4.1896   -2.2418   18.7271 C.ar    1  UNL1        0.1401
     40 F           5.1836   -3.3647   18.7564 F       1  UNL1       -0.2042
     41 C           3.1669   -2.1169   19.8173 C.ar    1  UNL1        0.0293
     42 C           2.1728   -0.9939   19.7880 C.ar    1  UNL1       -0.0020
@<TRIPOS>BOND
     1    26    27    1
     2    27     1    1
     3     1     2   am
     4     2     3    2
     5     2     4   am
     6     4     5    1
     7     5     6    1
     8     6     7    1
     9     7    28    1
    10    28    29    1
    11    29    30    1
    12    30    31    1
    13    31    32    1
    14    32    33    1
    15    33    35    1
    16    35    36    1
    17    36    37   ar
    18    37    38   ar
    19    38    39   ar
    20    39    40    1
    21    39    41   ar
    22    41    42   ar
    23    33    34    1
    24     7     8    1
    25     8    11    1
    26    11    12   am
    27    12    13    2
    28    12    14   am
    29    14    17    1
    30    17    18   ar
    31    18    19   ar
    32    19    20    1
    33    19    21   ar
    34    21    23    1
    35    23    24    1
    36    23    25    2
    37    21    22   ar
    38     8     9    1
    39     9     4    1
    40    34    29    1
    41    22    17   ar
    42    42    36   ar
    43     1    10    1
    44    11    15    1
    45    14    16    1
@<TRIPOS>MOLECULE
*****
 42 45 0 0 0
SMALL
GASTEIGER

@<TRIPOS>ATOM
      1 N          -1.8210    4.4903   23.1084 N.am    1  UNL1       -0.2888
      2 C          -1.6717    3.5102   24.2340 C.2     1  UNL1        0.3040
      3 O          -2.8384    3.2114   25.1281 O.2     1  UNL1       -0.2526
      4 N          -0.3556    2.8288   24.4656 N.am    1  UNL1       -0.2625
      5 C           0.8112    3.1276   23.5715 C.3     1  UNL1        0.0951
      6 C           2.1273    2.4463   23.8031 C.3     1  UNL1        0.0246
      7 C           2.2767    1.4661   24.9287 C.3     1  UNL1        0.0374
      8 C           1.1099    1.1674   25.8227 C.3     1  UNL1        0.0942
      9 C          -0.2062    1.8487   25.5912 C.3     1  UNL1        0.1145
     10 H          -1.0552    4.6864   22.5216 H       1  UNL1        0.1510
     11 N           1.2592    0.1872   26.9484 N.am    1  UNL1       -0.2885
     12 C           1.7698    0.6480   28.2813 C.2     1  UNL1        0.3059
     13 O           2.1311    2.0890   28.4887 O.2     1  UNL1       -0.2524
     14 N           1.9191   -0.3321   29.4070 N.am    1  UNL1       -0.2485
     15 H           1.0221   -0.7586   26.8123 H       1  UNL1        0.1510
     16 H           1.6820   -1.2779   29.2709 H       1  UNL1        0.1583
     17 C           2.4297    0.1287   30.7400 C.ar    1  UNL1        0.1664
     18 N           1.7831    1.1518   31.6261 N.ar    1  UNL1       -0.2282
     19 C           2.6303    1.3028   32.8547 C.ar    1  UNL1        0.0701
     20 C           2.3555    2.2221   34.0076 C.3     1  UNL1        0.0528
     21 C           3.8006    0.3730   32.7279 C.ar    1  UNL1        0.0803
     22 S           3.6766   -0.3526   31.4209 S.2     1  UNL1       -0.0488
     23 C           4.9015    0.1993   33.7318 C.2     1  UNL1        0.1807
     24 C           4.6631   -0.6063   34.9744 C.3     1  UNL1        0.0779
     25 O           6.2408    0.8313   33.4930 O.2     1  UNL1       -0.2908
     26 C          -4.2015    4.4918   22.0676 C.3     1  UNL1        0.0230
     27 C          -3.1371    5.1717   22.8769 C.3     1  UNL1        0.0910
     28 C           3.5928    0.7848   25.1602 C.3     1  UNL1        0.0738
     29 N           3.9520   -0.4401   24.3725 N.3     1  UNL1       -0.2726
     30 C           4.8522   -1.4798   24.9715 C.3     1  UNL1        0.0721
     31 C           5.2115   -2.7047   24.1838 C.3     1  UNL1        0.0174
     32 C           4.6705   -2.8900   22.7971 C.3     1  UNL1        0.0031
     33 C           3.7704   -1.8504   22.1980 C.3     1  UNL1        0.0204
     34 C           3.4111   -0.6254   22.9858 C.3     1  UNL1        0.0724
     35 C           3.2294   -2.0357   20.8113 C.3     1  UNL1        0.0277
     36 C           2.5699   -0.8891   20.1041 C.ar    1  UNL1       -0.0220
     37 C           1.1386   -0.5499   20.3980 C.ar    1  UNL1       -0.0020
     38 C           0.4790    0.5967   19.6908 C.ar    1  UNL1        0.0293
     39 C           1.2508    1.4043   18.6896 C.ar    1  UNL1        0.1401
     40 F           0.5913    2.5509   17.9824 F       1  UNL1       -0.2042
     41 C           2.6821    1.0652   18.3957 C.ar    1  UNL1        0.0293
     42 C           3.3417   -0.0815   19.1030 C.ar    1  UNL1       -0.0020
@<TRIPOS>BOND
     1    26    27    1
     2    27     1    1
     3     1     2   am
     4     2     3    2
     5     2     4   am
     6     4     5    1
     7     5     6    1
     8     6     7    1
     9     7    28    1
    10    28    29    1
    11    29    30    1
    12    30    31    1
    13    31    32    1
    14    32    33    1
    15    33    35    1
    16    35    36    1
    17    36    37   ar
    18    37    38   ar
    19    38    39   ar
    20    39    40    1
    21    39    41   ar
    22    41    42   ar
    23    33    34    1
    24     7     8    1
    25     8    11    1
    26    11    12   am
    27    12    13    2
    28    12    14   am
    29    14    17    1
    30    17    18   ar
    31    18    19   ar
    32    19    20    1
    33    19    21   ar
    34    21    23    1
    35    23    24    1
    36    23    25    2
    37    21    22   ar
    38     8     9    1
    39     9     4    1
    40    34    29    1
    41    22    17   ar
    42    42    36   ar
    43     1    10    1
    44    11    15    1
    45    14    16    1
@<TRIPOS>MOLECULE
*****
 42 45 0 0 0
SMALL
GASTEIGER

@<TRIPOS>ATOM
      1 N           0.5410    2.2819   18.2375 N.am    1  UNL1       -0.2888
      2 C           0.8646    1.4593   19.4493 C.2     1  UNL1        0.3040
      3 O           0.1474    1.7137   20.7419 O.2     1  UNL1       -0.2526
      4 N           1.9055    0.3822   19.3685 N.am    1  UNL1       -0.2625
      5 C           2.6227    0.1278   18.0760 C.3     1  UNL1        0.0951
      6 C           3.6636   -0.9493   17.9952 C.3     1  UNL1        0.0246
      7 C           3.9872   -1.7719   19.2070 C.3     1  UNL1        0.0374
      8 C           3.2700   -1.5175   20.4995 C.3     1  UNL1        0.0942
      9 C           2.2291   -0.4404   20.5803 C.3     1  UNL1        0.1145
     10 H           1.0117    2.1150   17.3892 H       1  UNL1        0.1510
     11 N           3.5936   -2.3402   21.7114 N.am    1  UNL1       -0.2885
     12 C           4.3328   -1.7229   22.8614 C.2     1  UNL1        0.3059
     13 O           4.7485   -0.2830   22.7996 O.2     1  UNL1       -0.2524
     14 N           4.6564   -2.5456   24.0733 N.am    1  UNL1       -0.2485
     15 H           3.3208   -3.2852   21.7520 H       1  UNL1        0.1510
     16 H           4.3836   -3.4906   24.1138 H       1  UNL1        0.1583
     17 C           5.3957   -1.9283   25.2232 C.ar    1  UNL1        0.1664
     18 N           6.8396   -1.5220   25.2270 N.ar    1  UNL1       -0.2282
     19 C           7.1571   -0.9515   26.5774 C.ar    1  UNL1        0.0701
     20 C           8.4886   -0.4206   27.0194 C.3     1  UNL1        0.0528
     21 C           5.9094   -1.0052   27.4083 C.ar    1  UNL1        0.0803
     22 S           4.8208   -1.6089   26.5714 S.2     1  UNL1       -0.0488
     23 C           5.7741   -0.5373   28.8271 C.2     1  UNL1        0.1807
     24 C           5.2972    0.8553   29.1152 C.3     1  UNL1        0.0779
     25 O           6.1156   -1.4622   29.9576 O.2     1  UNL1       -0.2908
     26 C          -0.1409    4.7094   18.8640 C.3     1  UNL1        0.0230
     27 C          -0.4999    3.3590   18.3183 C.3     1  UNL1        0.0910
     28 C           5.0281   -2.8490   19.1262 C.3     1  UNL1        0.0738
     29 N           6.2860   -2.7386   19.9357 N.3     1  UNL1       -0.2726
     30 C           6.8876   -1.3915   20.2069 C.3     1  UNL1        0.0721
     31 C           8.1455   -1.2811   21.0165 C.3     1  UNL1        0.0174
     32 C           8.8019   -2.5177   21.5548 C.3     1  UNL1        0.0031
     33 C           8.2004   -3.8648   21.2836 C.3     1  UNL1        0.0204
     34 C           6.9424   -3.9752   20.4740 C.3     1  UNL1        0.0724
     35 C           8.8569   -5.1014   21.8219 C.3     1  UNL1        0.0277
     36 C           8.4245   -5.6657   23.1427 C.ar    1  UNL1       -0.0220
     37 C           8.7722   -7.0794   23.5044 C.ar    1  UNL1       -0.0020
     38 C           8.3399   -7.6436   24.8252 C.ar    1  UNL1        0.0293
     39 C           7.5599   -6.7943   25.7844 C.ar    1  UNL1        0.1401
     40 F           7.1275   -7.3585   27.1053 F       1  UNL1       -0.2042
     41 C           7.2122   -5.3807   25.4229 C.ar    1  UNL1        0.0293
     42 C           7.6445   -4.8163   24.1020 C.ar    1  UNL1       -0.0020
@<TRIPOS>BOND
     1    26    27    1
     2    27     1    1
     3     1     2   am
     4     2     3    2
     5     2     4   am
     6     4     5    1
     7     5     6    1
     8     6     7    1
     9     7    28    1
    10    28    29    1
    11    29    30    1
    12    30    31    1
    13    31    32    1
    14    32    33    1
    15    33    35    1
    16    35    36    1
    17    36    37   ar
    18    37    38   ar
    19    38    39   ar
    20    39    40    1
    21    39    41   ar
    22    41    42   ar
    23    33    34    1
    24     7     8    1
    25     8    11    1
    26    11    12   am
    27    12    13    2
    28    12    14   am
    29    14    17    1
    30    17    18   ar
    31    18    19   ar
    32    19    20    1
    33    19    21   ar
    34    21    23    1
    35    23    24    1
    36    23    25    2
    37    21    22   ar
    38     8     9    1
    39     9     4    1
    40    34    29    1
    41    22    17   ar
    42    42    36   ar
    43     1    10    1
    44    11    15    1
    45    14    16    1
@<TRIPOS>MOLECULE
*****
 42 45 0 0 0
SMALL
GASTEIGER

@<TRIPOS>ATOM
      1 N           7.0526   -2.6959   29.8756 N.am    1  UNL1       -0.2888
      2 C           6.2267   -2.7646   28.6254 C.2     1  UNL1        0.3040
      3 O           6.2260   -4.0136   27.7947 O.2     1  UNL1       -0.2526
      4 N           5.4016   -1.5843   28.2058 N.am    1  UNL1       -0.2625
      5 C           5.4023   -0.3353   29.0364 C.3     1  UNL1        0.0951
      6 C           4.5772    0.8449   28.6169 C.3     1  UNL1        0.0246
      7 C           3.7514    0.7763   27.3666 C.3     1  UNL1        0.0374
      8 C           3.7506   -0.4727   26.5359 C.3     1  UNL1        0.0942
      9 C           4.5758   -1.6530   26.9555 C.3     1  UNL1        0.1145
     10 H           7.0531   -1.8762   30.4208 H       1  UNL1        0.1510
     11 N           2.9247   -0.5414   25.2856 N.am    1  UNL1       -0.2885
     12 C           3.5926   -0.7204   23.9545 C.2     1  UNL1        0.3059
     13 O           5.0864   -0.8307   23.8736 O.2     1  UNL1       -0.2524
     14 N           2.7667   -0.7891   22.7042 N.am    1  UNL1       -0.2485
     15 H           1.9443   -0.4690   25.3386 H       1  UNL1        0.1510
     16 H           1.7863   -0.7167   22.7572 H       1  UNL1        0.1583
     17 C           3.4346   -0.9681   21.3731 C.ar    1  UNL1        0.1664
     18 N           3.7247    0.1173   20.3792 N.ar    1  UNL1       -0.2282
     19 C           4.3990   -0.5077   19.1940 C.ar    1  UNL1        0.0701
     20 C           4.8649    0.2125   17.9634 C.3     1  UNL1        0.0528
     21 C           4.5257   -1.9793   19.4554 C.ar    1  UNL1        0.0803
     22 S           3.9297   -2.2638   20.8021 S.2     1  UNL1       -0.0488
     23 C           5.1405   -2.9891   18.5322 C.2     1  UNL1        0.1807
     24 C           4.7486   -4.4335   18.6325 C.3     1  UNL1        0.0779
     25 O           6.1472   -2.5545   17.5086 O.2     1  UNL1       -0.2908
     26 C           7.9055   -4.2983   31.7344 C.3     1  UNL1        0.0230
     27 C           7.8777   -3.8762   30.2952 C.3     1  UNL1        0.0910
     28 C           2.9262    1.9566   26.9470 C.3     1  UNL1        0.0738
     29 N           1.4445    1.9567   27.1801 N.3     1  UNL1       -0.2726
     30 C           0.7939    0.7953   27.8714 C.3     1  UNL1        0.0721
     31 C          -0.6879    0.7954   28.1044 C.3     1  UNL1        0.0174
     32 C          -1.5191    1.9569   27.6462 C.3     1  UNL1        0.0031
     33 C          -0.8686    3.1183   26.9549 C.3     1  UNL1        0.0204
     34 C           0.6133    3.1182   26.7219 C.3     1  UNL1        0.0724
     35 C          -1.6998    4.2799   26.4967 C.3     1  UNL1        0.0277
     36 C          -2.8416    4.0577   25.5498 C.ar    1  UNL1       -0.0220
     37 C          -2.5724    3.8130   24.0945 C.ar    1  UNL1       -0.0020
     38 C          -3.7142    3.5908   23.1475 C.ar    1  UNL1        0.0293
     39 C          -5.1253    3.6135   23.6557 C.ar    1  UNL1        0.1401
     40 F          -6.2671    3.3913   22.7087 F       1  UNL1       -0.2042
     41 C          -5.3946    3.8582   25.1109 C.ar    1  UNL1        0.0293
     42 C          -4.2527    4.0804   26.0579 C.ar    1  UNL1       -0.0020
@<TRIPOS>BOND
     1    26    27    1
     2    27     1    1
     3     1     2   am
     4     2     3    2
     5     2     4   am
     6     4     5    1
     7     5     6    1
     8     6     7    1
     9     7    28    1
    10    28    29    1
    11    29    30    1
    12    30    31    1
    13    31    32    1
    14    32    33    1
    15    33    35    1
    16    35    36    1
    17    36    37   ar
    18    37    38   ar
    19    38    39   ar
    20    39    40    1
    21    39    41   ar
    22    41    42   ar
    23    33    34    1
    24     7     8    1
    25     8    11    1
    26    11    12   am
    27    12    13    2
    28    12    14   am
    29    14    17    1
    30    17    18   ar
    31    18    19   ar
    32    19    20    1
    33    19    21   ar
    34    21    23    1
    35    23    24    1
    36    23    25    2
    37    21    22   ar
    38     8     9    1
    39     9     4    1
    40    34    29    1
    41    22    17   ar
    42    42    36   ar
    43     1    10    1
    44    11    15    1
    45    14    16    1
@<TRIPOS>MOLECULE
*****
 42 45 0 0 0
SMALL
GASTEIGER

@<TRIPOS>ATOM
      1 N           0.9030    0.5229   27.4370 N.am    1  UNL1       -0.2888
      2 C           1.1390    0.1121   28.8602 C.2     1  UNL1        0.3040
      3 O           0.0068    0.1315   29.8439 O.2     1  UNL1       -0.2526
      4 N           2.5071   -0.3182   29.2996 N.am    1  UNL1       -0.2625
      5 C           3.6393   -0.3376   28.3159 C.3     1  UNL1        0.0951
      6 C           5.0074   -0.7679   28.7553 C.3     1  UNL1        0.0246
      7 C           5.2434   -1.1787   30.1785 C.3     1  UNL1        0.0374
      8 C           4.1112   -1.1593   31.1622 C.3     1  UNL1        0.0942
      9 C           2.7431   -0.7291   30.7228 C.3     1  UNL1        0.1145
     10 H           1.6461    0.5102   26.7913 H       1  UNL1        0.1510
     11 N           4.3471   -1.5702   32.5855 N.am    1  UNL1       -0.2885
     12 C           4.6972   -0.5380   33.6159 C.2     1  UNL1        0.3059
     13 O           4.8113    0.9052   33.2232 O.2     1  UNL1       -0.2524
     14 N           4.9331   -0.9488   35.0392 N.am    1  UNL1       -0.2485
     15 H           4.2722   -2.5174   32.8432 H       1  UNL1        0.1510
     16 H           4.8582   -1.8960   35.2970 H       1  UNL1        0.1583
     17 C           5.2831    0.0834   36.0696 C.ar    1  UNL1        0.1664
     18 N           6.6477    0.6551   36.3167 N.ar    1  UNL1       -0.2282
     19 C           6.5380    1.6503   37.4337 C.ar    1  UNL1        0.0701
     20 C           7.6632    2.4599   38.0068 C.3     1  UNL1        0.0528
     21 C           5.1056    1.6936   37.8770 C.ar    1  UNL1        0.0803
     22 S           4.3301    0.7252   37.0339 S.2     1  UNL1       -0.0488
     23 C           4.5469    2.5542   38.9711 C.2     1  UNL1        0.1807
     24 C           3.4364    3.5178   38.6743 C.3     1  UNL1        0.0779
     25 O           5.0988    2.4511   40.3621 O.2     1  UNL1       -0.2908
     26 C          -0.7631    2.4087   26.7904 C.3     1  UNL1        0.0230
     27 C          -0.4651    0.9532   26.9975 C.3     1  UNL1        0.0910
     28 C           6.6115   -1.6090   30.6179 C.3     1  UNL1        0.0738
     29 N           7.0148   -3.0498   30.5115 N.3     1  UNL1       -0.2726
     30 C           6.5860   -4.0284   31.5644 C.3     1  UNL1        0.0721
     31 C           6.9894   -5.4692   31.4580 C.3     1  UNL1        0.0174
     32 C           7.8215   -5.9315   30.2988 C.3     1  UNL1        0.0031
     33 C           8.2503   -4.9529   29.2459 C.3     1  UNL1        0.0204
     34 C           7.8470   -3.5121   29.3523 C.3     1  UNL1        0.0724
     35 C           9.0825   -5.4152   28.0867 C.3     1  UNL1        0.0277
     36 C           8.6830   -5.0560   26.6862 C.ar    1  UNL1       -0.0220
     37 C           7.8236   -5.9912   25.8882 C.ar    1  UNL1       -0.0020
     38 C           7.4241   -5.6320   24.4877 C.ar    1  UNL1        0.0293
     39 C           7.8840   -4.3376   23.8852 C.ar    1  UNL1        0.1401
     40 F           7.4845   -3.9784   22.4848 F       1  UNL1       -0.2042
     41 C           8.7434   -3.4024   24.6832 C.ar    1  UNL1        0.0293
     42 C           9.1429   -3.7616   26.0838 C.ar    1  UNL1       -0.0020
@<TRIPOS>BOND
     1    26    27    1
     2    27     1    1
     3     1     2   am
     4     2     3    2
     5     2     4   am
     6     4     5    1
     7     5     6    1
     8     6     7    1
     9     7    28    1
    10    28    29    1
    11    29    30    1
    12    30    31    1
    13    31    32    1
    14    32    33    1
    15    33    35    1
    16    35    36    1
    17    36    37   ar
    18    37    38   ar
    19    38    39   ar
    20    39    40    1
    21    39    41   ar
    22    41    42   ar
    23    33    34    1
    24     7     8    1
    25     8    11    1
    26    11    12   am
    27    12    13    2
    28    12    14   am
    29    14    17    1
    30    17    18   ar
    31    18    19   ar
    32    19    20    1
    33    19    21   ar
    34    21    23    1
    35    23    24    1
    36    23    25    2
    37    21    22   ar
    38     8     9    1
    39     9     4    1
    40    34    29    1
    41    22    17   ar
    42    42    36   ar
    43     1    10    1
    44    11    15    1
    45    14    16    1
