@<TRIPOS>MOLECULE
*****
 41 44 0 0 0
SMALL
GASTEIGER

@<TRIPOS>ATOM
      1 C           7.1353   -1.7089   31.7582 C.ar    1  UNL1        0.1534
      2 C           8.1643   -2.7589   32.0558 C.ar    1  UNL1        0.0574
      3 C           8.2043   -4.0208   31.2458 C.ar    1  UNL1        0.0888
      4 N           9.2333   -5.0708   31.5435 N.ar    1  UNL1       -0.2238
      5 C           9.2732   -6.3326   30.7335 C.ar    1  UNL1        0.2000
      6 N           8.2841   -6.5445   29.6259 N.ar    1  UNL1       -0.2089
      7 C           7.2551   -5.4946   29.3283 C.ar    1  UNL1        0.1353
      8 C           7.2152   -4.2327   30.1382 C.ar    1  UNL1        0.0508
      9 C           6.1861   -3.1826   29.8406 C.ar    1  UNL1        0.0221
     10 C           6.1462   -1.9208   30.6505 C.ar    1  UNL1        0.0852
     11 N           5.1171   -0.8707   30.3529 N.am    1  UNL1       -0.2762
     12 C           3.8425   -0.8247   31.1424 C.2     1  UNL1        0.2769
     13 O           3.5970   -1.8287   32.2295 O.2     1  UNL1       -0.2674
     14 H           5.2783   -0.2118   29.6394 H       1  UNL1        0.1553
     15 C           2.8135    0.2253   30.8448 C.2     1  UNL1        0.1905
     16 F           2.8873    1.5611   31.5230 F       1  UNL1       -0.1997
     17 C           1.7107   -0.0606   29.8691 C.2     1  UNL1        0.0256
     18 C           0.6817    0.9894   29.5715 C.3     1  UNL1        0.1014
     19 N          -0.4472    0.6879   28.6309 N.3     1  UNL1       -0.2665
     20 C          -0.7513    1.6247   27.4995 C.3     1  UNL1        0.0899
     21 C          -1.2720   -0.5504   28.8217 C.3     1  UNL1        0.0899
     22 N           6.2660   -5.7064   28.2207 N.pl3   1  UNL1       -0.2978
     23 H           5.3387   -5.9615   28.4309 H       1  UNL1        0.1536
     24 C           6.6898   -5.5297   26.7927 C.ar    1  UNL1        0.0504
     25 C           6.4450   -4.2252   26.0937 C.ar    1  UNL1        0.0178
     26 C           6.8688   -4.0484   24.6657 C.ar    1  UNL1        0.0391
     27 C           7.5373   -5.1760   23.9367 C.ar    1  UNL1        0.1496
     28 C           7.7821   -6.4805   24.6356 C.ar    1  UNL1        0.0928
     29 CL          8.4507   -7.6081   23.9066 Cl      1  UNL1       -0.0790
     30 C           7.3584   -6.6573   26.0637 C.ar    1  UNL1        0.0291
     31 O           7.9611   -4.9992   22.5087 O.3     1  UNL1       -0.4681
     32 C           7.6275   -3.7320   21.7788 C.3     1  UNL1        0.2508
     33 C           6.4994   -3.7106   20.7904 C.ar    1  UNL1        0.1026
     34 C           6.6666   -3.0062   19.4766 C.ar    1  UNL1        0.0185
     35 C           5.5385   -2.9848   18.4882 C.ar    1  UNL1        0.0029
     36 C           4.2432   -3.6677   18.8135 C.ar    1  UNL1        0.0207
     37 C           4.0760   -4.3721   20.1272 C.ar    1  UNL1        0.0986
     38 N           5.2041   -4.3935   21.1157 N.ar    1  UNL1       -0.2445
     39 O           7.0953   -0.4470   32.5681 O.3     1  UNL1       -0.4742
     40 C           5.9885    0.8683   34.5162 C.3     1  UNL1        0.0512
     41 C           6.4106   -0.4337   33.9026 C.3     1  UNL1        0.2056
@<TRIPOS>BOND
     1    40    41    1
     2    41    39    1
     3    39     1    1
     4     1     2   ar
     5     2     3   ar
     6     3     4   ar
     7     4     5   ar
     8     5     6   ar
     9     6     7   ar
    10     7    22    1
    11    22    24    1
    12    24    25   ar
    13    25    26   ar
    14    26    27   ar
    15    27    31    1
    16    31    32    1
    17    32    33    1
    18    33    34   ar
    19    34    35   ar
    20    35    36   ar
    21    36    37   ar
    22    37    38   ar
    23    27    28   ar
    24    28    29    1
    25    28    30   ar
    26     7     8   ar
    27     8     9   ar
    28     9    10   ar
    29    10    11    1
    30    11    12   am
    31    12    13    2
    32    12    15    1
    33    15    16    1
    34    15    17    2
    35    17    18    1
    36    18    19    1
    37    19    20    1
    38    19    21    1
    39    10     1   ar
    40     8     3   ar
    41    30    24   ar
    42    38    33   ar
    43    22    23    1
    44    11    14    1
@<TRIPOS>MOLECULE
*****
 41 44 0 0 0
SMALL
GASTEIGER

@<TRIPOS>ATOM
      1 C           2.0817    0.6843   18.7133 C.ar    1  UNL1        0.1534
      2 C           3.2099    0.0906   17.9230 C.ar    1  UNL1        0.0574
      3 C           3.9519   -1.1003   18.4533 C.ar    1  UNL1        0.0888
      4 N           5.0801   -1.6939   17.6630 N.ar    1  UNL1       -0.2238
      5 C           5.8221   -2.8848   18.1933 C.ar    1  UNL1        0.2000
      6 N           5.4357   -3.4821   19.5139 N.ar    1  UNL1       -0.2089
      7 C           4.3075   -2.8885   20.3042 C.ar    1  UNL1        0.1353
      8 C           3.5656   -1.6976   19.7739 C.ar    1  UNL1        0.0508
      9 C           2.4373   -1.1039   20.5642 C.ar    1  UNL1        0.0221
     10 C           1.6953    0.0870   20.0339 C.ar    1  UNL1        0.0852
     11 N           0.5670    0.6807   20.8242 N.am    1  UNL1       -0.2762
     12 C           0.8236    1.8356   21.7464 C.2     1  UNL1        0.2769
     13 O           2.2084    2.3969   21.8781 O.2     1  UNL1       -0.2674
     14 H          -0.3418    0.3123   20.7377 H       1  UNL1        0.1553
     15 C          -0.3047    2.4293   22.5367 C.2     1  UNL1        0.1905
     16 F          -0.4070    2.1682   24.0102 F       1  UNL1       -0.1997
     17 C          -1.3305    3.2842   21.8534 C.2     1  UNL1        0.0256
     18 C          -2.4588    3.8779   22.6437 C.3     1  UNL1        0.1014
     19 N          -3.8652    3.4118   22.4096 N.3     1  UNL1       -0.2665
     20 C          -4.3639    3.2060   21.0100 C.3     1  UNL1        0.0899
     21 C          -4.7728    3.1515   23.5751 C.3     1  UNL1        0.0899
     22 N           3.9212   -3.4858   21.6248 N.pl3   1  UNL1       -0.2978
     23 H           3.1802   -4.1320   21.6749 H       1  UNL1        0.1536
     24 C           4.6639   -3.0984   22.8691 C.ar    1  UNL1        0.0504
     25 C           4.1823   -1.9479   23.7026 C.ar    1  UNL1        0.0178
     26 C           4.9250   -1.5606   24.9469 C.ar    1  UNL1        0.0391
     27 C           6.1493   -2.3237   25.3578 C.ar    1  UNL1        0.1496
     28 C           6.6308   -3.4742   24.5245 C.ar    1  UNL1        0.0928
     29 CL          7.8551   -4.2373   24.9354 Cl      1  UNL1       -0.0790
     30 C           5.8881   -3.8615   23.2801 C.ar    1  UNL1        0.0291
     31 O           6.8920   -1.9363   26.6022 O.3     1  UNL1       -0.4681
     32 C           6.2023   -1.9859   27.9333 C.3     1  UNL1        0.2508
     33 C           6.4549   -3.1327   28.8666 C.ar    1  UNL1        0.1026
     34 C           6.6178   -4.5209   28.3221 C.ar    1  UNL1        0.0185
     35 C           6.8704   -5.6677   29.2553 C.ar    1  UNL1        0.0029
     36 C           6.9600   -5.4264   30.7331 C.ar    1  UNL1        0.0207
     37 C           6.7971   -4.0383   31.2776 C.ar    1  UNL1        0.0986
     38 N           6.5445   -2.8914   30.3443 N.ar    1  UNL1       -0.2445
     39 O           1.3397    1.8752   18.1830 O.3     1  UNL1       -0.4742
     40 C           3.1693    3.7190   18.1312 C.3     1  UNL1        0.0512
     41 C           1.7982    3.2604   18.5308 C.3     1  UNL1        0.2056
@<TRIPOS>BOND
     1    40    41    1
     2    41    39    1
     3    39     1    1
     4     1     2   ar
     5     2     3   ar
     6     3     4   ar
     7     4     5   ar
     8     5     6   ar
     9     6     7   ar
    10     7    22    1
    11    22    24    1
    12    24    25   ar
    13    25    26   ar
    14    26    27   ar
    15    27    31    1
    16    31    32    1
    17    32    33    1
    18    33    34   ar
    19    34    35   ar
    20    35    36   ar
    21    36    37   ar
    22    37    38   ar
    23    27    28   ar
    24    28    29    1
    25    28    30   ar
    26     7     8   ar
    27     8     9   ar
    28     9    10   ar
    29    10    11    1
    30    11    12   am
    31    12    13    2
    32    12    15    1
    33    15    16    1
    34    15    17    2
    35    17    18    1
    36    18    19    1
    37    19    20    1
    38    19    21    1
    39    10     1   ar
    40     8     3   ar
    41    30    24   ar
    42    38    33   ar
    43    22    23    1
    44    11    14    1
@<TRIPOS>MOLECULE
*****
 41 44 0 0 0
SMALL
GASTEIGER

@<TRIPOS>ATOM
      1 C           6.6905   -4.9756   26.9253 C.ar    1  UNL1        0.1534
      2 C           7.1770   -6.2203   26.2442 C.ar    1  UNL1        0.0574
      3 C           7.7682   -6.1400   24.8679 C.ar    1  UNL1        0.0888
      4 N           8.2547   -7.3847   24.1868 N.ar    1  UNL1       -0.2238
      5 C           8.8459   -7.3043   22.8106 C.ar    1  UNL1        0.2000
      6 N           8.9505   -5.9792   22.1155 N.ar    1  UNL1       -0.2089
      7 C           8.4639   -4.7345   22.7966 C.ar    1  UNL1        0.1353
      8 C           7.8728   -4.8149   24.1728 C.ar    1  UNL1        0.0508
      9 C           7.3862   -3.5701   24.8540 C.ar    1  UNL1        0.0221
     10 C           6.7951   -3.6505   26.2302 C.ar    1  UNL1        0.0852
     11 N           6.3085   -2.4058   26.9114 N.am    1  UNL1       -0.2762
     12 C           5.1497   -1.6429   26.3412 C.2     1  UNL1        0.2769
     13 O           4.4775   -2.1247   25.0897 O.2     1  UNL1       -0.2674
     14 H           6.7497   -2.0896   27.7327 H       1  UNL1        0.1553
     15 C           4.6631   -0.3982   27.0223 C.2     1  UNL1        0.1905
     16 F           5.4626    0.8677   26.9316 F       1  UNL1       -0.1997
     17 C           3.3771   -0.4194   27.7940 C.2     1  UNL1        0.0256
     18 C           2.8905    0.8252   28.4751 C.3     1  UNL1        0.1014
     19 N           1.4349    1.1846   28.4303 N.3     1  UNL1       -0.2665
     20 C           1.0019    2.4858   27.8225 C.3     1  UNL1        0.0899
     21 C           0.4122    0.2427   28.9933 C.3     1  UNL1        0.0899
     22 N           8.5685   -3.4094   22.1015 N.pl3   1  UNL1       -0.2978
     23 H           9.2290   -2.7453   22.4046 H       1  UNL1        0.1536
     24 C           7.6668   -3.0961   20.9444 C.ar    1  UNL1        0.0504
     25 C           7.9379   -1.8965   20.0856 C.ar    1  UNL1        0.0178
     26 C           7.0362   -1.5833   18.9286 C.ar    1  UNL1        0.0391
     27 C           5.8634   -2.4696   18.6303 C.ar    1  UNL1        0.1496
     28 C           5.5923   -3.6692   19.4891 C.ar    1  UNL1        0.0928
     29 CL          4.4194   -4.5555   19.1909 Cl      1  UNL1       -0.0790
     30 C           6.4940   -3.9824   20.6462 C.ar    1  UNL1        0.0291
     31 O           4.9616   -2.1563   17.4732 O.3     1  UNL1       -0.4681
     32 C           4.2991   -0.8138   17.3808 C.3     1  UNL1        0.2508
     33 C           3.1309   -0.4916   18.2648 C.ar    1  UNL1        0.1026
     34 C           2.9074   -1.2717   19.5264 C.ar    1  UNL1        0.0185
     35 C           1.7392   -0.9494   20.4104 C.ar    1  UNL1        0.0029
     36 C           0.7946    0.1529   20.0329 C.ar    1  UNL1        0.0207
     37 C           1.0181    0.9330   18.7714 C.ar    1  UNL1        0.0986
     38 N           2.1863    0.6108   17.8873 N.ar    1  UNL1       -0.2445
     39 O           6.0993   -5.0560   28.3016 O.3     1  UNL1       -0.4742
     40 C           6.8651   -5.0216   30.7840 C.3     1  UNL1        0.0512
     41 C           6.8926   -5.6553   29.4248 C.3     1  UNL1        0.2056
@<TRIPOS>BOND
     1    40    41    1
     2    41    39    1
     3    39     1    1
     4     1     2   ar
     5     2     3   ar
     6     3     4   ar
     7     4     5   ar
     8     5     6   ar
     9     6     7   ar
    10     7    22    1
    11    22    24    1
    12    24    25   ar
    13    25    26   ar
    14    26    27   ar
    15    27    31    1
    16    31    32    1
    17    32    33    1
    18    33    34   ar
    19    34    35   ar
    20    35    36   ar
    21    36    37   ar
    22    37    38   ar
    23    27    28   ar
    24    28    29    1
    25    28    30   ar
    26     7     8   ar
    27     8     9   ar
    28     9    10   ar
    29    10    11    1
    30    11    12   am
    31    12    13    2
    32    12    15    1
    33    15    16    1
    34    15    17    2
    35    17    18    1
    36    18    19    1
    37    19    20    1
    38    19    21    1
    39    10     1   ar
    40     8     3   ar
    41    30    24   ar
    42    38    33   ar
    43    22    23    1
    44    11    14    1
@<TRIPOS>MOLECULE
*****
 41 44 0 0 0
SMALL
GASTEIGER

@<TRIPOS>ATOM
      1 C           6.0447   -3.3170   20.9906 C.ar    1  UNL1        0.1534
      2 C           7.3339   -4.0508   21.2126 C.ar    1  UNL1        0.0574
      3 C           7.6983   -4.5280   22.5873 C.ar    1  UNL1        0.0888
      4 N           8.9875   -5.2619   22.8093 N.ar    1  UNL1       -0.2238
      5 C           9.3517   -5.7390   24.1839 C.ar    1  UNL1        0.2000
      6 N           8.4268   -5.4824   25.3365 N.ar    1  UNL1       -0.2089
      7 C           7.1375   -4.7485   25.1145 C.ar    1  UNL1        0.1353
      8 C           6.7733   -4.2713   23.7399 C.ar    1  UNL1        0.0508
      9 C           5.4840   -3.5374   23.5179 C.ar    1  UNL1        0.0221
     10 C           5.1197   -3.0603   22.1433 C.ar    1  UNL1        0.0852
     11 N           3.8305   -2.3264   21.9212 N.am    1  UNL1       -0.2762
     12 C           3.8300   -0.8314   21.7989 C.2     1  UNL1        0.2769
     13 O           5.1187   -0.0703   21.8986 O.2     1  UNL1       -0.2674
     14 H           2.9846   -2.8259   21.8558 H       1  UNL1        0.1553
     15 C           2.5408   -0.0975   21.5769 C.2     1  UNL1        0.1905
     16 F           2.2376    1.1415   22.3661 F       1  UNL1       -0.1997
     17 C           1.5548   -0.6025   20.5656 C.2     1  UNL1        0.0256
     18 C           0.2656    0.1314   20.3435 C.3     1  UNL1        0.1014
     19 N           0.2817    1.5244   19.7874 N.3     1  UNL1       -0.2665
     20 C          -0.4194    2.6315   20.5173 C.3     1  UNL1        0.0899
     21 C           0.9990    1.8102   18.5014 C.3     1  UNL1        0.0899
     22 N           6.2126   -4.4918   26.2671 N.pl3   1  UNL1       -0.2978
     23 H           5.2378   -4.5156   26.1308 H       1  UNL1        0.1536
     24 C           6.7727   -4.1989   27.6274 C.ar    1  UNL1        0.0504
     25 C           7.5499   -2.9377   27.8629 C.ar    1  UNL1        0.0178
     26 C           8.1100   -2.6448   29.2232 C.ar    1  UNL1        0.0391
     27 C           7.8930   -3.6131   30.3481 C.ar    1  UNL1        0.1496
     28 C           7.1158   -4.8743   30.1126 C.ar    1  UNL1        0.0928
     29 CL          6.8988   -5.8426   31.2375 Cl      1  UNL1       -0.0790
     30 C           6.5557   -5.1672   28.7523 C.ar    1  UNL1        0.0291
     31 O           8.4531   -3.3202   31.7084 O.3     1  UNL1       -0.4681
     32 C           8.2984   -1.9525   32.3047 C.3     1  UNL1        0.2508
     33 C           7.0601   -1.6071   33.0775 C.ar    1  UNL1        0.1026
     34 C           7.1013   -0.5251   34.1156 C.ar    1  UNL1        0.0185
     35 C           5.8630   -0.1796   34.8884 C.ar    1  UNL1        0.0029
     36 C           4.5835   -0.9161   34.6231 C.ar    1  UNL1        0.0207
     37 C           4.5422   -1.9980   33.5851 C.ar    1  UNL1        0.0986
     38 N           5.7805   -2.3436   32.8122 N.ar    1  UNL1       -0.2445
     39 O           5.6804   -2.8398   19.6160 O.3     1  UNL1       -0.4742
     40 C           4.5889   -5.0576   18.8162 C.3     1  UNL1        0.0512
     41 C           4.6256   -3.5582   18.8277 C.3     1  UNL1        0.2056
@<TRIPOS>BOND
     1    40    41    1
     2    41    39    1
     3    39     1    1
     4     1     2   ar
     5     2     3   ar
     6     3     4   ar
     7     4     5   ar
     8     5     6   ar
     9     6     7   ar
    10     7    22    1
    11    22    24    1
    12    24    25   ar
    13    25    26   ar
    14    26    27   ar
    15    27    31    1
    16    31    32    1
    17    32    33    1
    18    33    34   ar
    19    34    35   ar
    20    35    36   ar
    21    36    37   ar
    22    37    38   ar
    23    27    28   ar
    24    28    29    1
    25    28    30   ar
    26     7     8   ar
    27     8     9   ar
    28     9    10   ar
    29    10    11    1
    30    11    12   am
    31    12    13    2
    32    12    15    1
    33    15    16    1
    34    15    17    2
    35    17    18    1
    36    18    19    1
    37    19    20    1
    38    19    21    1
    39    10     1   ar
    40     8     3   ar
    41    30    24   ar
    42    38    33   ar
    43    22    23    1
    44    11    14    1
@<TRIPOS>MOLECULE
*****
 41 44 0 0 0
SMALL
GASTEIGER

@<TRIPOS>ATOM
      1 C          -4.1857    3.6768   24.7296 C.ar    1  UNL1        0.1534
      2 C          -4.8841    3.6341   23.4029 C.ar    1  UNL1        0.0574
      3 C          -4.0842    3.6320   22.1339 C.ar    1  UNL1        0.0888
      4 N          -4.7826    3.5893   20.8071 N.ar    1  UNL1       -0.2238
      5 C          -3.9827    3.5872   19.5383 C.ar    1  UNL1        0.2000
      6 N          -2.4843    3.6277   19.5962 N.ar    1  UNL1       -0.2089
      7 C          -1.7859    3.6703   20.9229 C.ar    1  UNL1        0.1353
      8 C          -2.5859    3.6725   22.1918 C.ar    1  UNL1        0.0508
      9 C          -1.8875    3.7151   23.5187 C.ar    1  UNL1        0.0221
     10 C          -2.6874    3.7173   24.7875 C.ar    1  UNL1        0.0852
     11 N          -1.9890    3.7599   26.1144 N.am    1  UNL1       -0.2762
     12 C          -1.0339    2.6676   26.4946 C.2     1  UNL1        0.2769
     13 O          -0.7772    1.5326   25.5480 O.2     1  UNL1       -0.2674
     14 H          -2.1575    4.5048   26.7357 H       1  UNL1        0.1553
     15 C          -0.3355    2.7102   27.8214 C.2     1  UNL1        0.1905
     16 F           0.2720    3.9923   28.3083 F       1  UNL1       -0.1997
     17 C          -0.2446    1.4707   28.6613 C.2     1  UNL1        0.0256
     18 C           0.4538    1.5133   29.9881 C.3     1  UNL1        0.1014
     19 N           1.5942    0.5793   30.2657 N.3     1  UNL1       -0.2665
     20 C           2.4437    0.7749   31.4865 C.3     1  UNL1        0.0899
     21 C           1.8852   -0.5502   29.3226 C.3     1  UNL1        0.0899
     22 N          -0.2876    3.7108   20.9809 N.pl3   1  UNL1       -0.2978
     23 H           0.1654    4.3808   21.5422 H       1  UNL1        0.1536
     24 C           0.5206    2.7305   20.1835 C.ar    1  UNL1        0.0504
     25 C           1.3609    3.2086   19.0366 C.ar    1  UNL1        0.0178
     26 C           2.1691    2.2283   18.2392 C.ar    1  UNL1        0.0391
     27 C           2.1369    0.7699   18.5886 C.ar    1  UNL1        0.1496
     28 C           1.2966    0.2918   19.7355 C.ar    1  UNL1        0.0928
     29 CL          1.2645   -1.1665   20.0849 Cl      1  UNL1       -0.0790
     30 C           0.4884    1.2722   20.5329 C.ar    1  UNL1        0.0291
     31 O           2.9451   -0.2104   17.7912 O.3     1  UNL1       -0.4681
     32 C           4.3937   -0.4270   18.1147 C.3     1  UNL1        0.2508
     33 C           4.8360   -1.7109   18.7516 C.ar    1  UNL1        0.1026
     34 C           3.9703   -2.9322   18.6573 C.ar    1  UNL1        0.0185
     35 C           4.4126   -4.2162   19.2942 C.ar    1  UNL1        0.0029
     36 C           5.7207   -4.2789   20.0256 C.ar    1  UNL1        0.0207
     37 C           6.5865   -3.0576   20.1200 C.ar    1  UNL1        0.0986
     38 N           6.1442   -1.7736   19.4830 N.ar    1  UNL1       -0.2445
     39 O          -4.9857    3.6790   25.9986 O.3     1  UNL1       -0.4742
     40 C          -6.2634    5.8019   26.7798 C.3     1  UNL1        0.0512
     41 C          -5.0528    4.9184   26.8407 C.3     1  UNL1        0.2056
@<TRIPOS>BOND
     1    40    41    1
     2    41    39    1
     3    39     1    1
     4     1     2   ar
     5     2     3   ar
     6     3     4   ar
     7     4     5   ar
     8     5     6   ar
     9     6     7   ar
    10     7    22    1
    11    22    24    1
    12    24    25   ar
    13    25    26   ar
    14    26    27   ar
    15    27    31    1
    16    31    32    1
    17    32    33    1
    18    33    34   ar
    19    34    35   ar
    20    35    36   ar
    21    36    37   ar
    22    37    38   ar
    23    27    28   ar
    24    28    29    1
    25    28    30   ar
    26     7     8   ar
    27     8     9   ar
    28     9    10   ar
    29    10    11    1
    30    11    12   am
    31    12    13    2
    32    12    15    1
    33    15    16    1
    34    15    17    2
    35    17    18    1
    36    18    19    1
    37    19    20    1
    38    19    21    1
    39    10     1   ar
    40     8     3   ar
    41    30    24   ar
    42    38    33   ar
    43    22    23    1
    44    11    14    1
@<TRIPOS>MOLECULE
*****
 41 44 0 0 0
SMALL
GASTEIGER

@<TRIPOS>ATOM
      1 C           6.8047   -5.5481   27.6290 C.ar    1  UNL1        0.1534
      2 C           7.3674   -6.6932   26.8402 C.ar    1  UNL1        0.0574
      3 C           7.7846   -6.4883   25.4140 C.ar    1  UNL1        0.0888
      4 N           8.3473   -7.6334   24.6253 N.ar    1  UNL1       -0.2238
      5 C           8.7645   -7.4284   23.1992 C.ar    1  UNL1        0.2000
      6 N           8.6190   -6.0784   22.5618 N.ar    1  UNL1       -0.2089
      7 C           8.0563   -4.9333   23.3505 C.ar    1  UNL1        0.1353
      8 C           7.6391   -5.1383   24.7766 C.ar    1  UNL1        0.0508
      9 C           7.0764   -3.9932   25.5654 C.ar    1  UNL1        0.0221
     10 C           6.6592   -4.1981   26.9915 C.ar    1  UNL1        0.0852
     11 N           6.0965   -3.0530   27.7804 N.am    1  UNL1       -0.2762
     12 C           6.9961   -2.2309   28.6549 C.2     1  UNL1        0.2769
     13 O           8.4584   -2.5539   28.7407 O.2     1  UNL1       -0.2674
     14 H           5.1367   -2.8410   27.7241 H       1  UNL1        0.1553
     15 C           6.4334   -1.0858   29.4437 C.2     1  UNL1        0.1905
     16 F           6.6660    0.3244   28.9886 F       1  UNL1       -0.1997
     17 C           5.6382   -1.3510   30.6876 C.2     1  UNL1        0.0256
     18 C           5.0755   -0.2059   31.4764 C.3     1  UNL1        0.1014
     19 N           3.5900   -0.0410   31.6035 N.3     1  UNL1       -0.2665
     20 C           3.0188    0.7637   32.7333 C.3     1  UNL1        0.0899
     21 C           2.6759   -0.6806   30.6010 C.3     1  UNL1        0.0899
     22 N           7.9109   -3.5833   22.7131 N.pl3   1  UNL1       -0.2978
     23 H           8.6410   -2.9262   22.7798 H       1  UNL1        0.1536
     24 C           6.6531   -3.2344   21.9741 C.ar    1  UNL1        0.0504
     25 C           5.6337   -2.3367   22.6106 C.ar    1  UNL1        0.0178
     26 C           4.3759   -1.9878   21.8716 C.ar    1  UNL1        0.0391
     27 C           4.1374   -2.5366   20.4961 C.ar    1  UNL1        0.1496
     28 C           5.1567   -3.4343   19.8596 C.ar    1  UNL1        0.0928
     29 CL          4.9182   -3.9831   18.4841 Cl      1  UNL1       -0.0790
     30 C           6.4146   -3.7832   20.5986 C.ar    1  UNL1        0.0291
     31 O           2.8795   -2.1877   19.7571 O.3     1  UNL1       -0.4681
     32 C           2.6994   -0.8101   19.1917 C.3     1  UNL1        0.2508
     33 C           3.8826   -0.0572   18.6597 C.ar    1  UNL1        0.1026
     34 C           4.5412   -0.4980   17.3861 C.ar    1  UNL1        0.0185
     35 C           5.7244    0.2550   16.8541 C.ar    1  UNL1        0.0029
     36 C           6.2490    1.4487   17.5956 C.ar    1  UNL1        0.0207
     37 C           5.5904    1.8895   18.8692 C.ar    1  UNL1        0.0986
     38 N           4.4072    1.1365   19.4012 N.ar    1  UNL1       -0.2445
     39 O           6.3874   -5.7530   29.0552 O.3     1  UNL1       -0.4742
     40 C           6.9721   -5.5956   31.5817 C.3     1  UNL1        0.0512
     41 C           7.4104   -5.6996   30.1509 C.3     1  UNL1        0.2056
@<TRIPOS>BOND
     1    40    41    1
     2    41    39    1
     3    39     1    1
     4     1     2   ar
     5     2     3   ar
     6     3     4   ar
     7     4     5   ar
     8     5     6   ar
     9     6     7   ar
    10     7    22    1
    11    22    24    1
    12    24    25   ar
    13    25    26   ar
    14    26    27   ar
    15    27    31    1
    16    31    32    1
    17    32    33    1
    18    33    34   ar
    19    34    35   ar
    20    35    36   ar
    21    36    37   ar
    22    37    38   ar
    23    27    28   ar
    24    28    29    1
    25    28    30   ar
    26     7     8   ar
    27     8     9   ar
    28     9    10   ar
    29    10    11    1
    30    11    12   am
    31    12    13    2
    32    12    15    1
    33    15    16    1
    34    15    17    2
    35    17    18    1
    36    18    19    1
    37    19    20    1
    38    19    21    1
    39    10     1   ar
    40     8     3   ar
    41    30    24   ar
    42    38    33   ar
    43    22    23    1
    44    11    14    1
@<TRIPOS>MOLECULE
*****
 41 44 0 0 0
SMALL
GASTEIGER

@<TRIPOS>ATOM
      1 C           1.7540    2.0051   20.5577 C.ar    1  UNL1        0.1534
      2 C           2.4688    1.9392   19.2407 C.ar    1  UNL1        0.0574
      3 C           3.1063    0.6559   18.7967 C.ar    1  UNL1        0.0888
      4 N           3.8211    0.5900   17.4797 N.ar    1  UNL1       -0.2238
      5 C           4.4586   -0.6931   17.0358 C.ar    1  UNL1        0.2000
      6 N           4.3812   -1.9104   17.9089 N.ar    1  UNL1       -0.2089
      7 C           3.6664   -1.8445   19.2259 C.ar    1  UNL1        0.1353
      8 C           3.0289   -0.5613   19.6699 C.ar    1  UNL1        0.0508
      9 C           2.3140   -0.4953   20.9870 C.ar    1  UNL1        0.0221
     10 C           1.6766    0.7878   21.4309 C.ar    1  UNL1        0.0852
     11 N           0.9617    0.8538   22.7480 N.am    1  UNL1       -0.2762
     12 C           1.7337    1.1099   24.0083 C.2     1  UNL1        0.2769
     13 O           3.2206    1.2999   23.9515 O.2     1  UNL1       -0.2674
     14 H          -0.0141    0.7291   22.7852 H       1  UNL1        0.1553
     15 C           1.0189    1.1758   25.3254 C.2     1  UNL1        0.1905
     16 F          -0.4554    0.9082   25.3927 F       1  UNL1       -0.1997
     17 C           1.7785    1.5094   26.5751 C.2     1  UNL1        0.0256
     18 C           1.0637    1.5754   27.8921 C.3     1  UNL1        0.1014
     19 N           0.7856    0.3163   28.6584 N.3     1  UNL1       -0.2665
     20 C          -0.6116   -0.2247   28.7305 C.3     1  UNL1        0.0899
     21 C           1.9046   -0.4018   29.3527 C.3     1  UNL1        0.0899
     22 N           3.5890   -3.0617   20.0991 N.pl3   1  UNL1       -0.2978
     23 H           2.8044   -3.6543   20.0490 H       1  UNL1        0.1536
     24 C           4.7070   -3.3760   21.0484 C.ar    1  UNL1        0.0504
     25 C           4.4795   -3.2928   22.5288 C.ar    1  UNL1        0.0178
     26 C           5.5975   -3.6071   23.4782 C.ar    1  UNL1        0.0391
     27 C           6.9429   -4.0046   22.9473 C.ar    1  UNL1        0.1496
     28 C           7.1703   -4.0878   21.4670 C.ar    1  UNL1        0.0928
     29 CL          8.5158   -4.4853   20.9361 Cl      1  UNL1       -0.0790
     30 C           6.0524   -3.7735   20.5175 C.ar    1  UNL1        0.0291
     31 O           8.0609   -4.3189   23.8967 O.3     1  UNL1       -0.4681
     32 C           8.1423   -5.6726   24.5376 C.3     1  UNL1        0.2508
     33 C           7.9376   -5.8157   26.0167 C.ar    1  UNL1        0.1026
     34 C           6.7294   -5.2111   26.6686 C.ar    1  UNL1        0.0185
     35 C           6.5247   -5.3542   28.1476 C.ar    1  UNL1        0.0029
     36 C           7.5281   -6.1018   28.9748 C.ar    1  UNL1        0.0207
     37 C           8.7362   -6.7064   28.3230 C.ar    1  UNL1        0.0986
     38 N           8.9410   -6.5633   26.8439 N.ar    1  UNL1       -0.2445
     39 O           1.1165    3.2883   21.0017 O.3     1  UNL1       -0.4742
     40 C          -1.4241    2.9457   20.5798 C.3     1  UNL1        0.0512
     41 C          -0.1694    3.7423   20.3770 C.3     1  UNL1        0.2056
@<TRIPOS>BOND
     1    40    41    1
     2    41    39    1
     3    39     1    1
     4     1     2   ar
     5     2     3   ar
     6     3     4   ar
     7     4     5   ar
     8     5     6   ar
     9     6     7   ar
    10     7    22    1
    11    22    24    1
    12    24    25   ar
    13    25    26   ar
    14    26    27   ar
    15    27    31    1
    16    31    32    1
    17    32    33    1
    18    33    34   ar
    19    34    35   ar
    20    35    36   ar
    21    36    37   ar
    22    37    38   ar
    23    27    28   ar
    24    28    29    1
    25    28    30   ar
    26     7     8   ar
    27     8     9   ar
    28     9    10   ar
    29    10    11    1
    30    11    12   am
    31    12    13    2
    32    12    15    1
    33    15    16    1
    34    15    17    2
    35    17    18    1
    36    18    19    1
    37    19    20    1
    38    19    21    1
    39    10     1   ar
    40     8     3   ar
    41    30    24   ar
    42    38    33   ar
    43    22    23    1
    44    11    14    1
@<TRIPOS>MOLECULE
*****
 41 44 0 0 0
SMALL
GASTEIGER

@<TRIPOS>ATOM
      1 C           8.2295   -4.7677   22.0960 C.ar    1  UNL1        0.1534
      2 C           8.9428   -5.9502   22.6814 C.ar    1  UNL1        0.0574
      3 C           8.5916   -6.4320   24.0579 C.ar    1  UNL1        0.0888
      4 N           9.3049   -7.6145   24.6433 N.ar    1  UNL1       -0.2238
      5 C           8.9536   -8.0962   26.0197 C.ar    1  UNL1        0.2000
      6 N           7.8891   -7.3954   26.8107 N.ar    1  UNL1       -0.2089
      7 C           7.1758   -6.2129   26.2253 C.ar    1  UNL1        0.1353
      8 C           7.5270   -5.7312   24.8489 C.ar    1  UNL1        0.0508
      9 C           6.8137   -4.5486   24.2634 C.ar    1  UNL1        0.0221
     10 C           7.1650   -4.0669   22.8870 C.ar    1  UNL1        0.0852
     11 N           6.4517   -2.8843   22.3014 N.am    1  UNL1       -0.2762
     12 C           5.1824   -3.0820   21.5268 C.2     1  UNL1        0.2769
     13 O           4.6265   -4.4624   21.3378 O.2     1  UNL1       -0.2674
     14 H           6.8165   -1.9783   22.4255 H       1  UNL1        0.1553
     15 C           4.4691   -1.8995   20.9413 C.2     1  UNL1        0.1905
     16 F           4.9188   -0.5092   21.2801 F       1  UNL1       -0.1997
     17 C           3.3061   -2.1073   20.0171 C.2     1  UNL1        0.0256
     18 C           2.5928   -0.9248   19.4316 C.3     1  UNL1        0.1014
     19 N           3.2677   -0.0819   18.3904 N.3     1  UNL1       -0.2665
     20 C           3.6389   -0.6805   17.0659 C.3     1  UNL1        0.0899
     21 C           3.5713    1.3594   18.6735 C.3     1  UNL1        0.0899
     22 N           6.1112   -5.5121   27.0162 N.pl3   1  UNL1       -0.2978
     23 H           5.1624   -5.6427   26.7884 H       1  UNL1        0.1536
     24 C           6.4923   -4.6123   28.1542 C.ar    1  UNL1        0.0504
     25 C           6.8502   -3.1796   27.8902 C.ar    1  UNL1        0.0178
     26 C           7.2313   -2.2798   29.0282 C.ar    1  UNL1        0.0391
     27 C           7.2546   -2.8126   30.4302 C.ar    1  UNL1        0.1496
     28 C           6.8968   -4.2451   30.6943 C.ar    1  UNL1        0.0928
     29 CL          6.9201   -4.7779   32.0963 Cl      1  UNL1       -0.0790
     30 C           6.5156   -5.1450   29.5562 C.ar    1  UNL1        0.0291
     31 O           7.6357   -1.9127   31.5683 O.3     1  UNL1       -0.4681
     32 C           6.6829   -0.8542   32.0389 C.3     1  UNL1        0.2508
     33 C           6.4679   -0.6380   33.5076 C.ar    1  UNL1        0.1026
     34 C           5.1063   -0.8394   34.1040 C.ar    1  UNL1        0.0185
     35 C           4.8913   -0.6232   35.5726 C.ar    1  UNL1        0.0029
     36 C           6.0379   -0.2056   36.4450 C.ar    1  UNL1        0.0207
     37 C           7.3994   -0.0042   35.8487 C.ar    1  UNL1        0.0986
     38 N           7.6145   -0.2204   34.3799 N.ar    1  UNL1       -0.2445
     39 O           8.5807   -4.2859   20.7195 O.3     1  UNL1       -0.4742
     40 C           9.2402   -2.1708   19.3625 C.3     1  UNL1        0.0512
     41 C           9.4399   -3.0684   20.5476 C.3     1  UNL1        0.2056
@<TRIPOS>BOND
     1    40    41    1
     2    41    39    1
     3    39     1    1
     4     1     2   ar
     5     2     3   ar
     6     3     4   ar
     7     4     5   ar
     8     5     6   ar
     9     6     7   ar
    10     7    22    1
    11    22    24    1
    12    24    25   ar
    13    25    26   ar
    14    26    27   ar
    15    27    31    1
    16    31    32    1
    17    32    33    1
    18    33    34   ar
    19    34    35   ar
    20    35    36   ar
    21    36    37   ar
    22    37    38   ar
    23    27    28   ar
    24    28    29    1
    25    28    30   ar
    26     7     8   ar
    27     8     9   ar
    28     9    10   ar
    29    10    11    1
    30    11    12   am
    31    12    13    2
    32    12    15    1
    33    15    16    1
    34    15    17    2
    35    17    18    1
    36    18    19    1
    37    19    20    1
    38    19    21    1
    39    10     1   ar
    40     8     3   ar
    41    30    24   ar
    42    38    33   ar
    43    22    23    1
    44    11    14    1
@<TRIPOS>MOLECULE
*****
 41 44 0 0 0
SMALL
GASTEIGER

@<TRIPOS>ATOM
      1 C          -4.1109    3.4475   24.0756 C.ar    1  UNL1        0.1534
      2 C          -4.6412    3.5622   22.6772 C.ar    1  UNL1        0.0574
      3 C          -3.6916    3.6225   21.5176 C.ar    1  UNL1        0.0888
      4 N          -4.2219    3.7372   20.1192 N.ar    1  UNL1       -0.2238
      5 C          -3.2723    3.7975   18.9596 C.ar    1  UNL1        0.2000
      6 N          -1.7924    3.7431   19.1985 N.ar    1  UNL1       -0.2089
      7 C          -1.2622    3.6285   20.5969 C.ar    1  UNL1        0.1353
      8 C          -2.2118    3.5681   21.7564 C.ar    1  UNL1        0.0508
      9 C          -1.6815    3.4534   23.1550 C.ar    1  UNL1        0.0221
     10 C          -2.6311    3.3931   24.3145 C.ar    1  UNL1        0.0852
     11 N          -2.1008    3.2784   25.7130 N.am    1  UNL1       -0.2762
     12 C          -1.0147    2.2920   26.0247 C.2     1  UNL1        0.2769
     13 O          -0.4588    1.4202   24.9379 O.2     1  UNL1       -0.2674
     14 H          -2.4657    3.8506   26.4263 H       1  UNL1        0.1553
     15 C          -0.4844    2.1773   27.4231 C.2     1  UNL1        0.1905
     16 F           0.4426    3.2261   27.9621 F       1  UNL1       -0.1997
     17 C          -0.8812    1.0137   28.2826 C.2     1  UNL1        0.0256
     18 C          -0.3509    0.8990   29.6810 C.3     1  UNL1        0.1014
     19 N           1.1042    0.6160   29.9105 N.3     1  UNL1       -0.2665
     20 C           1.8501    1.3487   30.9861 C.3     1  UNL1        0.0899
     21 C           1.8133   -0.3995   29.0645 C.3     1  UNL1        0.0899
     22 N           0.2177    3.5741   20.8358 N.pl3   1  UNL1       -0.2978
     23 H           0.7391    4.4076   20.8864 H       1  UNL1        0.1536
     24 C           0.9031    2.2497   20.9974 C.ar    1  UNL1        0.0504
     25 C           0.4188    1.0558   20.2292 C.ar    1  UNL1        0.0178
     26 C           1.1043   -0.2686   20.3909 C.ar    1  UNL1        0.0391
     27 C           2.2741   -0.3991   21.3207 C.ar    1  UNL1        0.1496
     28 C           2.7584    0.7948   22.0889 C.ar    1  UNL1        0.0928
     29 CL          3.9282    0.6642   23.0187 Cl      1  UNL1       -0.0790
     30 C           2.0729    2.1192   21.9272 C.ar    1  UNL1        0.0291
     31 O           2.9595   -1.7235   21.4823 O.3     1  UNL1       -0.4681
     32 C           4.2338   -2.0037   20.7424 C.3     1  UNL1        0.2508
     33 C           4.5771   -1.2140   19.5142 C.ar    1  UNL1        0.1026
     34 C           3.8880   -1.5102   18.2151 C.ar    1  UNL1        0.0185
     35 C           4.2312   -0.7205   16.9870 C.ar    1  UNL1        0.0029
     36 C           5.2636    0.3654   17.0577 C.ar    1  UNL1        0.0207
     37 C           5.9527    0.6616   18.3567 C.ar    1  UNL1        0.0986
     38 N           5.6095   -0.1281   19.5850 N.ar    1  UNL1       -0.2445
     39 O          -5.0606    3.3872   25.2353 O.3     1  UNL1       -0.4742
     40 C          -4.9385    5.2320   27.0606 C.3     1  UNL1        0.0512
     41 C          -5.5891    4.6547   25.8385 C.3     1  UNL1        0.2056
@<TRIPOS>BOND
     1    40    41    1
     2    41    39    1
     3    39     1    1
     4     1     2   ar
     5     2     3   ar
     6     3     4   ar
     7     4     5   ar
     8     5     6   ar
     9     6     7   ar
    10     7    22    1
    11    22    24    1
    12    24    25   ar
    13    25    26   ar
    14    26    27   ar
    15    27    31    1
    16    31    32    1
    17    32    33    1
    18    33    34   ar
    19    34    35   ar
    20    35    36   ar
    21    36    37   ar
    22    37    38   ar
    23    27    28   ar
    24    28    29    1
    25    28    30   ar
    26     7     8   ar
    27     8     9   ar
    28     9    10   ar
    29    10    11    1
    30    11    12   am
    31    12    13    2
    32    12    15    1
    33    15    16    1
    34    15    17    2
    35    17    18    1
    36    18    19    1
    37    19    20    1
    38    19    21    1
    39    10     1   ar
    40     8     3   ar
    41    30    24   ar
    42    38    33   ar
    43    22    23    1
    44    11    14    1
